# MOL2 file generated by ConQuest
# Please check atom types

@<TRIPOS>MOLECULE
ADETUA
    34    36     1
SMALL
NO_CHARGES
****
Generated from CSD

@<TRIPOS>ATOM
      1 C1         2.8518    5.3264    4.3842 C.ar      1 RES1    0.0000
      2 C2         1.9400    5.4651    5.4005 C.ar      1 RES1    0.0000
      3 H1         1.1029    5.0189    5.3413 H         1 RES1    0.0000
      4 C3         2.2128    6.2253    6.4868 C.ar      1 RES1    0.0000
      5 H2         1.5623    6.3197    7.1730 H         1 RES1    0.0000
      6 C4         3.4190    6.8579    6.6008 C.ar      1 RES1    0.0000
      7 H3         3.6125    7.3838    7.3677 H         1 RES1    0.0000
      8 C5         4.3426    6.7269    5.6066 C.ar      1 RES1    0.0000
      9 H4         5.1797    7.1685    5.6778 H         1 RES1    0.0000
     10 C6         4.0716    5.9685    4.5184 C.ar      1 RES1    0.0000
     11 H5         4.7274    5.8769    3.8373 H         1 RES1    0.0000
     12 C7         2.5329    4.5576    3.1820 C.ar      1 RES1    0.0000
     13 C8         3.4139    3.7273    2.5809 C.ar      1 RES1    0.0000
     14 H6         4.2658    3.5920    2.9784 H         1 RES1    0.0000
     15 C9         3.1049    3.0658    1.3925 C.ar      1 RES1    0.0000
     16 C10        4.0125    2.2317    0.7196 C.ar      1 RES1    0.0000
     17 H7         4.8587    2.0605    1.1172 H         1 RES1    0.0000
     18 C11        3.7303    1.6647   -0.4669 C.ar      1 RES1    0.0000
     19 C12        2.4737    1.8987   -1.0642 C.ar      1 RES1    0.0000
     20 C13        1.5717    2.6737   -0.4165 C.ar      1 RES1    0.0000
     21 H8         0.7209    2.8139   -0.8153 H         1 RES1    0.0000
     22 C14        1.8410    3.2721    0.8046 C.ar      1 RES1    0.0000
     23 C15        0.9416    4.1114    1.4498 C.ar      1 RES1    0.0000
     24 H9         0.0811    4.2531    1.0718 H         1 RES1    0.0000
     25 C16        1.2659    4.7264    2.5979 C.ar      1 RES1    0.0000
     26 H10        0.6269    5.2864    3.0238 H         1 RES1    0.0000
     27 C17        4.7155    0.8051   -1.1644 C.3       1 RES1    0.0000
     28 H11        5.5558    0.7965   -0.6597 H         1 RES1    0.0000
     29 H12        4.8784    1.1594   -2.0642 H         1 RES1    0.0000
     30 H13        4.3641   -0.1076   -1.2299 H         1 RES1    0.0000
     31 C18        2.1481    1.2836   -2.3767 C.3       1 RES1    0.0000
     32 H14        1.2425    1.5469   -2.6445 H         1 RES1    0.0000
     33 H15        2.1964    0.3075   -2.3011 H         1 RES1    0.0000
     34 H16        2.7896    1.5930   -3.0503 H         1 RES1    0.0000
@<TRIPOS>BOND
     1    1    2 ar
     2    2    3 1
     3    4    2 ar
     4    5    4 1
     5    6    4 ar
     6    7    6 1
     7    8    6 ar
     8    9    8 1
     9   10    1 ar
    10   11   10 1
    11   12    1 1
    12   13   12 ar
    13   14   13 1
    14   15   13 ar
    15   16   15 ar
    16   17   16 1
    17   18   16 ar
    18   19   18 ar
    19   20   19 ar
    20   21   20 1
    21   22   15 ar
    22   23   22 ar
    23   24   23 1
    24   25   12 ar
    25   26   25 1
    26   27   18 1
    27   28   27 1
    28   29   27 1
    29   30   27 1
    30   31   19 1
    31   32   31 1
    32   33   31 1
    33   34   31 1
    34    8   10 ar
    35   20   22 ar
    36   23   25 ar
@<TRIPOS>SUBSTRUCTURE
     1 RES1 1

@<TRIPOS>CRYSIN
   6.2340   30.7530    6.6110  90.0000 107.6180  90.0000 231 1

