# MOL2 file generated by ConQuest
# Please check atom types

@<TRIPOS>MOLECULE
ADETOU
    34    36     1
SMALL
NO_CHARGES
****
Generated from CSD

@<TRIPOS>ATOM
      1 C1         9.6030    1.5989    1.5729 C.ar      1 RES1    0.0000
      2 C2         9.2869    2.6697    0.7764 C.ar      1 RES1    0.0000
      3 H1         9.9583    3.3115    0.5756 H         1 RES1    0.0000
      4 C3         7.9957    2.8424    0.2489 C.ar      1 RES1    0.0000
      5 H2         7.8052    3.5883   -0.3080 H         1 RES1    0.0000
      6 C4         7.0206    1.9414    0.5346 C.ar      1 RES1    0.0000
      7 H3         6.1549    2.0564    0.1617 H         1 RES1    0.0000
      8 C5         7.2735    0.8353    1.3781 C.ar      1 RES1    0.0000
      9 C6         6.2588   -0.0718    1.7452 C.ar      1 RES1    0.0000
     10 H4         5.3900    0.0456    1.3804 H         1 RES1    0.0000
     11 C7         6.4749   -1.1152    2.6041 C.ar      1 RES1    0.0000
     12 C8         7.7771   -1.2874    3.1545 C.ar      1 RES1    0.0000
     13 C9         8.7784   -0.4228    2.8076 C.ar      1 RES1    0.0000
     14 H5         9.6410   -0.5494    3.1843 H         1 RES1    0.0000
     15 C10        8.5800    0.6552    1.9083 C.ar      1 RES1    0.0000
     16 C11       10.9959    1.4328    2.0827 C.ar      1 RES1    0.0000
     17 C12       11.5936    2.4166    2.8586 C.ar      1 RES1    0.0000
     18 H6        11.1038    3.1990    3.0823 H         1 RES1    0.0000
     19 C13       12.8968    2.2724    3.3099 C.ar      1 RES1    0.0000
     20 H7        13.2918    2.9507    3.8447 H         1 RES1    0.0000
     21 C14       13.6148    1.1487    2.9837 C.ar      1 RES1    0.0000
     22 H8        14.5070    1.0477    3.2941 H         1 RES1    0.0000
     23 C15       13.0437    0.1710    2.2077 C.ar      1 RES1    0.0000
     24 H9        13.5450   -0.6011    1.9734 H         1 RES1    0.0000
     25 C16       11.7436    0.3066    1.7678 C.ar      1 RES1    0.0000
     26 H10       11.3541   -0.3809    1.2418 H         1 RES1    0.0000
     27 C17        5.3620   -2.0460    3.0020 C.3       1 RES1    0.0000
     28 H11        5.1891   -1.9566    3.9621 H         1 RES1    0.0000
     29 H12        5.6211   -2.9696    2.8012 H         1 RES1    0.0000
     30 H13        4.5514   -1.8179    2.5009 H         1 RES1    0.0000
     31 C18        8.0358   -2.3995    4.1256 C.3       1 RES1    0.0000
     32 H14        8.9805   -2.3916    4.3876 H         1 RES1    0.0000
     33 H15        7.8207   -3.2580    3.7042 H         1 RES1    0.0000
     34 H16        7.4754   -2.2766    4.9190 H         1 RES1    0.0000
@<TRIPOS>BOND
     1    1    2 ar
     2    2    3 1
     3    4    2 ar
     4    5    4 1
     5    6    4 ar
     6    7    6 1
     7    8    6 ar
     8    9    8 ar
     9   10    9 1
    10   11    9 ar
    11   12   11 ar
    12   13   12 ar
    13   14   13 1
    14   15    1 ar
    15   16    1 1
    16   17   16 ar
    17   18   17 1
    18   19   17 ar
    19   20   19 1
    20   21   19 ar
    21   22   21 1
    22   23   21 ar
    23   24   23 1
    24   25   16 ar
    25   26   25 1
    26   27   11 1
    27   28   27 1
    28   29   27 1
    29   30   27 1
    30   31   12 1
    31   32   31 1
    32   33   31 1
    33   34   31 1
    34    8   15 ar
    35   13   15 ar
    36   23   25 ar
@<TRIPOS>SUBSTRUCTURE
     1 RES1 1

@<TRIPOS>CRYSIN
  11.0139    6.0840   19.9450  90.0000 105.1440  90.0000 231 1

