# MOL2 file generated by ConQuest
# Please check atom types

@<TRIPOS>MOLECULE
ANTCEN09
    24    26     1
SMALL
NO_CHARGES
****
Generated from CSD

@<TRIPOS>ATOM
      1 C1        -1.6352    0.1593    3.3335 C.ar      1 RES1    0.0000
      2 C2        -0.8280    0.9315    2.5629 C.ar      1 RES1    0.0000
      3 C3        -0.4039    0.4876    1.2660 C.ar      1 RES1    0.0000
      4 C4         0.4173    1.2646    0.4447 C.ar      1 RES1    0.0000
      5 C5        -0.8327   -0.8045    0.8114 C.ar      1 RES1    0.0000
      6 C6        -1.6822   -1.5832    1.6609 C.ar      1 RES1    0.0000
      7 C7        -2.0759   -1.1160    2.8744 C.ar      1 RES1    0.0000
      8 H1        -1.9523    0.4553    4.2201 H         1 RES1    0.0000
      9 H2        -0.4967    1.8091    2.8889 H         1 RES1    0.0000
     10 H3         0.7257    2.1206    0.7698 H         1 RES1    0.0000
     11 H4        -1.9729   -2.4560    1.3131 H         1 RES1    0.0000
     12 H5        -2.7136   -1.6533    3.4413 H         1 RES1    0.0000
     13 C5B        0.8327    0.8045   -0.8114 C.ar      1 RES1    0.0000
     14 C4B       -0.4173   -1.2646   -0.4447 C.ar      1 RES1    0.0000
     15 C3B        0.4039   -0.4876   -1.2660 C.ar      1 RES1    0.0000
     16 C6B        1.6822    1.5832   -1.6609 C.ar      1 RES1    0.0000
     17 H3B       -0.7257   -2.1206   -0.7698 H         1 RES1    0.0000
     18 C2B        0.8280   -0.9315   -2.5629 C.ar      1 RES1    0.0000
     19 C7B        2.0759    1.1160   -2.8744 C.ar      1 RES1    0.0000
     20 H4B        1.9729    2.4560   -1.3131 H         1 RES1    0.0000
     21 C1B        1.6352   -0.1593   -3.3335 C.ar      1 RES1    0.0000
     22 H2B        0.4967   -1.8091   -2.8889 H         1 RES1    0.0000
     23 H5B        2.7136    1.6533   -3.4413 H         1 RES1    0.0000
     24 H1B        1.9523   -0.4553   -4.2201 H         1 RES1    0.0000
@<TRIPOS>BOND
     1    1    2 ar
     2    2    3 ar
     3    3    4 ar
     4    4   10 1
     5    5    3 ar
     6    6    5 ar
     7    7    1 ar
     8    8    1 1
     9    9    2 1
    10   11    6 1
    11   12    7 1
    12   13    4 ar
    13   14    5 ar
    14   15   13 ar
    15   16   13 ar
    16   17   14 1
    17   18   15 ar
    18   19   16 ar
    19   20   16 1
    20   21   18 ar
    21   22   18 1
    22   23   19 1
    23   24   21 1
    24    6    7 ar
    25   14   15 ar
    26   19   21 ar
@<TRIPOS>SUBSTRUCTURE
     1 RES1 1

@<TRIPOS>CRYSIN
   8.4144    5.9903   11.0953  90.0000 125.2930  90.0000  14 2

