# MOL2 file generated by ConQuest
# Please check atom types

@<TRIPOS>MOLECULE
ANTCEN10
    24    26     1
SMALL
NO_CHARGES
****
Generated from CSD

@<TRIPOS>ATOM
      1 C1        -1.6232    0.1619    3.3381 C.ar      1 RES1    0.0000
      2 C2        -0.8185    0.9317    2.5651 C.ar      1 RES1    0.0000
      3 C3        -0.3977    0.4893    1.2662 C.ar      1 RES1    0.0000
      4 C4         0.4216    1.2621    0.4451 C.ar      1 RES1    0.0000
      5 C5        -0.8310   -0.8022    0.8139 C.ar      1 RES1    0.0000
      6 C6        -1.6794   -1.5775    1.6631 C.ar      1 RES1    0.0000
      7 C7        -2.0683   -1.1098    2.8785 C.ar      1 RES1    0.0000
      8 H1        -1.9533    0.4437    4.2327 H         1 RES1    0.0000
      9 H2        -0.5034    1.8167    2.8703 H         1 RES1    0.0000
     10 H3         0.7241    2.1285    0.7812 H         1 RES1    0.0000
     11 H4        -1.9857   -2.4763    1.3443 H         1 RES1    0.0000
     12 H5        -2.6689   -1.6608    3.4516 H         1 RES1    0.0000
     13 C5B        0.8310    0.8022   -0.8139 C.ar      1 RES1    0.0000
     14 C4B       -0.4216   -1.2621   -0.4451 C.ar      1 RES1    0.0000
     15 C3B        0.3977   -0.4893   -1.2662 C.ar      1 RES1    0.0000
     16 C6B        1.6794    1.5775   -1.6631 C.ar      1 RES1    0.0000
     17 H3B       -0.7241   -2.1285   -0.7812 H         1 RES1    0.0000
     18 C2B        0.8185   -0.9317   -2.5651 C.ar      1 RES1    0.0000
     19 C7B        2.0683    1.1098   -2.8785 C.ar      1 RES1    0.0000
     20 H4B        1.9857    2.4763   -1.3443 H         1 RES1    0.0000
     21 C1B        1.6232   -0.1619   -3.3381 C.ar      1 RES1    0.0000
     22 H2B        0.5034   -1.8167   -2.8703 H         1 RES1    0.0000
     23 H5B        2.6689    1.6608   -3.4516 H         1 RES1    0.0000
     24 H1B        1.9533   -0.4437   -4.2327 H         1 RES1    0.0000
@<TRIPOS>BOND
     1    1    2 ar
     2    2    3 ar
     3    3    4 ar
     4    4   10 1
     5    5    3 ar
     6    6    5 ar
     7    7    1 ar
     8    8    1 1
     9    9    2 1
    10   11    6 1
    11   12    7 1
    12   13    4 ar
    13   14    5 ar
    14   15   13 ar
    15   16   13 ar
    16   17   14 1
    17   18   15 ar
    18   19   16 ar
    19   20   16 1
    20   21   18 ar
    21   22   18 1
    22   23   19 1
    23   24   21 1
    24    6    7 ar
    25   14   15 ar
    26   19   21 ar
@<TRIPOS>SUBSTRUCTURE
     1 RES1 1

@<TRIPOS>CRYSIN
   8.4414    5.9958   11.1123  90.0000 125.1750  90.0000  14 2

