# MOL2 file generated by ConQuest
# Please check atom types

@<TRIPOS>MOLECULE
APOVUX
    57    60     2
SMALL
NO_CHARGES
****
Generated from CSD

@<TRIPOS>ATOM
      1 C1        -1.5225    1.8212    9.0572 C.ar      1 RES1    0.0000
      2 H1        -2.1026    1.2098    8.6188 H         1 RES1    0.0000
      3 C2        -0.6426    1.3569    9.9715 C.ar      1 RES1    0.0000
      4 H2        -0.6248    0.4293   10.1763 H         1 RES1    0.0000
      5 C3         0.2480    2.2294   10.6248 C.ar      1 RES1    0.0000
      6 H3         0.8789    1.8892   11.2485 H         1 RES1    0.0000
      7 C4         0.2013    3.5596   10.3588 C.ar      1 RES1    0.0000
      8 H4         0.8041    4.1425   10.8057 H         1 RES1    0.0000
      9 C5        -0.7253    4.1048    9.4296 C.ar      1 RES1    0.0000
     10 C6        -1.6019    3.2103    8.7357 C.ar      1 RES1    0.0000
     11 C7        -0.7919    5.4884    9.1819 C.ar      1 RES1    0.0000
     12 C8         0.0682    6.4224    9.9610 C.2       1 RES1    0.0000
     13 C9        -0.2368    6.8665   11.2672 C.3       1 RES1    0.0000
     14 H5        -0.3141    6.0961   11.8848 H         1 RES1    0.0000
     15 H6        -1.0925    7.3638   11.2723 H         1 RES1    0.0000
     16 C10        0.8798    7.7536   11.6837 C.ar      1 RES1    0.0000
     17 C11        1.0928    8.4679   12.8506 C.ar      1 RES1    0.0000
     18 H7         0.4709    8.4146   13.5661 H         1 RES1    0.0000
     19 C12        2.2175    9.2567   12.9631 C.ar      1 RES1    0.0000
     20 H8         2.3675    9.7587   13.7561 H         1 RES1    0.0000
     21 C13        3.1335    9.3192   11.9155 C.ar      1 RES1    0.0000
     22 H9         3.9055    9.8653   11.9984 H         1 RES1    0.0000
     23 C14        2.9276    8.5884   10.7504 C.ar      1 RES1    0.0000
     24 H10        3.5619    8.6224   10.0439 H         1 RES1    0.0000
     25 C15        1.8041    7.8235   10.6349 C.ar      1 RES1    0.0000
     26 C16        1.3077    6.9658    9.5219 C.2       1 RES1    0.0000
     27 H11        1.7342    6.8122    8.6866 H         1 RES1    0.0000
     28 H12       -1.0045    6.6412   11.7796 Du        2 SUP2    0.0000
     29 H13        1.1797    7.5036    8.7002 Du        2 SUP2    0.0000
     30 H14        1.9544    6.2413    9.3280 Du        2 SUP2    0.0000
     31 C1B       -1.7772    7.3721    7.9089 C.ar      1 RES1    0.0000
     32 H1B       -1.1971    7.9835    8.3473 H         1 RES1    0.0000
     33 C2B       -2.6571    7.8364    6.9946 C.ar      1 RES1    0.0000
     34 H2B       -2.6750    8.7640    6.7898 H         1 RES1    0.0000
     35 C3B       -3.5477    6.9639    6.3412 C.ar      1 RES1    0.0000
     36 H3B       -4.1786    7.3041    5.7176 H         1 RES1    0.0000
     37 C4B       -3.5010    5.6337    6.6073 C.ar      1 RES1    0.0000
     38 H4B       -4.1038    5.0508    6.1604 H         1 RES1    0.0000
     39 C5B       -2.5744    5.0885    7.5365 C.ar      1 RES1    0.0000
     40 C6B       -1.6978    5.9830    8.2304 C.ar      1 RES1    0.0000
     41 C7B       -2.5079    3.7049    7.7842 C.ar      1 RES1    0.0000
     42 C8B       -3.3679    2.7709    7.0051 C.2       1 RES1    0.0000
     43 C9B       -3.0629    2.3268    5.6989 C.3       1 RES1    0.0000
     44 H5B       -2.9856    3.0972    5.0813 H         1 RES1    0.0000
     45 H6B       -2.2072    1.8295    5.6938 H         1 RES1    0.0000
     46 C10B      -4.1795    1.4397    5.2824 C.ar      1 RES1    0.0000
     47 C11B      -4.3925    0.7254    4.1155 C.ar      1 RES1    0.0000
     48 H7B       -3.7706    0.7787    3.4000 H         1 RES1    0.0000
     49 C12B      -5.5173   -0.0634    4.0030 C.ar      1 RES1    0.0000
     50 H8B       -5.6672   -0.5654    3.2100 H         1 RES1    0.0000
     51 C13B      -6.4332   -0.1259    5.0506 C.ar      1 RES1    0.0000
     52 H9B       -7.2052   -0.6720    4.9677 H         1 RES1    0.0000
     53 C14B      -6.2273    0.6049    6.2157 C.ar      1 RES1    0.0000
     54 H10B      -6.8617    0.5709    6.9222 H         1 RES1    0.0000
     55 C15B      -5.1038    1.3698    6.3312 C.ar      1 RES1    0.0000
     56 C16B      -4.6074    2.2275    7.4442 C.2       1 RES1    0.0000
     57 H11B      -5.0340    2.3811    8.2795 H         1 RES1    0.0000
@<TRIPOS>BOND
     1    1    2 1
     2    3    1 ar
     3    4    3 1
     4    5    3 ar
     5    6    5 1
     6    7    5 ar
     7    8    7 1
     8    9    7 ar
     9   10    1 ar
    10   11    9 ar
    11   12   11 1
    12   13   12 1
    13   14   13 1
    14   15   13 1
    15   16   13 1
    16   17   16 ar
    17   18   17 1
    18   19   17 ar
    19   20   19 1
    20   21   19 ar
    21   22   21 1
    22   23   21 ar
    23   24   23 1
    24   25   16 ar
    25   26   12 2
    26   27   26 1
    27   31   32 1
    28   33   31 ar
    29   34   33 1
    30   35   33 ar
    31   36   35 1
    32   37   35 ar
    33   38   37 1
    34   39   37 ar
    35   40   11 ar
    36   41   10 ar
    37   42   41 1
    38   43   42 1
    39   44   43 1
    40   45   43 1
    41   46   43 1
    42   47   46 ar
    43   48   47 1
    44   49   47 ar
    45   50   49 1
    46   51   49 ar
    47   52   51 1
    48   53   51 ar
    49   54   53 1
    50   55   46 ar
    51   56   42 2
    52   57   56 1
    53    9   10 ar
    54   23   25 ar
    55   25   26 1
    56   31   40 ar
    57   39   40 ar
    58   39   41 ar
    59   53   55 ar
    60   55   56 1
@<TRIPOS>SUBSTRUCTURE
     1 RES1 1
     2 SUP2 28

@<TRIPOS>CRYSIN
   6.7890    9.1933   17.2840  90.0000 101.0060  90.0000 231 1

