# MOL2 file generated by ConQuest
# Please check atom types

@<TRIPOS>MOLECULE
AQOPIH
    45    52     1
SMALL
NO_CHARGES
****
Generated from CSD

@<TRIPOS>ATOM
      1 C1         9.7431    2.5940    6.8095 C.ar      1 RES1    0.0000
      2 C2        10.5051    3.6981    6.3736 C.ar      1 RES1    0.0000
      3 H1        11.4503    3.6229    6.3108 H         1 RES1    0.0000
      4 C3         9.8950    4.8790    6.0410 C.ar      1 RES1    0.0000
      5 H2        10.4215    5.6002    5.7170 H         1 RES1    0.0000
      6 C4         8.4988    5.0426    6.1704 C.ar      1 RES1    0.0000
      7 C5         7.8595    6.2571    5.8109 C.ar      1 RES1    0.0000
      8 H3         8.3790    6.9819    5.4823 H         1 RES1    0.0000
      9 C6         6.5144    6.3974    5.9289 C.ar      1 RES1    0.0000
     10 H4         6.1084    7.2063    5.6428 H         1 RES1    0.0000
     11 C7         5.6954    5.3685    6.4691 C.ar      1 RES1    0.0000
     12 C8         4.2580    5.5987    6.6141 C.ar      1 RES1    0.0000
     13 C9         3.5208    6.8394    6.6201 C.ar      1 RES1    0.0000
     14 H5         3.9303    7.6206    6.2667 H         1 RES1    0.0000
     15 C10        2.2346    6.9264    7.1246 C.ar      1 RES1    0.0000
     16 H6         1.7818    7.7609    7.0911 H         1 RES1    0.0000
     17 C11        1.5635    5.7887    7.6989 C.ar      1 RES1    0.0000
     18 C12        0.4923    5.7441    8.6662 C.ar      1 RES1    0.0000
     19 H7        -0.0687    6.5040    8.7661 H         1 RES1    0.0000
     20 C13        0.2588    4.6342    9.4501 C.ar      1 RES1    0.0000
     21 H8        -0.4628    4.6510   10.0680 H         1 RES1    0.0000
     22 C14        1.0791    3.4438    9.3609 C.ar      1 RES1    0.0000
     23 C15        1.2843    2.3945   10.3354 C.ar      1 RES1    0.0000
     24 H9         0.5984    2.2075   10.9646 H         1 RES1    0.0000
     25 C16        2.4531    1.6580   10.3729 C.ar      1 RES1    0.0000
     26 H10        2.5529    0.9813   11.0329 H         1 RES1    0.0000
     27 C17        3.5259    1.8903    9.4363 C.ar      1 RES1    0.0000
     28 C18        4.9381    1.6587    9.5669 C.ar      1 RES1    0.0000
     29 H11        5.2446    1.0727   10.2485 H         1 RES1    0.0000
     30 C19        5.8646    2.2572    8.7384 C.ar      1 RES1    0.0000
     31 H12        6.7850    2.0657    8.8744 H         1 RES1    0.0000
     32 C20        5.4963    3.1662    7.6688 C.ar      1 RES1    0.0000
     33 C21        6.3060    4.1519    6.9184 C.ar      1 RES1    0.0000
     34 C22        7.7183    3.9670    6.6833 C.ar      1 RES1    0.0000
     35 C23        8.3802    2.7321    6.9330 C.ar      1 RES1    0.0000
     36 H13        7.8643    1.9780    7.1934 H         1 RES1    0.0000
     37 C24        3.5309    4.5041    6.9992 C.ar      1 RES1    0.0000
     38 C25        2.2174    4.5867    7.5168 C.ar      1 RES1    0.0000
     39 C26        1.9924    3.4563    8.3376 C.ar      1 RES1    0.0000
     40 C27        3.1876    2.6941    8.3643 C.ar      1 RES1    0.0000
     41 C28        4.1384    3.3174    7.5268 C.ar      1 RES1    0.0000
     42 C29       10.4353    1.2955    7.1567 C.3       1 RES1    0.0000
     43 H14        9.7843    0.6693    7.5364 H         1 RES1    0.0000
     44 H15       11.1430    1.4680    7.8113 H         1 RES1    0.0000
     45 H16       10.8274    0.9075    6.3469 H         1 RES1    0.0000
@<TRIPOS>BOND
     1    1    2 ar
     2    2    3 1
     3    4    2 ar
     4    5    4 1
     5    6    4 ar
     6    7    6 ar
     7    8    7 1
     8    9    7 ar
     9   10    9 1
    10   11    9 ar
    11   12   11 ar
    12   13   12 ar
    13   14   13 1
    14   15   13 ar
    15   16   15 1
    16   17   15 ar
    17   18   17 ar
    18   19   18 1
    19   20   18 ar
    20   21   20 1
    21   22   20 ar
    22   23   22 ar
    23   24   23 1
    24   25   23 ar
    25   26   25 1
    26   27   25 ar
    27   28   27 ar
    28   29   28 1
    29   30   28 ar
    30   31   30 1
    31   32   30 ar
    32   33   11 ar
    33   34    6 ar
    34   35    1 ar
    35   36   35 1
    36   37   12 ar
    37   38   17 ar
    38   39   22 ar
    39   40   27 ar
    40   41   32 ar
    41   42    1 1
    42   43   42 1
    43   44   42 1
    44   45   42 1
    45   32   33 ar
    46   33   34 ar
    47   34   35 ar
    48   37   38 ar
    49   37   41 ar
    50   38   39 ar
    51   39   40 ar
    52   40   41 ar
@<TRIPOS>SUBSTRUCTURE
     1 RES1 1

@<TRIPOS>CRYSIN
  11.8560    7.3071   20.1860  90.0000  96.4120  90.0000  14 1

