# MOL2 file generated by ConQuest
# Please check atom types

@<TRIPOS>MOLECULE
ARAGOQ
    60    65     1
SMALL
NO_CHARGES
****
Generated from CSD

@<TRIPOS>ATOM
      1 C1        10.2277    7.6687    6.5641 C.ar      1 RES1    0.0000
      2 C2         9.9935    8.3410    5.3796 C.ar      1 RES1    0.0000
      3 C3        10.0477    7.6116    4.1551 C.ar      1 RES1    0.0000
      4 H1         9.8745    8.0688    3.3635 H         1 RES1    0.0000
      5 C4        10.3490    6.2387    4.0731 C.ar      1 RES1    0.0000
      6 C5        10.4182    5.5486    2.8498 C.ar      1 RES1    0.0000
      7 C6        10.7898    4.2287    2.8555 C.ar      1 RES1    0.0000
      8 C7        11.0259    3.3111    1.7427 C.ar      1 RES1    0.0000
      9 C8        10.9624    3.3794    0.4009 C.ar      1 RES1    0.0000
     10 H2        10.6720    4.1570   -0.0205 H         1 RES1    0.0000
     11 C9        11.3458    2.2421   -0.3645 C.ar      1 RES1    0.0000
     12 H3        11.2814    2.2891   -1.2905 H         1 RES1    0.0000
     13 C10       11.7948    1.1105    0.1857 C.ar      1 RES1    0.0000
     14 H4        12.0739    0.4070   -0.3554 H         1 RES1    0.0000
     15 C11       11.8452    0.9829    1.6402 C.ar      1 RES1    0.0000
     16 C12       12.2883   -0.1432    2.3703 C.ar      1 RES1    0.0000
     17 H5        12.5704   -0.9096    1.9261 H         1 RES1    0.0000
     18 C13       12.3003   -0.0948    3.7052 C.ar      1 RES1    0.0000
     19 H6        12.5666   -0.8521    4.1745 H         1 RES1    0.0000
     20 C14       11.9210    1.0671    4.4467 C.ar      1 RES1    0.0000
     21 H7        11.9508    1.0724    5.3762 H         1 RES1    0.0000
     22 C15       11.5170    2.1599    3.7565 C.ar      1 RES1    0.0000
     23 C16       11.0918    3.5308    4.0936 C.ar      1 RES1    0.0000
     24 C17       11.0065    4.1700    5.3021 C.ar      1 RES1    0.0000
     25 C18       10.6237    5.5588    5.3181 C.ar      1 RES1    0.0000
     26 C19       10.5286    6.3196    6.5095 C.ar      1 RES1    0.0000
     27 H8        10.6810    5.8804    7.3148 H         1 RES1    0.0000
     28 C20       11.4734    2.0830    2.3566 C.ar      1 RES1    0.0000
     29 C21       10.1429    8.4010    7.8478 C.3       1 RES1    0.0000
     30 H9        10.7489    9.1442    7.8342 H         1 RES1    0.0000
     31 H10       10.3763    7.8106    8.5688 H         1 RES1    0.0000
     32 H11        9.2462    8.7210    7.9743 H         1 RES1    0.0000
     33 C22        9.7396    9.8351    5.3431 C.3       1 RES1    0.0000
     34 H12        8.9250   10.0329    5.8124 H         1 RES1    0.0000
     35 H13        9.6602   10.1241    4.4308 H         1 RES1    0.0000
     36 H14       10.4701   10.2943    5.7623 H         1 RES1    0.0000
     37 C23       10.0845    6.2275    1.5536 C.ar      1 RES1    0.0000
     38 C24       11.0655    6.9174    0.8417 C.ar      1 RES1    0.0000
     39 H15       11.9302    6.9634    1.1789 H         1 RES1    0.0000
     40 C25       10.7671    7.5359   -0.3633 C.ar      1 RES1    0.0000
     41 H16       11.4283    7.9986   -0.8246 H         1 RES1    0.0000
     42 C26        9.5047    7.4645   -0.8725 C.ar      1 RES1    0.0000
     43 H17        9.3056    7.8708   -1.6857 H         1 RES1    0.0000
     44 C27        8.5302    6.7923   -0.1822 C.ar      1 RES1    0.0000
     45 H18        7.6677    6.7479   -0.5251 H         1 RES1    0.0000
     46 C28        8.8207    6.1867    1.0103 C.ar      1 RES1    0.0000
     47 H19        8.1461    5.7352    1.4648 H         1 RES1    0.0000
     48 C29       11.4116    3.4780    6.5755 C.3       1 RES1    0.0000
     49 H20       10.8998    3.8393    7.3159 H         1 RES1    0.0000
     50 H21       11.2137    2.5317    6.5061 H         1 RES1    0.0000
     51 C30       12.8805    3.6622    6.8466 C.3       1 RES1    0.0000
     52 H22       13.0667    4.6135    6.8922 H         1 RES1    0.0000
     53 H23       13.3775    3.3043    6.0949 H         1 RES1    0.0000
     54 C31       13.3991    3.0144    8.1132 C.3       1 RES1    0.0000
     55 H24       12.8802    3.3323    8.8695 H         1 RES1    0.0000
     56 H25       13.2780    2.0539    8.0517 H         1 RES1    0.0000
     57 C32       14.8621    3.3152    8.3547 C.3       1 RES1    0.0000
     58 H26       15.3838    2.9743    7.6246 H         1 RES1    0.0000
     59 H27       15.1449    2.8980    9.1725 H         1 RES1    0.0000
     60 H28       14.9871    4.2656    8.4219 H         1 RES1    0.0000
@<TRIPOS>BOND
     1    1    2 ar
     2    2    3 ar
     3    3    4 1
     4    5    3 ar
     5    6    5 ar
     6    7    6 ar
     7    8    7 1
     8    9    8 ar
     9   10    9 1
    10   11    9 ar
    11   12   11 1
    12   13   11 ar
    13   14   13 1
    14   15   13 ar
    15   16   15 ar
    16   17   16 1
    17   18   16 ar
    18   19   18 1
    19   20   18 ar
    20   21   20 1
    21   22   20 ar
    22   23    7 ar
    23   24   23 ar
    24   25    5 ar
    25   26    1 ar
    26   27   26 1
    27   28    8 ar
    28   29    1 1
    29   30   29 1
    30   31   29 1
    31   32   29 1
    32   33    2 1
    33   34   33 1
    34   35   33 1
    35   36   33 1
    36   37    6 1
    37   38   37 ar
    38   39   38 1
    39   40   38 ar
    40   41   40 1
    41   42   40 ar
    42   43   42 1
    43   44   42 ar
    44   45   44 1
    45   46   37 ar
    46   47   46 1
    47   48   24 1
    48   49   48 1
    49   50   48 1
    50   51   48 1
    51   52   51 1
    52   53   51 1
    53   54   51 1
    54   55   54 1
    55   56   54 1
    56   57   54 1
    57   58   57 1
    58   59   57 1
    59   60   57 1
    60   15   28 ar
    61   22   23 1
    62   22   28 ar
    63   24   25 ar
    64   25   26 ar
    65   44   46 ar
@<TRIPOS>SUBSTRUCTURE
     1 RES1 1

@<TRIPOS>CRYSIN
  10.6072   10.6637   11.8750  89.2110  75.1820  61.9340   2 1

