# MOL2 file generated by ConQuest
# Please check atom types

@<TRIPOS>MOLECULE
ASEPUJ
    48    52     1
SMALL
NO_CHARGES
****
Generated from CSD

@<TRIPOS>ATOM
      1 C1         1.9350    2.2102    8.1711 C.ar      1 RES1    0.0000
      2 C2        -0.2213    1.2656    7.4745 C.ar      1 RES1    0.0000
      3 C3         2.5713    2.1949   10.5452 C.ar      1 RES1    0.0000
      4 C4         0.4098    1.2541    9.8353 C.ar      1 RES1    0.0000
      5 C5         1.3146    2.1918    5.7919 C.ar      1 RES1    0.0000
      6 C6        -0.4876    0.9622    8.8099 C.ar      1 RES1    0.0000
      7 C7         0.1539    0.9331   11.1805 C.ar      1 RES1    0.0000
      8 C8        -0.8306    1.2434    5.1118 C.ar      1 RES1    0.0000
      9 C9         1.0372    1.9053    7.1432 C.ar      1 RES1    0.0000
     10 C10       -1.1179    0.9622    6.4304 C.ar      1 RES1    0.0000
     11 C11        1.6646    1.9030    9.5040 C.ar      1 RES1    0.0000
     12 C12        1.0568    1.2173   12.1890 C.ar      1 RES1    0.0000
     13 C13        3.2128    2.1443   12.9312 C.ar      1 RES1    0.0000
     14 C14        0.4257    1.8716    4.7845 C.ar      1 RES1    0.0000
     15 C15        0.8140    0.8879   13.5567 C.ar      1 RES1    0.0000
     16 C16       -1.7125    0.9247    4.0355 C.ar      1 RES1    0.0000
     17 C17        0.7086    2.1275    3.4085 C.ar      1 RES1    0.0000
     18 C18        2.3021    1.8723   11.8609 C.ar      1 RES1    0.0000
     19 C19       -1.4103    1.1760    2.7406 C.ar      1 RES1    0.0000
     20 C20       -0.1464    1.7980    2.4100 C.ar      1 RES1    0.0000
     21 C21        1.6973    1.1652   14.5484 C.ar      1 RES1    0.0000
     22 C22        3.9532    2.0884   15.3060 C.3       1 RES1    0.0000
     23 C23       -2.3568    0.7914    1.6366 C.3       1 RES1    0.0000
     24 C24        1.3814    0.8144   15.9689 C.3       1 RES1    0.0000
     25 C25        2.9507    1.8134   14.2182 C.ar      1 RES1    0.0000
     26 C26        0.2041    2.0562    0.9712 C.3       1 RES1    0.0000
     27 H1        -0.0569    0.5056   13.7925 H         1 RES1    0.0000
     28 H2         4.0452    2.6124   12.6907 H         1 RES1    0.0000
     29 H3         1.5835    2.6201    3.1691 H         1 RES1    0.0000
     30 H4        -1.3439    0.5746    9.0407 H         1 RES1    0.0000
     31 H5        -0.7079    0.5363   11.4346 H         1 RES1    0.0000
     32 H6        -1.9746    0.5593    6.6576 H         1 RES1    0.0000
     33 H7         4.7024    2.5664   14.9661 H         1 RES1    0.0000
     34 H8         2.7887    2.6967    7.9425 H         1 RES1    0.0000
     35 H9        -2.5926    0.4980    4.2709 H         1 RES1    0.0000
     36 H10        2.1817    2.6890    5.5737 H         1 RES1    0.0000
     37 H11        1.0708    2.6047    0.8578 H         1 RES1    0.0000
     38 H12       -2.5717    1.6088    0.9188 H         1 RES1    0.0000
     39 H13        3.4202    2.6890   10.3148 H         1 RES1    0.0000
     40 H14        1.3661    1.6395   16.6314 H         1 RES1    0.0000
     41 H15       -0.5014    2.6047    0.4414 H         1 RES1    0.0000
     42 H16        4.2483    1.1798   15.8490 H         1 RES1    0.0000
     43 H17        0.5005    0.4214   16.0823 H         1 RES1    0.0000
     44 H18       -1.9039    0.2528    0.8937 H         1 RES1    0.0000
     45 H19       -3.1879    0.4060    1.9919 H         1 RES1    0.0000
     46 H20        3.5417    2.6737   16.1469 H         1 RES1    0.0000
     47 H21        2.1245    0.3754   16.4663 H         1 RES1    0.0000
     48 H22        0.1715    1.1338    0.4307 H         1 RES1    0.0000
@<TRIPOS>BOND
     1    1    9 ar
     2    2    6 ar
     3    3   11 ar
     4    4    6 ar
     5    5    9 ar
     6    6   30 1
     7    7    4 ar
     8    8   10 ar
     9    9    2 ar
    10   10    2 ar
    11   11    1 ar
    12   12    7 ar
    13   13   18 ar
    14   14    5 ar
    15   15   12 ar
    16   16    8 ar
    17   17   14 ar
    18   18    3 ar
    19   19   16 ar
    20   20   17 ar
    21   21   15 ar
    22   22   25 1
    23   23   19 1
    24   24   21 1
    25   25   13 ar
    26   26   20 1
    27   27   15 1
    28   28   13 1
    29   29   17 1
    30   31    7 1
    31   32   10 1
    32   33   22 1
    33   34    1 1
    34   35   16 1
    35   36    5 1
    36   37   26 1
    37   38   23 1
    38   39    3 1
    39   40   24 1
    40   41   26 1
    41   42   22 1
    42   43   24 1
    43   44   23 1
    44   45   23 1
    45   46   22 1
    46   47   24 1
    47   48   26 1
    48    4   11 ar
    49    8   14 ar
    50   12   18 ar
    51   19   20 ar
    52   21   25 ar
@<TRIPOS>SUBSTRUCTURE
     1 RES1 1

@<TRIPOS>CRYSIN
   6.1660    7.6610   35.9890  90.0000  94.2500  90.0000  14 1

