# MOL2 file generated by ConQuest
# Please check atom types

@<TRIPOS>MOLECULE
ASUBAS
    46    51     1
SMALL
NO_CHARGES
****
Generated from CSD

@<TRIPOS>ATOM
      1 C1         4.7808    3.4952   10.7003 C.ar      1 RES1    0.0000
      2 H1         5.4612    3.7226   11.3247 H         1 RES1    0.0000
      3 C2         4.6720    4.2077    9.5140 C.ar      1 RES1    0.0000
      4 H2         5.2756    4.9186    9.3333 H         1 RES1    0.0000
      5 C3         3.6949    3.8898    8.5945 C.ar      1 RES1    0.0000
      6 H3         3.6289    4.3727    7.7783 H         1 RES1    0.0000
      7 C4         2.8125    2.8642    8.8680 C.ar      1 RES1    0.0000
      8 H4         2.1321    2.6459    8.2423 H         1 RES1    0.0000
      9 C5         2.9135    2.1525   10.0494 C.ar      1 RES1    0.0000
     10 H5         2.2991    1.4492   10.2245 H         1 RES1    0.0000
     11 C6         3.9046    2.4498   10.9876 C.ar      1 RES1    0.0000
     12 C7         3.9893    1.6925   12.2688 C.ar      1 RES1    0.0000
     13 C8         3.5994    0.3536   12.3346 C.ar      1 RES1    0.0000
     14 H6         3.3493   -0.0950   11.5368 H         1 RES1    0.0000
     15 C9         3.5660   -0.3437   13.5436 C.ar      1 RES1    0.0000
     16 C10        3.1458   -1.7153   13.6382 C.ar      1 RES1    0.0000
     17 H7         2.9306   -2.1913   12.8460 H         1 RES1    0.0000
     18 C11        3.9295    0.3330   14.7394 C.ar      1 RES1    0.0000
     19 C12        4.3738    1.6811   14.6761 C.ar      1 RES1    0.0000
     20 C13        4.7171    2.3411   15.9060 C.ar      1 RES1    0.0000
     21 H8         5.0185    3.2413   15.8792 H         1 RES1    0.0000
     22 C14        4.4095    2.3228   13.4388 C.ar      1 RES1    0.0000
     23 H9         4.7303    3.2154   13.3930 H         1 RES1    0.0000
     24 C1D        2.9865   -3.4952   20.0317 C.ar      1 RES1    0.0000
     25 H1D        2.3061   -3.7226   19.4073 H         1 RES1    0.0000
     26 C2D        3.0953   -4.2077   21.2180 C.ar      1 RES1    0.0000
     27 H2D        2.4917   -4.9186   21.3987 H         1 RES1    0.0000
     28 C3D        4.0724   -3.8898   22.1375 C.ar      1 RES1    0.0000
     29 H3D        4.1384   -4.3727   22.9537 H         1 RES1    0.0000
     30 C4D        4.9548   -2.8642   21.8640 C.ar      1 RES1    0.0000
     31 H4D        5.6352   -2.6459   22.4897 H         1 RES1    0.0000
     32 C5D        4.8538   -2.1525   20.6826 C.ar      1 RES1    0.0000
     33 H5D        5.4682   -1.4492   20.5075 H         1 RES1    0.0000
     34 C6D        3.8627   -2.4498   19.7444 C.ar      1 RES1    0.0000
     35 C7D        3.7780   -1.6925   18.4632 C.ar      1 RES1    0.0000
     36 C8D        4.1679   -0.3536   18.3974 C.ar      1 RES1    0.0000
     37 H6D        4.4180    0.0950   19.1952 H         1 RES1    0.0000
     38 C9D        4.2013    0.3437   17.1884 C.ar      1 RES1    0.0000
     39 C10D       4.6215    1.7153   17.0938 C.ar      1 RES1    0.0000
     40 H7D        4.8367    2.1913   17.8860 H         1 RES1    0.0000
     41 C11D       3.8378   -0.3330   15.9926 C.ar      1 RES1    0.0000
     42 C12D       3.3935   -1.6811   16.0559 C.ar      1 RES1    0.0000
     43 C13D       3.0502   -2.3411   14.8260 C.ar      1 RES1    0.0000
     44 H8D        2.7488   -3.2413   14.8528 H         1 RES1    0.0000
     45 C14D       3.3578   -2.3228   17.2932 C.ar      1 RES1    0.0000
     46 H9D        3.0370   -3.2154   17.3390 H         1 RES1    0.0000
@<TRIPOS>BOND
     1    1    2 1
     2    3    1 ar
     3    4    3 1
     4    5    3 ar
     5    6    5 1
     6    7    5 ar
     7    8    7 1
     8    9    7 ar
     9   10    9 1
    10   11    1 ar
    11   12   11 1
    12   13   12 ar
    13   14   13 1
    14   15   13 ar
    15   16   15 ar
    16   17   16 1
    17   18   15 ar
    18   19   18 ar
    19   20   19 ar
    20   21   20 1
    21   22   12 ar
    22   23   22 1
    23   24   25 1
    24   26   24 ar
    25   27   26 1
    26   28   26 ar
    27   29   28 1
    28   30   28 ar
    29   31   30 1
    30   32   30 ar
    31   33   32 1
    32   34   24 ar
    33   35   34 1
    34   36   35 ar
    35   37   36 1
    36   38   36 ar
    37   39   20 ar
    38   40   39 1
    39   41   18 ar
    40   42   41 ar
    41   43   16 ar
    42   44   43 1
    43   45   35 ar
    44   46   45 1
    45    9   11 ar
    46   19   22 ar
    47   32   34 ar
    48   38   39 ar
    49   38   41 ar
    50   42   43 ar
    51   42   45 ar
@<TRIPOS>SUBSTRUCTURE
     1 RES1 1

@<TRIPOS>CRYSIN
   7.7673    7.6033   30.7320  90.0000  90.0000  90.0000  61 1

