# MOL2 file generated by ConQuest
# Please check atom types

@<TRIPOS>MOLECULE
AYOCIA
    39    43     1
SMALL
NO_CHARGES
****
Generated from CSD

@<TRIPOS>ATOM
      1 C1         2.4362    2.4003    2.3763 C.ar      1 RES1    0.0000
      2 H1         2.0358    1.6268    1.9968 H         1 RES1    0.0000
      3 C2         3.6812    2.7613    1.9821 C.ar      1 RES1    0.0000
      4 H2         4.1446    2.2348    1.3406 H         1 RES1    0.0000
      5 C3         4.2977    3.9220    2.5207 C.ar      1 RES1    0.0000
      6 H3         5.1649    4.1760    2.2284 H         1 RES1    0.0000
      7 C4         2.3578    4.3127    3.9130 C.ar      1 RES1    0.0000
      8 C5         3.6562    4.6652    3.4473 C.ar      1 RES1    0.0000
      9 H4         4.0805    5.4405    3.7954 H         1 RES1    0.0000
     10 C6        -0.1431    5.2960    6.5140 C.ar      1 RES1    0.0000
     11 H5         0.2939    6.0425    6.9064 H         1 RES1    0.0000
     12 C7        -1.3323    4.8952    7.0098 C.ar      1 RES1    0.0000
     13 H6        -1.7071    5.3389    7.7607 H         1 RES1    0.0000
     14 C8        -2.0233    3.8092    6.4074 C.ar      1 RES1    0.0000
     15 H7        -2.8726    3.5456    6.7417 H         1 RES1    0.0000
     16 C9        -0.1959    3.4955    4.8355 C.ar      1 RES1    0.0000
     17 C10       -1.4735    3.1455    5.3553 C.ar      1 RES1    0.0000
     18 H8        -1.9547    2.4297    4.9559 H         1 RES1    0.0000
     19 C11        0.4398    2.7691    3.8080 C.ar      1 RES1    0.0000
     20 C12        1.7137    3.1535    3.3474 C.ar      1 RES1    0.0000
     21 C13        0.4759    4.6288    5.4157 C.ar      1 RES1    0.0000
     22 C14        1.7186    5.0131    4.9304 C.ar      1 RES1    0.0000
     23 H9         2.1445    5.7759    5.3033 H         1 RES1    0.0000
     24 C15       -0.2022    1.5435    3.2504 C.2       1 RES1    0.0000
     25 C16       -0.3197    0.3560    3.8561 C.2       1 RES1    0.0000
     26 H10        0.0034    0.1673    4.7295 H         1 RES1    0.0000
     27 C17       -1.3380    0.1683    1.7495 C.ar      1 RES1    0.0000
     28 C18       -1.0267   -0.6416    2.9815 C.3       1 RES1    0.0000
     29 H11       -1.8548   -0.9732    3.4120 H         1 RES1    0.0000
     30 H12       -0.4413   -1.4102    2.7687 H         1 RES1    0.0000
     31 C19       -2.0018   -0.1688    0.5869 C.ar      1 RES1    0.0000
     32 H13       -2.3626   -1.0404    0.4735 H         1 RES1    0.0000
     33 C20       -2.1338    0.7895   -0.4151 C.ar      1 RES1    0.0000
     34 H14       -2.5902    0.5691   -1.2197 H         1 RES1    0.0000
     35 C21       -1.6058    2.0607   -0.2519 C.ar      1 RES1    0.0000
     36 H15       -1.6960    2.6993   -0.9495 H         1 RES1    0.0000
     37 C22       -0.8234    1.4634    1.9216 C.ar      1 RES1    0.0000
     38 C23       -0.9465    2.4118    0.9202 C.ar      1 RES1    0.0000
     39 H16       -0.5872    3.2842    1.0318 H         1 RES1    0.0000
@<TRIPOS>BOND
     1    1    2 1
     2    3    1 ar
     3    4    3 1
     4    5    3 ar
     5    6    5 1
     6    7    8 ar
     7    8    5 ar
     8    9    8 1
     9   10   11 1
    10   12   10 ar
    11   13   12 1
    12   14   12 ar
    13   15   14 1
    14   16   17 ar
    15   17   14 ar
    16   18   17 1
    17   19   16 ar
    18   20    1 ar
    19   21   10 ar
    20   22    7 ar
    21   23   22 1
    22   24   19 1
    23   25   24 2
    24   26   25 1
    25   27   28 1
    26   28   25 1
    27   29   28 1
    28   30   28 1
    29   31   27 ar
    30   32   31 1
    31   33   31 ar
    32   34   33 1
    33   35   33 ar
    34   36   35 1
    35   37   24 1
    36   38   35 ar
    37   39   38 1
    38    7   20 ar
    39   16   21 ar
    40   19   20 ar
    41   21   22 ar
    42   27   37 ar
    43   37   38 ar
@<TRIPOS>SUBSTRUCTURE
     1 RES1 1

@<TRIPOS>CRYSIN
   8.1708    7.4691   25.9547  90.0000  97.5170  90.0000 231 1

