# MOL2 file generated by ConQuest
# Please check atom types

@<TRIPOS>MOLECULE
AYOTEO
    37    39     1
SMALL
NO_CHARGES
****
Generated from CSD

@<TRIPOS>ATOM
      1 C1        -7.0754    3.7474   15.1494 C.ar      1 RES1    0.0000
      2 C2        -8.3173    3.2861   15.6982 C.ar      1 RES1    0.0000
      3 H1        -8.3124    2.5728   16.3261 H         1 RES1    0.0000
      4 C3        -9.5077    3.8524   15.3362 C.ar      1 RES1    0.0000
      5 H2       -10.3154    3.5322   15.7198 H         1 RES1    0.0000
      6 C4        -9.5519    4.9138   14.3927 C.ar      1 RES1    0.0000
      7 H3       -10.3857    5.3011   14.1523 H         1 RES1    0.0000
      8 C5        -8.4000    5.3774   13.8312 C.ar      1 RES1    0.0000
      9 H4        -8.4391    6.0846   13.1980 H         1 RES1    0.0000
     10 C6        -7.1331    4.8129   14.1834 C.ar      1 RES1    0.0000
     11 C7        -5.9536    5.2964   13.6117 C.ar      1 RES1    0.0000
     12 H5        -5.9957    6.0054   12.9810 H         1 RES1    0.0000
     13 C8        -4.7152    4.7531   13.9545 C.ar      1 RES1    0.0000
     14 C9        -3.5095    5.2475   13.3637 C.ar      1 RES1    0.0000
     15 H6        -3.5522    5.9749   12.7536 H         1 RES1    0.0000
     16 C10       -2.3008    4.6928   13.6598 C.ar      1 RES1    0.0000
     17 H7        -1.5108    5.0286   13.2548 H         1 RES1    0.0000
     18 C11       -2.2269    3.6110   14.5765 C.ar      1 RES1    0.0000
     19 H8        -1.3827    3.2196   14.7707 H         1 RES1    0.0000
     20 C12       -3.3499    3.1257   15.1818 C.ar      1 RES1    0.0000
     21 H9        -3.2724    2.4071   15.7990 H         1 RES1    0.0000
     22 C13       -4.6456    3.6778   14.9074 C.ar      1 RES1    0.0000
     23 C14       -5.8252    3.1949   15.5193 C.ar      1 RES1    0.0000
     24 C15       -5.7572    2.0607   16.5151 C.3       1 RES1    0.0000
     25 H10       -6.5166    2.1375   17.1443 H         1 RES1    0.0000
     26 H11       -4.9199    2.1389   17.0375 H         1 RES1    0.0000
     27 C16       -5.8006    0.6816   15.8419 C.3       1 RES1    0.0000
     28 H12       -4.9744    0.5502   15.3133 H         1 RES1    0.0000
     29 H13       -6.5703    0.6447   15.2202 H         1 RES1    0.0000
     30 C17       -5.9274   -0.4484   16.8745 C.3       1 RES1    0.0000
     31 H14       -5.6409   -1.3002   16.4587 H         1 RES1    0.0000
     32 H15       -5.3206   -0.2624   17.6352 H         1 RES1    0.0000
     33 C18       -7.3227   -0.5981   17.3879 C.2       1 RES1    0.0000
     34 H16       -7.9878   -0.8707   16.7671 H         1 RES1    0.0000
     35 C19       -7.7077   -0.3835   18.6312 C.2       1 RES1    0.0000
     36 H17       -7.0735   -0.1097   19.2837 H         1 RES1    0.0000
     37 H18       -8.6191   -0.5029   18.8737 H         1 RES1    0.0000
@<TRIPOS>BOND
     1    1    2 ar
     2    2    3 1
     3    4    2 ar
     4    5    4 1
     5    6    4 ar
     6    7    6 1
     7    8    6 ar
     8    9    8 1
     9   10    1 ar
    10   11   10 ar
    11   12   11 1
    12   13   11 ar
    13   14   13 ar
    14   15   14 1
    15   16   14 ar
    16   17   16 1
    17   18   16 ar
    18   19   18 1
    19   20   18 ar
    20   21   20 1
    21   22   13 ar
    22   23    1 ar
    23   24   23 1
    24   25   24 1
    25   26   24 1
    26   27   24 1
    27   28   27 1
    28   29   27 1
    29   30   27 1
    30   31   30 1
    31   32   30 1
    32   33   30 1
    33   34   33 1
    34   35   33 2
    35   36   35 1
    36   37   35 1
    37    8   10 ar
    38   20   22 ar
    39   22   23 ar
@<TRIPOS>SUBSTRUCTURE
     1 RES1 1

@<TRIPOS>CRYSIN
  11.1555    7.2678   19.7129  90.0000 119.0960  90.0000  14 1

