# MOL2 file generated by ConQuest
# Please check atom types

@<TRIPOS>MOLECULE
BCHNAP
    30    33     1
SMALL
NO_CHARGES
****
Generated from CSD

@<TRIPOS>ATOM
      1 C1        12.0401    2.5597    1.0976 C.ar      1 RES1    0.0000
      2 C2        11.2358    3.7111    1.3961 C.ar      1 RES1    0.0000
      3 C3         9.8587    3.5620    1.4038 C.ar      1 RES1    0.0000
      4 C4         9.2294    2.3943    0.9672 C.ar      1 RES1    0.0000
      5 C5         9.9673    1.3734    0.4844 C.ar      1 RES1    0.0000
      6 C6        11.3783    1.4170    0.5492 C.ar      1 RES1    0.0000
      7 C7        12.1318    0.3015    0.0949 C.ar      1 RES1    0.0000
      8 C8        13.4708    0.2579    0.2352 C.ar      1 RES1    0.0000
      9 C9        14.1171    1.2962    0.9024 C.ar      1 RES1    0.0000
     10 C10       13.4525    2.4345    1.3482 C.ar      1 RES1    0.0000
     11 C11       14.2313    3.3269    2.1920 C.2       1 RES1    0.0000
     12 C12       13.9887    4.5589    2.6209 C.2       1 RES1    0.0000
     13 C13       12.9346    5.4927    2.2267 C.ar      1 RES1    0.0000
     14 C14       11.7395    5.1096    1.5735 C.ar      1 RES1    0.0000
     15 C15       10.9296    6.1358    1.0683 C.ar      1 RES1    0.0000
     16 C16       11.2203    7.4744    1.2750 C.ar      1 RES1    0.0000
     17 C17       12.3406    7.8238    1.9946 C.ar      1 RES1    0.0000
     18 C18       13.1731    6.8432    2.4512 C.ar      1 RES1    0.0000
     19 H1         9.3267    4.3532    1.6506 H         1 RES1    0.0000
     20 H2         8.2402    2.3072    1.0181 H         1 RES1    0.0000
     21 H3         9.6371    0.5877    0.0848 H         1 RES1    0.0000
     22 H4        11.6125   -0.4353   -0.2700 H         1 RES1    0.0000
     23 H5        13.9971   -0.5768   -0.0771 H         1 RES1    0.0000
     24 H6        15.0272    1.2298    1.0644 H         1 RES1    0.0000
     25 H7        15.0554    2.8949    2.5144 H         1 RES1    0.0000
     26 H8        14.6603    4.9844    3.1700 H         1 RES1    0.0000
     27 H9        10.2015    5.8877    0.5168 H         1 RES1    0.0000
     28 H10       10.6813    8.1078    0.9256 H         1 RES1    0.0000
     29 H11       12.4732    8.7717    2.1211 H         1 RES1    0.0000
     30 H12       14.0395    7.0195    2.9155 H         1 RES1    0.0000
@<TRIPOS>BOND
     1    1    2 ar
     2    2    3 ar
     3    3    4 ar
     4    4    5 ar
     5    5    6 ar
     6    6    1 ar
     7    7    6 ar
     8    8    7 ar
     9    9    8 ar
    10   10    1 ar
    11   11   10 1
    12   12   11 2
    13   13   12 1
    14   14    2 1
    15   15   14 ar
    16   16   15 ar
    17   17   16 ar
    18   18   13 ar
    19   19    3 1
    20   20    4 1
    21   21    5 1
    22   22    7 1
    23   23    8 1
    24   24    9 1
    25   25   11 1
    26   26   12 1
    27   27   15 1
    28   28   16 1
    29   29   17 1
    30   30   18 1
    31    9   10 ar
    32   13   14 ar
    33   17   18 ar
@<TRIPOS>SUBSTRUCTURE
     1 RES1 1

@<TRIPOS>CRYSIN
  14.1100   10.8830    7.7130  90.0000  90.0000  90.0000  29 1

