# MOL2 file generated by ConQuest
# Please check atom types

@<TRIPOS>MOLECULE
BEHGAZ
    44    48     1
SMALL
NO_CHARGES
****
Generated from CSD

@<TRIPOS>ATOM
      1 C1         1.1082    5.8837    6.6377 C.ar      1 RES1    0.0000
      2 C2         1.2175    4.5726    6.0919 C.ar      1 RES1    0.0000
      3 C3         0.0599    6.7291    6.1845 C.ar      1 RES1    0.0000
      4 C4         2.1690    3.6841    6.6551 C.ar      1 RES1    0.0000
      5 C5         1.9118    6.2246    7.7614 C.ar      1 RES1    0.0000
      6 C6        -0.8909    6.2924    5.2904 C.ar      1 RES1    0.0000
      7 C7         2.7241    5.3034    8.3760 C.ar      1 RES1    0.0000
      8 C8         3.2420    5.5561    9.7761 C.3       1 RES1    0.0000
      9 H1         4.1073    5.0613    9.9466 H         1 RES1    0.0000
     10 C9         2.8816    4.0268    7.7756 C.ar      1 RES1    0.0000
     11 C10        0.3059    4.1862    5.0721 C.ar      1 RES1    0.0000
     12 C11       -2.1889    7.0430    5.1183 C.3       1 RES1    0.0000
     13 H2        -2.0208    8.0267    5.2278 H         1 RES1    0.0000
     14 C12       -0.7206    5.0075    4.7038 C.ar      1 RES1    0.0000
     15 H3        -1.3838    4.7205    4.0421 H         1 RES1    0.0000
     16 H4        -0.0494    7.6386    6.6161 H         1 RES1    0.0000
     17 H5         2.2695    2.7738    6.2268 H         1 RES1    0.0000
     18 H6         0.4011    3.2820    4.6581 H         1 RES1    0.0000
     19 H7         3.4081    6.5543    9.9130 H         1 RES1    0.0000
     20 H8        -2.5752    6.8854    4.1985 H         1 RES1    0.0000
     21 H9         1.7841    7.1158    8.1641 H         1 RES1    0.0000
     22 H10        3.4873    3.3730    8.1768 H         1 RES1    0.0000
     23 C1D       -1.1082    6.2449    9.3202 C.ar      1 RES1    0.0000
     24 C2D       -1.2175    7.5560    9.8660 C.ar      1 RES1    0.0000
     25 C3D       -0.0599    5.3995    9.7734 C.ar      1 RES1    0.0000
     26 C4D       -2.1690    8.4445    9.3028 C.ar      1 RES1    0.0000
     27 C5D       -1.9118    5.9040    8.1965 C.ar      1 RES1    0.0000
     28 C6D        0.8909    5.8362   10.6675 C.ar      1 RES1    0.0000
     29 C7D       -2.7241    6.8252    7.5819 C.ar      1 RES1    0.0000
     30 C8D       -3.2420    6.5725    6.1818 C.3       1 RES1    0.0000
     31 H1D       -4.1073    7.0673    6.0113 H         1 RES1    0.0000
     32 C9D       -2.8816    8.1018    8.1823 C.ar      1 RES1    0.0000
     33 C10D      -0.3059    7.9424   10.8858 C.ar      1 RES1    0.0000
     34 C11D       2.1889    5.0856   10.8396 C.3       1 RES1    0.0000
     35 H2D        2.0208    4.1019   10.7301 H         1 RES1    0.0000
     36 C12D       0.7206    7.1211   11.2541 C.ar      1 RES1    0.0000
     37 H3D        1.3839    7.4081   11.9158 H         1 RES1    0.0000
     38 H4D        0.0494    4.4900    9.3418 H         1 RES1    0.0000
     39 H5D       -2.2695    9.3548    9.7311 H         1 RES1    0.0000
     40 H6D       -0.4011    8.8466   11.2998 H         1 RES1    0.0000
     41 H7D       -3.4081    5.5743    6.0449 H         1 RES1    0.0000
     42 H8D        2.5752    5.2432   11.7594 H         1 RES1    0.0000
     43 H9D       -1.7841    5.0128    7.7938 H         1 RES1    0.0000
     44 H10D      -3.4873    8.7556    7.7811 H         1 RES1    0.0000
@<TRIPOS>BOND
     1    1    2 ar
     2    2    4 ar
     3    3    1 ar
     4    4   10 ar
     5    5    1 ar
     6    6    3 ar
     7    7    5 ar
     8    8    7 1
     9    9    8 1
    10   10    7 ar
    11   11    2 ar
    12   12    6 1
    13   13   12 1
    14   14    6 ar
    15   15   14 1
    16   16    3 1
    17   17    4 1
    18   18   11 1
    19   19    8 1
    20   20   12 1
    21   21    5 1
    22   22   10 1
    23   23   24 ar
    24   24   26 ar
    25   25   23 ar
    26   26   32 ar
    27   27   23 ar
    28   28   25 ar
    29   29   27 ar
    30   30   12 1
    31   31   30 1
    32   32   29 ar
    33   33   24 ar
    34   34    8 1
    35   35   34 1
    36   36   28 ar
    37   37   36 1
    38   38   25 1
    39   39   26 1
    40   40   33 1
    41   41   30 1
    42   42   34 1
    43   43   27 1
    44   44   32 1
    45   11   14 ar
    46   28   34 1
    47   29   30 1
    48   33   36 ar
@<TRIPOS>SUBSTRUCTURE
     1 RES1 1

@<TRIPOS>CRYSIN
   8.5160   12.1286   15.9579  90.0000  90.0000  90.0000  61 1

