# MOL2 file generated by ConQuest
# Please check atom types

@<TRIPOS>MOLECULE
BEHXOB
    53    60     1
SMALL
NO_CHARGES
****
Generated from CSD

@<TRIPOS>ATOM
      1 C1        12.7040   -2.0614    2.1792 C.3       1 RES1    0.0000
      2 C2        11.5528   -1.0977    2.0958 C.ar      1 RES1    0.0000
      3 C3        10.2295   -1.5024    2.2983 C.ar      1 RES1    0.0000
      4 C4         9.6690   -2.8253    2.6477 C.ar      1 RES1    0.0000
      5 C5        10.1741   -4.0750    2.9463 C.ar      1 RES1    0.0000
      6 C6         9.2715   -5.1141    3.2965 C.ar      1 RES1    0.0000
      7 C7         7.9200   -4.9460    3.3243 C.ar      1 RES1    0.0000
      8 C8         7.3544   -3.6821    3.0194 C.ar      1 RES1    0.0000
      9 C9         5.9843   -3.3204    3.0297 C.ar      1 RES1    0.0000
     10 C10        5.6077   -2.0391    2.7422 C.ar      1 RES1    0.0000
     11 C11        6.5483   -1.0157    2.4460 C.ar      1 RES1    0.0000
     12 C12        7.8851   -1.3294    2.4325 C.ar      1 RES1    0.0000
     13 C13        9.1388   -0.5918    2.1966 C.ar      1 RES1    0.0000
     14 C14        9.3507    0.7640    1.9385 C.ar      1 RES1    0.0000
     15 C15       10.6655    1.1739    1.7297 C.ar      1 RES1    0.0000
     16 C16       11.2018    2.5121    1.3969 C.ar      1 RES1    0.0000
     17 C17       10.6628    3.7623    1.1888 C.ar      1 RES1    0.0000
     18 C18       11.5298    4.8275    0.8378 C.ar      1 RES1    0.0000
     19 C19       12.8895    4.6552    0.7243 C.ar      1 RES1    0.0000
     20 C20       13.4730    3.3823    0.9371 C.ar      1 RES1    0.0000
     21 C21       14.8513    3.0442    0.8609 C.ar      1 RES1    0.0000
     22 C22       15.2489    1.7658    1.1118 C.ar      1 RES1    0.0000
     23 C23       14.3397    0.7277    1.4350 C.ar      1 RES1    0.0000
     24 C24       12.9943    1.0126    1.5129 C.ar      1 RES1    0.0000
     25 C25       11.7480    0.2545    1.7996 C.ar      1 RES1    0.0000
     26 C26        8.2635   -2.6659    2.7017 C.ar      1 RES1    0.0000
     27 C27       12.5990    2.3477    1.2714 C.ar      1 RES1    0.0000
     28 C28        8.2375    1.7536    1.9123 C.ar      1 RES1    0.0000
     29 C29        7.5293    2.0073    0.7489 C.ar      1 RES1    0.0000
     30 C30        6.5354    2.9752    0.7163 C.ar      1 RES1    0.0000
     31 C31        6.2472    3.6919    1.8504 C.ar      1 RES1    0.0000
     32 C32        6.9182    3.4412    3.0265 C.ar      1 RES1    0.0000
     33 C33        7.9151    2.4632    3.0551 C.ar      1 RES1    0.0000
     34 H1        12.5122   -2.9177    1.7710 H         1 RES1    0.0000
     35 H2        12.9357   -2.2710    3.0178 H         1 RES1    0.0000
     36 H3        13.4986   -1.8079    1.6598 H         1 RES1    0.0000
     37 H4        11.1652   -4.2165    2.9543 H         1 RES1    0.0000
     38 H5         9.6622   -5.9992    3.5260 H         1 RES1    0.0000
     39 H6         7.3380   -5.7031    3.5499 H         1 RES1    0.0000
     40 H7         5.2971   -4.0192    3.2401 H         1 RES1    0.0000
     41 H8         4.6462   -1.7882    2.7478 H         1 RES1    0.0000
     42 H9         6.2157   -0.0604    2.2872 H         1 RES1    0.0000
     43 H10        9.6923    3.9282    1.2706 H         1 RES1    0.0000
     44 H11       11.1236    5.7429    0.6274 H         1 RES1    0.0000
     45 H12       13.4684    5.4188    0.4686 H         1 RES1    0.0000
     46 H13       15.4897    3.7545    0.5956 H         1 RES1    0.0000
     47 H14       16.2321    1.5688    1.0483 H         1 RES1    0.0000
     48 H15       14.7102   -0.1868    1.6042 H         1 RES1    0.0000
     49 H16        7.7585    1.4640   -0.0556 H         1 RES1    0.0000
     50 H17        6.0311    3.1550   -0.1588 H         1 RES1    0.0000
     51 H18        5.5699    4.3811    1.8345 H         1 RES1    0.0000
     52 H19        6.6742    4.0063    3.8914 H         1 RES1    0.0000
     53 H20        8.3950    2.3093    3.8993 H         1 RES1    0.0000
@<TRIPOS>BOND
     1    1    2 1
     2    2    3 ar
     3    3    4 1
     4    4    5 ar
     5    5    6 ar
     6    6    7 ar
     7    7    8 ar
     8    8    9 ar
     9    9   10 ar
    10   10   11 ar
    11   11   12 ar
    12   12   13 1
    13   13    3 ar
    14   14   13 ar
    15   15   14 ar
    16   16   15 1
    17   17   16 ar
    18   18   17 ar
    19   19   18 ar
    20   20   19 ar
    21   21   20 ar
    22   22   21 ar
    23   23   22 ar
    24   24   23 ar
    25   25    2 ar
    26   26    4 ar
    27   27   16 ar
    28   28   14 1
    29   29   28 ar
    30   30   29 ar
    31   31   30 ar
    32   32   31 ar
    33   33   28 ar
    34   34    1 1
    35   35    1 1
    36   36    1 1
    37   37    5 1
    38   38    6 1
    39   39    7 1
    40   40    9 1
    41   41   10 1
    42   42   11 1
    43   43   17 1
    44   44   18 1
    45   45   19 1
    46   46   21 1
    47   47   22 1
    48   48   23 1
    49   49   29 1
    50   50   30 1
    51   51   31 1
    52   52   32 1
    53   53   33 1
    54    8   26 ar
    55   12   26 ar
    56   15   25 ar
    57   20   27 ar
    58   24   25 1
    59   24   27 ar
    60   32   33 ar
@<TRIPOS>SUBSTRUCTURE
     1 RES1 1

@<TRIPOS>CRYSIN
  12.1840   12.5070    8.5420  97.6400 104.4500 116.1900   2 1

