# MOL2 file generated by ConQuest
# Please check atom types

@<TRIPOS>MOLECULE
BINAPH21
    34    37     1
SMALL
NO_CHARGES
****
Generated from CSD

@<TRIPOS>ATOM
      1 C1         8.2130    1.5933    1.6396 C.ar      1 RES1    0.0000
      2 C2         8.8929    0.5634    2.3398 C.ar      1 RES1    0.0000
      3 C3         8.1694   -0.4180    2.9781 C.ar      1 RES1    0.0000
      4 H1         8.6242   -1.0632    3.4696 H         1 RES1    0.0000
      5 C4         6.7578   -0.4786    2.9085 C.ar      1 RES1    0.0000
      6 H2         6.2924   -1.1613    3.3325 H         1 RES1    0.0000
      7 C5         6.1092    0.4544    2.2369 C.ar      1 RES1    0.0000
      8 H3         5.1802    0.4004    2.1940 H         1 RES1    0.0000
      9 C6         6.7543    1.5448    1.5691 C.ar      1 RES1    0.0000
     10 C7         6.0985    2.5686    0.8631 C.ar      1 RES1    0.0000
     11 H4         5.1695    2.5650    0.8355 H         1 RES1    0.0000
     12 C8         6.7384    3.5439    0.2372 C.ar      1 RES1    0.0000
     13 H5         6.2602    4.1830   -0.2363 H         1 RES1    0.0000
     14 C9         8.1557    3.6106    0.2858 C.ar      1 RES1    0.0000
     15 H6         8.6067    4.3169   -0.1153 H         1 RES1    0.0000
     16 C10        8.8505    2.6292    0.9241 C.ar      1 RES1    0.0000
     17 H7         9.7786    2.6377    0.8869 H         1 RES1    0.0000
     18 C1A       11.0732    1.5933    3.1238 C.ar      1 RES1    0.0000
     19 C2A       10.3933    0.5634    2.4236 C.ar      1 RES1    0.0000
     20 C3A       11.1168   -0.4180    1.7853 C.ar      1 RES1    0.0000
     21 H1A       10.6620   -1.0632    1.2937 H         1 RES1    0.0000
     22 C4A       12.5284   -0.4786    1.8549 C.ar      1 RES1    0.0000
     23 H2A       12.9939   -1.1613    1.4309 H         1 RES1    0.0000
     24 C5A       13.1771    0.4544    2.5265 C.ar      1 RES1    0.0000
     25 H3A       14.1061    0.4004    2.5694 H         1 RES1    0.0000
     26 C6A       12.5320    1.5448    3.1943 C.ar      1 RES1    0.0000
     27 C7A       13.1877    2.5686    3.9003 C.ar      1 RES1    0.0000
     28 H4A       14.1167    2.5650    3.9279 H         1 RES1    0.0000
     29 C8A       12.5479    3.5439    4.5262 C.ar      1 RES1    0.0000
     30 H5A       13.0261    4.1830    4.9996 H         1 RES1    0.0000
     31 C9A       11.1305    3.6106    4.4776 C.ar      1 RES1    0.0000
     32 H6A       10.6795    4.3169    4.8787 H         1 RES1    0.0000
     33 C10A      10.4358    2.6292    3.8393 C.ar      1 RES1    0.0000
     34 H7A        9.5076    2.6377    3.8764 H         1 RES1    0.0000
@<TRIPOS>BOND
     1    1    2 ar
     2    2    3 ar
     3    3    4 1
     4    5    3 ar
     5    6    5 1
     6    7    5 ar
     7    8    7 1
     8    9    1 ar
     9   10    9 ar
    10   11   10 1
    11   12   10 ar
    12   13   12 1
    13   14   12 ar
    14   15   14 1
    15   16    1 ar
    16   17   16 1
    17   18   19 ar
    18   19    2 1
    19   20   19 ar
    20   21   20 1
    21   22   20 ar
    22   23   22 1
    23   24   22 ar
    24   25   24 1
    25   26   18 ar
    26   27   26 ar
    27   28   27 1
    28   29   27 ar
    29   30   29 1
    30   31   29 ar
    31   32   31 1
    32   33   18 ar
    33   34   33 1
    34    7    9 ar
    35   14   16 ar
    36   24   26 ar
    37   31   33 ar
@<TRIPOS>SUBSTRUCTURE
     1 RES1 1

@<TRIPOS>CRYSIN
  20.5840    6.0580    9.8740  90.0000 105.2400  90.0000  15 1

