# MOL2 file generated by ConQuest
# Please check atom types

@<TRIPOS>MOLECULE
BINAPH24
    34    37     1
SMALL
NO_CHARGES
****
Generated from CSD

@<TRIPOS>ATOM
      1 C1         8.0367    1.5109    1.5602 C.ar      1 RES1    0.0000
      2 C2         8.7268    0.5217    2.2516 C.ar      1 RES1    0.0000
      3 C3         8.0270   -0.4999    2.8848 C.ar      1 RES1    0.0000
      4 H1         8.4901   -1.1617    3.3469 H         1 RES1    0.0000
      5 C4         6.6390   -0.5317    2.8266 C.ar      1 RES1    0.0000
      6 H2         6.1721   -1.2147    3.2499 H         1 RES1    0.0000
      7 C5         5.9509    0.4575    2.1352 C.ar      1 RES1    0.0000
      8 H3         5.0209    0.4363    2.0963 H         1 RES1    0.0000
      9 C6         6.6487    1.4791    1.5020 C.ar      1 RES1    0.0000
     10 C7         5.8397    2.5083    0.8143 C.ar      1 RES1    0.0000
     11 H4         4.9109    2.4859    0.7931 H         1 RES1    0.0000
     12 C8         6.6137    3.5269    0.1849 C.ar      1 RES1    0.0000
     13 H5         6.1688    4.2117   -0.2625 H         1 RES1    0.0000
     14 C9         8.0418    3.5092    0.2375 C.ar      1 RES1    0.0000
     15 H6         8.5712    4.1587   -0.1765 H         1 RES1    0.0000
     16 C10        8.5340    2.5619    0.8809 C.ar      1 RES1    0.0000
     17 H7         9.4646    2.5848    0.8957 H         1 RES1    0.0000
     18 C1A       11.0016    1.5109    3.0613 C.ar      1 RES1    0.0000
     19 C2A       10.3115    0.5217    2.3699 C.ar      1 RES1    0.0000
     20 C3A       11.0113   -0.4999    1.7368 C.ar      1 RES1    0.0000
     21 H1A       10.5482   -1.1617    1.2746 H         1 RES1    0.0000
     22 C4A       12.3993   -0.5317    1.7950 C.ar      1 RES1    0.0000
     23 H2A       12.8662   -1.2147    1.3717 H         1 RES1    0.0000
     24 C5A       13.0874    0.4575    2.4864 C.ar      1 RES1    0.0000
     25 H3A       14.0175    0.4363    2.5252 H         1 RES1    0.0000
     26 C6A       12.3896    1.4791    3.1196 C.ar      1 RES1    0.0000
     27 C7A       13.1986    2.5083    3.8073 C.ar      1 RES1    0.0000
     28 H4A       14.1275    2.4859    3.8285 H         1 RES1    0.0000
     29 C8A       12.4246    3.5269    4.4367 C.ar      1 RES1    0.0000
     30 H5A       12.8695    4.2117    4.8841 H         1 RES1    0.0000
     31 C9A       10.9965    3.5092    4.3840 C.ar      1 RES1    0.0000
     32 H6A       10.4672    4.1587    4.7981 H         1 RES1    0.0000
     33 C10A      10.5044    2.5619    3.7407 C.ar      1 RES1    0.0000
     34 H7A        9.5738    2.5848    3.7259 H         1 RES1    0.0000
@<TRIPOS>BOND
     1    1    2 ar
     2    2    3 ar
     3    3    4 1
     4    5    3 ar
     5    6    5 1
     6    7    5 ar
     7    8    7 1
     8    9    1 ar
     9   10    9 ar
    10   11   10 1
    11   12   10 ar
    12   13   12 1
    13   14   12 ar
    14   15   14 1
    15   16    1 ar
    16   17   16 1
    17   18   19 ar
    18   19    2 1
    19   20   19 ar
    20   21   20 1
    21   22   20 ar
    22   23   22 1
    23   24   22 ar
    24   25   24 1
    25   26   18 ar
    26   27   26 ar
    27   28   27 1
    28   29   27 ar
    29   30   29 1
    30   31   29 ar
    31   32   31 1
    32   33   18 ar
    33   34   33 1
    34    7    9 ar
    35   14   16 ar
    36   24   26 ar
    37   31   33 ar
@<TRIPOS>SUBSTRUCTURE
     1 RES1 1

@<TRIPOS>CRYSIN
  20.3200    5.8880    9.5920  90.0000 105.5000  90.0000  15 1

