# MOL2 file generated by ConQuest
# Please check atom types

@<TRIPOS>MOLECULE
BINAPH20
    34    37     1
SMALL
NO_CHARGES
****
Generated from CSD

@<TRIPOS>ATOM
      1 C1         8.2965    1.5382    1.6518 C.ar      1 RES1    0.0000
      2 C2         9.0371    0.5937    2.3610 C.ar      1 RES1    0.0000
      3 C3         8.2513   -0.4091    2.9633 C.ar      1 RES1    0.0000
      4 H1         8.6927   -1.1099    3.3845 H         1 RES1    0.0000
      5 C4         6.7270   -0.4245    2.9701 C.ar      1 RES1    0.0000
      6 H2         6.2299   -1.0509    3.4433 H         1 RES1    0.0000
      7 C5         6.1915    0.5150    2.2550 C.ar      1 RES1    0.0000
      8 H3         5.2628    0.5217    2.1876 H         1 RES1    0.0000
      9 C6         6.8526    1.4643    1.6151 C.ar      1 RES1    0.0000
     10 C7         6.1531    2.5804    0.8847 C.ar      1 RES1    0.0000
     11 H4         5.2242    2.6025    0.8712 H         1 RES1    0.0000
     12 C8         6.8500    3.5562    0.2428 C.ar      1 RES1    0.0000
     13 H5         6.3901    4.2102   -0.2322 H         1 RES1    0.0000
     14 C9         8.2513    3.6054    0.2833 C.ar      1 RES1    0.0000
     15 H6         8.6994    4.2847   -0.1629 H         1 RES1    0.0000
     16 C10        8.9440    2.6708    0.9627 C.ar      1 RES1    0.0000
     17 H7         9.8704    2.7373    0.9926 H         1 RES1    0.0000
     18 C1A       11.1554    1.5382    3.1667 C.ar      1 RES1    0.0000
     19 C2A       10.4148    0.5937    2.4574 C.ar      1 RES1    0.0000
     20 C3A       11.2006   -0.4091    1.8551 C.ar      1 RES1    0.0000
     21 H1A       10.7591   -1.1099    1.4340 H         1 RES1    0.0000
     22 C4A       12.7248   -0.4245    1.8484 C.ar      1 RES1    0.0000
     23 H2A       13.2219   -1.0509    1.3752 H         1 RES1    0.0000
     24 C5A       13.2603    0.5150    2.5634 C.ar      1 RES1    0.0000
     25 H3A       14.1890    0.5217    2.6309 H         1 RES1    0.0000
     26 C6A       12.5993    1.4643    3.2033 C.ar      1 RES1    0.0000
     27 C7A       13.2988    2.5804    3.9338 C.ar      1 RES1    0.0000
     28 H4A       14.2276    2.6025    3.9473 H         1 RES1    0.0000
     29 C8A       12.6018    3.5562    4.5756 C.ar      1 RES1    0.0000
     30 H5A       13.0617    4.2102    5.0507 H         1 RES1    0.0000
     31 C9A       11.2006    3.6054    4.5351 C.ar      1 RES1    0.0000
     32 H6A       10.7524    4.2847    4.9813 H         1 RES1    0.0000
     33 C10A      10.5079    2.6708    3.8557 C.ar      1 RES1    0.0000
     34 H7A        9.5814    2.7373    3.8258 H         1 RES1    0.0000
@<TRIPOS>BOND
     1    1    2 ar
     2    2    3 ar
     3    3    4 1
     4    5    3 ar
     5    6    5 1
     6    7    5 ar
     7    8    7 1
     8    9    1 ar
     9   10    9 ar
    10   11   10 1
    11   12   10 ar
    12   13   12 1
    13   14   12 ar
    14   15   14 1
    15   16    1 ar
    16   17   16 1
    17   18   19 ar
    18   19    2 1
    19   20   19 ar
    20   21   20 1
    21   22   20 ar
    22   23   22 1
    23   24   22 ar
    24   25   24 1
    25   26   18 ar
    26   27   26 ar
    27   28   27 1
    28   29   27 ar
    29   30   29 1
    30   31   29 ar
    31   32   31 1
    32   33   18 ar
    33   34   33 1
    34    7    9 ar
    35   14   16 ar
    36   24   26 ar
    37   31   33 ar
@<TRIPOS>SUBSTRUCTURE
     1 RES1 1

@<TRIPOS>CRYSIN
  20.7700    6.1526    9.9910  90.0000 105.3000  90.0000  15 1

