# MOL2 file generated by ConQuest
# Please check atom types

@<TRIPOS>MOLECULE
BIPHEC
    32    39     1
SMALL
NO_CHARGES
****
Generated from CSD

@<TRIPOS>ATOM
      1 C1         0.6581    6.6829    8.2748 C.ar      1 RES1    0.0000
      2 C2        -0.0594    6.5673    9.5102 C.ar      1 RES1    0.0000
      3 C3        -0.1104    5.3396   10.2397 C.ar      1 RES1    0.0000
      4 C4         0.4914    4.1638    9.6794 C.ar      1 RES1    0.0000
      5 C5         2.4572    2.4992    6.8922 C.ar      1 RES1    0.0000
      6 C6         3.1159    2.6268    5.6288 C.ar      1 RES1    0.0000
      7 C7         3.1935    3.8178    4.9846 C.ar      1 RES1    0.0000
      8 C8         2.6409    4.9921    5.5023 C.ar      1 RES1    0.0000
      9 C9         1.9983    4.8844    6.7098 C.ar      1 RES1    0.0000
     10 C10        1.2198    5.5629    7.7953 C.ar      1 RES1    0.0000
     11 C11        1.1295    4.3089    8.4954 C.ar      1 RES1    0.0000
     12 C12        1.9109    3.6496    7.3820 C.ar      1 RES1    0.0000
     13 C13       -0.8085    7.6834    9.9706 C.ar      1 RES1    0.0000
     14 C14       -1.6625    7.5758   11.0104 C.ar      1 RES1    0.0000
     15 C15       -1.7790    6.3696   11.7517 C.ar      1 RES1    0.0000
     16 C16       -0.8684    5.2886   11.4782 C.ar      1 RES1    0.0000
     17 C17       -2.8234    6.1392   12.7563 C.ar      1 RES1    0.0000
     18 C18       -2.9800    4.9291   13.3064 C.ar      1 RES1    0.0000
     19 C19       -2.0592    3.8840   13.1343 C.ar      1 RES1    0.0000
     20 C20       -0.8661    4.1558   12.3754 C.ar      1 RES1    0.0000
     21 C21       -2.2375    2.5893   13.7020 C.ar      1 RES1    0.0000
     22 C22       -1.3348    1.6614   13.5873 C.ar      1 RES1    0.0000
     23 C23       -0.0549    1.9531   13.0843 C.ar      1 RES1    0.0000
     24 C24        0.2299    3.2574   12.5827 C.ar      1 RES1    0.0000
     25 C25        0.9684    0.9726   13.1255 C.ar      1 RES1    0.0000
     26 C26        2.2167    1.2564   12.8504 C.ar      1 RES1    0.0000
     27 C27        2.6240    2.6005   12.5901 C.ar      1 RES1    0.0000
     28 C28        1.6198    3.6217   12.4651 C.ar      1 RES1    0.0000
     29 C29        3.9702    2.9839   12.5107 C.ar      1 RES1    0.0000
     30 C30        4.3723    4.2618   12.3871 C.ar      1 RES1    0.0000
     31 C31        3.4016    5.2679   12.3489 C.ar      1 RES1    0.0000
     32 C32        2.0622    4.9506   12.3901 C.ar      1 RES1    0.0000
@<TRIPOS>BOND
     1    1    2 ar
     2    2    3 ar
     3    3    4 ar
     4    4   11 ar
     5    5    6 ar
     6    6    7 ar
     7    7    8 ar
     8    8    9 ar
     9    9   10 1
    10   10    1 ar
    11   11   10 ar
    12   12    5 ar
    13   13    2 ar
    14   14   13 ar
    15   15   14 ar
    16   16    3 ar
    17   17   15 ar
    18   18   17 ar
    19   19   18 ar
    20   20   16 ar
    21   21   19 ar
    22   22   21 ar
    23   23   22 ar
    24   24   20 ar
    25   25   23 ar
    26   26   25 ar
    27   27   26 ar
    28   28   24 ar
    29   29   27 ar
    30   30   29 ar
    31   31   30 ar
    32   32   28 ar
    33    9   12 ar
    34   11   12 1
    35   15   16 ar
    36   19   20 ar
    37   23   24 ar
    38   27   28 ar
    39   31   32 ar
@<TRIPOS>SUBSTRUCTURE
     1 RES1 1

@<TRIPOS>CRYSIN
  17.5800    7.9720   14.7190  90.0000  92.2100  90.0000 231 1

