# MOL2 file generated by ConQuest
# Please check atom types

@<TRIPOS>MOLECULE
BNAFTH
    64    70     1
SMALL
NO_CHARGES
****
Generated from CSD

@<TRIPOS>ATOM
      1 C1        -3.3598    5.8005   21.9754 C.3       1 RES1    0.0000
      2 C2        -4.0796    4.6349   21.3154 C.3       1 RES1    0.0000
      3 C3        -3.1945    3.4305   21.1434 C.3       1 RES1    0.0000
      4 C4        -3.9282    2.2836   20.4535 C.3       1 RES1    0.0000
      5 C5        -3.0038    1.1143   20.2295 C.ar      1 RES1    0.0000
      6 C6        -2.2077    1.0291   19.0935 C.ar      1 RES1    0.0000
      7 C7        -2.0673    1.9606   17.9515 C.ar      1 RES1    0.0000
      8 C8        -2.5951    3.1813   17.6215 C.ar      1 RES1    0.0000
      9 C9        -2.1785    3.7585   16.3856 C.ar      1 RES1    0.0000
     10 C10       -1.2813    3.1851   15.5436 C.ar      1 RES1    0.0000
     11 C11       -0.7063    1.9368   15.8816 C.ar      1 RES1    0.0000
     12 C12        0.2601    1.2407   15.1336 C.ar      1 RES1    0.0000
     13 C13        0.7305    0.0388   15.5896 C.ar      1 RES1    0.0000
     14 C14        0.2793   -0.5346   16.8096 C.ar      1 RES1    0.0000
     15 C15       -0.6481    0.1390   17.5715 C.ar      1 RES1    0.0000
     16 C16       -2.8819    0.0739   21.1494 C.ar      1 RES1    0.0000
     17 C17       -1.1196    1.3759   17.0775 C.ar      1 RES1    0.0000
     18 H1        -2.9423    5.4212   22.7194 H         1 RES1    0.0000
     19 H2        -4.1305    6.5980   22.2994 H         1 RES1    0.0000
     20 H3        -2.5691    6.1849   21.3194 H         1 RES1    0.0000
     21 H4        -4.5363    4.7952   20.4795 H         1 RES1    0.0000
     22 H5        -4.9937    4.2944   21.9194 H         1 RES1    0.0000
     23 H6        -2.7881    3.1050   22.0594 H         1 RES1    0.0000
     24 H7        -2.2586    3.6058   20.5595 H         1 RES1    0.0000
     25 H8        -4.3167    2.6292   19.5995 H         1 RES1    0.0000
     26 H9        -4.7468    2.0533   20.9594 H         1 RES1    0.0000
     27 H10       -3.3023    3.6183   18.3195 H         1 RES1    0.0000
     28 H11       -2.6588    4.6574   16.1396 H         1 RES1    0.0000
     29 H12       -0.9396    3.5932   14.5996 H         1 RES1    0.0000
     30 H13        0.6108    1.6777   14.2596 H         1 RES1    0.0000
     31 H14        1.4606   -0.4632   15.0796 H         1 RES1    0.0000
     32 H15        0.6557   -1.5149   17.1395 H         1 RES1    0.0000
     33 C16B      -1.3292   -0.0739   18.8495 C.ar      1 RES1    0.0000
     34 C6B       -2.0034   -1.0291   20.9054 C.ar      1 RES1    0.0000
     35 C15B      -3.5630   -0.1390   22.4274 C.ar      1 RES1    0.0000
     36 C5B       -1.2073   -1.1143   19.7695 C.ar      1 RES1    0.0000
     37 C7B       -2.1438   -1.9606   22.0474 C.ar      1 RES1    0.0000
     38 C14B      -4.4905    0.5346   23.1894 C.ar      1 RES1    0.0000
     39 C17B      -3.0915   -1.3759   22.9214 C.ar      1 RES1    0.0000
     40 C4B       -0.2829   -2.2836   19.5455 C.3       1 RES1    0.0000
     41 C8B       -1.6160   -3.1813   22.3774 C.ar      1 RES1    0.0000
     42 C13B      -4.9416   -0.0388   24.4094 C.ar      1 RES1    0.0000
     43 H15B      -4.8668    1.5149   22.8594 H         1 RES1    0.0000
     44 C11B      -3.5048   -1.9368   24.1174 C.ar      1 RES1    0.0000
     45 C3B       -1.0166   -3.4305   18.8555 C.3       1 RES1    0.0000
     46 H8B        0.1055   -2.6292   20.3995 H         1 RES1    0.0000
     47 H9B        0.5357   -2.0533   19.0395 H         1 RES1    0.0000
     48 C9B       -2.0326   -3.7585   23.6134 C.ar      1 RES1    0.0000
     49 H10B      -0.9089   -3.6183   21.6794 H         1 RES1    0.0000
     50 C12B      -4.4712   -1.2407   24.8653 C.ar      1 RES1    0.0000
     51 H14B      -5.6717    0.4632   24.9193 H         1 RES1    0.0000
     52 C10B      -2.9298   -3.1851   24.4553 C.ar      1 RES1    0.0000
     53 C2B       -0.1315   -4.6349   18.6835 C.3       1 RES1    0.0000
     54 H6B       -1.4230   -3.1050   17.9395 H         1 RES1    0.0000
     55 H7B       -1.9525   -3.6058   19.4395 H         1 RES1    0.0000
     56 H11B      -1.5523   -4.6574   23.8594 H         1 RES1    0.0000
     57 H13B      -4.8219   -1.6777   25.7393 H         1 RES1    0.0000
     58 H12B      -3.2715   -3.5932   25.3993 H         1 RES1    0.0000
     59 C1B       -0.8514   -5.8005   18.0235 C.3       1 RES1    0.0000
     60 H4B        0.3252   -4.7952   19.5195 H         1 RES1    0.0000
     61 H5B        0.7826   -4.2944   18.0795 H         1 RES1    0.0000
     62 H1B       -1.2688   -5.4212   17.2795 H         1 RES1    0.0000
     63 H2B       -0.0806   -6.5980   17.6995 H         1 RES1    0.0000
     64 H3B       -1.6420   -6.1849   18.6795 H         1 RES1    0.0000
@<TRIPOS>BOND
     1    1    2 1
     2    2    3 1
     3    3    4 1
     4    4    5 1
     5    5    6 ar
     6    6    7 1
     7    7    8 ar
     8    8    9 ar
     9    9   10 ar
    10   10   11 ar
    11   11   12 ar
    12   12   13 ar
    13   13   14 ar
    14   14   15 ar
    15   15   17 ar
    16   16    5 ar
    17   17    7 ar
    18   18    1 1
    19   19    1 1
    20   20    1 1
    21   21    2 1
    22   22    2 1
    23   23    3 1
    24   24    3 1
    25   25    4 1
    26   26    4 1
    27   27    8 1
    28   28    9 1
    29   29   10 1
    30   30   12 1
    31   31   13 1
    32   32   14 1
    33   33    6 ar
    34   34   16 ar
    35   35   16 1
    36   36   33 ar
    37   37   34 1
    38   38   35 ar
    39   39   35 ar
    40   40   36 1
    41   41   37 ar
    42   42   38 ar
    43   43   38 1
    44   44   39 ar
    45   45   40 1
    46   46   40 1
    47   47   40 1
    48   48   41 ar
    49   49   41 1
    50   50   42 ar
    51   51   42 1
    52   52   44 ar
    53   53   45 1
    54   54   45 1
    55   55   45 1
    56   56   48 1
    57   57   50 1
    58   58   52 1
    59   59   53 1
    60   60   53 1
    61   61   53 1
    62   62   59 1
    63   63   59 1
    64   64   59 1
    65   11   17 ar
    66   15   33 1
    67   34   36 ar
    68   37   39 ar
    69   44   50 ar
    70   48   52 ar
@<TRIPOS>SUBSTRUCTURE
     1 RES1 1

@<TRIPOS>CRYSIN
   4.7040   12.5200   20.1100  90.0000  96.0100  90.0000  14 1

