# MOL2 file generated by ConQuest
# Please check atom types

@<TRIPOS>MOLECULE
BNPYRE12
    32    36     1
SMALL
NO_CHARGES
****
Generated from CSD

@<TRIPOS>ATOM
      1 C1        -1.8950   -4.4659    1.6140 C.ar      1 RES1    0.0000
      2 C2        -2.3100   -5.3372    2.5877 C.ar      1 RES1    0.0000
      3 C3        -1.8366   -5.2336    3.8908 C.ar      1 RES1    0.0000
      4 C4        -0.4231   -4.1004    5.5778 C.ar      1 RES1    0.0000
      5 C5         0.4473   -3.1357    5.8886 C.ar      1 RES1    0.0000
      6 C6         1.7881   -1.1678    5.2444 C.ar      1 RES1    0.0000
      7 C7         3.1374    0.7961    4.6506 C.ar      1 RES1    0.0000
      8 C8         3.5691    1.7141    3.7354 C.ar      1 RES1    0.0000
      9 C9         3.0902    1.6491    2.4057 C.ar      1 RES1    0.0000
     10 C10        2.2093    0.6682    2.0297 C.ar      1 RES1    0.0000
     11 C11        0.3407   -1.5374    1.2593 C.ar      1 RES1    0.0000
     12 C12       -0.5239   -2.5163    0.9365 C.ar      1 RES1    0.0000
     13 C13       -0.9368   -4.2405    4.2468 C.ar      1 RES1    0.0000
     14 C14       -0.9888   -3.4444    1.9221 C.ar      1 RES1    0.0000
     15 C15       -0.4979   -3.3226    3.2412 C.ar      1 RES1    0.0000
     16 C16        0.4199   -2.2705    3.5733 C.ar      1 RES1    0.0000
     17 C17        0.9114   -2.1690    4.9296 C.ar      1 RES1    0.0000
     18 C18        0.8495   -1.3648    2.5823 C.ar      1 RES1    0.0000
     19 C19        1.7681   -0.3107    2.9543 C.ar      1 RES1    0.0000
     20 C20        2.2339   -0.2376    4.2840 C.ar      1 RES1    0.0000
     21 H1        -2.2225   -4.5492    0.6642 H         1 RES1    0.0000
     22 H2        -2.9725   -6.0521    2.3379 H         1 RES1    0.0000
     23 H3        -2.1545   -5.8896    4.5829 H         1 RES1    0.0000
     24 H4        -0.7319   -4.7523    6.2964 H         1 RES1    0.0000
     25 H5         0.8183   -3.0667    6.8278 H         1 RES1    0.0000
     26 H6         2.1354   -1.0764    6.1902 H         1 RES1    0.0000
     27 H7         3.4598    0.8327    5.6057 H         1 RES1    0.0000
     28 H8         4.2410    2.4371    4.0117 H         1 RES1    0.0000
     29 H9         3.3917    2.3152    1.7269 H         1 RES1    0.0000
     30 H10        1.8479    0.6499    1.0627 H         1 RES1    0.0000
     31 H11        0.6463   -0.8733    0.5446 H         1 RES1    0.0000
     32 H12       -0.8498   -2.5996   -0.0266 H         1 RES1    0.0000
@<TRIPOS>BOND
     1    1    2 ar
     2    2    3 ar
     3    3   13 ar
     4    4    5 ar
     5    5   17 ar
     6    6   17 ar
     7    7    8 ar
     8    8    9 ar
     9    9   10 ar
    10   10   19 ar
    11   11   12 ar
    12   12   14 ar
    13   13    4 ar
    14   14    1 ar
    15   15   13 ar
    16   16   15 ar
    17   17   16 ar
    18   18   11 ar
    19   19   18 ar
    20   20    6 ar
    21   21    1 1
    22   22    2 1
    23   23    3 1
    24   24    4 1
    25   25    5 1
    26   26    6 1
    27   27    7 1
    28   28    8 1
    29   29    9 1
    30   30   10 1
    31   31   11 1
    32   32   12 1
    33    7   20 ar
    34   14   15 ar
    35   16   18 ar
    36   19   20 ar
@<TRIPOS>SUBSTRUCTURE
     1 RES1 1

@<TRIPOS>CRYSIN
   4.4890   20.3090   13.3720  90.0000  96.5900  90.0000  14 1

