# MOL2 file generated by ConQuest
# Please check atom types

@<TRIPOS>MOLECULE
BOBNAJ
    44    48     1
SMALL
NO_CHARGES
****
Generated from CSD

@<TRIPOS>ATOM
      1 C1         2.9433    9.6041    3.4613 C.ar      1 RES1    0.0000
      2 C2         3.5407   10.8603    3.1187 C.ar      1 RES1    0.0000
      3 C3         3.5376   12.0534    3.9661 C.ar      1 RES1    0.0000
      4 C4         2.5458   12.3562    4.9523 C.ar      1 RES1    0.0000
      5 C5         2.7716   13.4172    5.8282 C.ar      1 RES1    0.0000
      6 H1         2.1356   13.5897    6.5126 H         1 RES1    0.0000
      7 C6         3.9029   14.2366    5.7345 C.ar      1 RES1    0.0000
      8 H2         4.0777   14.8938    6.3981 H         1 RES1    0.0000
      9 C7         4.7562   14.0767    4.6700 C.ar      1 RES1    0.0000
     10 H3         5.4807   14.6796    4.5504 H         1 RES1    0.0000
     11 C8         4.5614   13.0232    3.7548 C.ar      1 RES1    0.0000
     12 C9         5.3511   12.9833    2.5545 C.ar      1 RES1    0.0000
     13 H4         6.0399   13.6235    2.4229 H         1 RES1    0.0000
     14 C10        5.1228   12.0441    1.6130 C.ar      1 RES1    0.0000
     15 H5         5.5473   12.1152    0.7654 H         1 RES1    0.0000
     16 C11        4.2443   10.9363    1.8783 C.ar      1 RES1    0.0000
     17 C12        4.1541    9.8929    0.9322 C.ar      1 RES1    0.0000
     18 H6         4.5771    9.9843    0.0866 H         1 RES1    0.0000
     19 C13        3.4567    8.7449    1.2281 C.ar      1 RES1    0.0000
     20 H7         3.3521    8.0639    0.5752 H         1 RES1    0.0000
     21 C14        2.9035    8.5937    2.5045 C.ar      1 RES1    0.0000
     22 H8         2.4847    7.7707    2.7259 H         1 RES1    0.0000
     23 C15        2.4775    9.2034    4.8223 C.ar      1 RES1    0.0000
     24 C16        3.2817    9.3706    5.9541 C.ar      1 RES1    0.0000
     25 H9         4.0943    9.8566    5.8864 H         1 RES1    0.0000
     26 C17        2.9009    8.8294    7.1822 C.ar      1 RES1    0.0000
     27 H10        3.4586    8.9433    7.9428 H         1 RES1    0.0000
     28 C18        1.7058    8.1218    7.2979 C.ar      1 RES1    0.0000
     29 H11        1.4537    7.7432    8.1314 H         1 RES1    0.0000
     30 C19        0.8853    7.9734    6.1876 C.ar      1 RES1    0.0000
     31 H12        0.0613    7.5077    6.2667 H         1 RES1    0.0000
     32 C20        1.2669    8.5056    4.9600 C.ar      1 RES1    0.0000
     33 H13        0.7010    8.3946    4.2056 H         1 RES1    0.0000
     34 C21        1.1838   11.7568    4.9718 C.ar      1 RES1    0.0000
     35 C22        0.5181   11.5608    6.1885 C.ar      1 RES1    0.0000
     36 H14        0.9830   11.7006    7.0043 H         1 RES1    0.0000
     37 C23       -0.8135   11.1638    6.2169 C.ar      1 RES1    0.0000
     38 H15       -1.2535   11.0429    7.0506 H         1 RES1    0.0000
     39 C24       -1.5034   10.9434    5.0310 C.ar      1 RES1    0.0000
     40 H16       -2.4131   10.6708    5.0499 H         1 RES1    0.0000
     41 C25       -0.8521   11.1251    3.8152 C.ar      1 RES1    0.0000
     42 H17       -1.3185   10.9690    3.0027 H         1 RES1    0.0000
     43 C26        0.4775   11.5341    3.7829 C.ar      1 RES1    0.0000
     44 H18        0.9098   11.6630    2.9470 H         1 RES1    0.0000
@<TRIPOS>BOND
     1    1    2 ar
     2    2    3 ar
     3    3    4 ar
     4    4    5 ar
     5    5    6 1
     6    7    5 ar
     7    8    7 1
     8    9    7 ar
     9   10    9 1
    10   11    3 ar
    11   12   11 ar
    12   13   12 1
    13   14   12 ar
    14   15   14 1
    15   16    2 ar
    16   17   16 ar
    17   18   17 1
    18   19   17 ar
    19   20   19 1
    20   21    1 ar
    21   22   21 1
    22   23    1 1
    23   24   23 ar
    24   25   24 1
    25   26   24 ar
    26   27   26 1
    27   28   26 ar
    28   29   28 1
    29   30   28 ar
    30   31   30 1
    31   32   23 ar
    32   33   32 1
    33   34    4 1
    34   35   34 ar
    35   36   35 1
    36   37   35 ar
    37   38   37 1
    38   39   37 ar
    39   40   39 1
    40   41   39 ar
    41   42   41 1
    42   43   34 ar
    43   44   43 1
    44    9   11 ar
    45   14   16 ar
    46   19   21 ar
    47   30   32 ar
    48   41   43 ar
@<TRIPOS>SUBSTRUCTURE
     1 RES1 1

@<TRIPOS>CRYSIN
   8.9259   12.5274   16.0569  90.0000 105.6460  90.0000 231 1

