# MOL2 file generated by ConQuest
# Please check atom types

@<TRIPOS>MOLECULE
BONJOD
    42    46     1
SMALL
NO_CHARGES
****
Generated from CSD

@<TRIPOS>ATOM
      1 C1         7.9261    5.0629    5.2202 C.ar      1 RES1    0.0000
      2 C2         8.9072    5.8295    4.7056 C.ar      1 RES1    0.0000
      3 C3         9.7101    5.3204    3.6756 C.ar      1 RES1    0.0000
      4 C4         9.5475    4.0583    3.1676 C.ar      1 RES1    0.0000
      5 C5         8.4786    3.2271    3.6654 C.ar      1 RES1    0.0000
      6 C6         8.1146    1.9072    3.1955 C.ar      1 RES1    0.0000
      7 C7         7.0845    1.2281    3.7975 C.ar      1 RES1    0.0000
      8 C8         6.3177    1.7746    4.8223 C.ar      1 RES1    0.0000
      9 C9         6.6042    3.0188    5.2650 C.ar      1 RES1    0.0000
     10 C10        7.6783    3.7659    4.7247 C.ar      1 RES1    0.0000
     11 C11       10.5312    3.6189    2.1282 C.ar      1 RES1    0.0000
     12 C12       10.5183    4.1305    0.8413 C.ar      1 RES1    0.0000
     13 C13       11.2566    3.5271   -0.1652 C.ar      1 RES1    0.0000
     14 C14       12.0312    2.4052    0.0896 C.ar      1 RES1    0.0000
     15 C15       12.2274    2.0670    1.4168 C.ar      1 RES1    0.0000
     16 C16       11.4787    2.6525    2.4137 C.ar      1 RES1    0.0000
     17 C17        8.7523    1.2426    2.0180 C.ar      1 RES1    0.0000
     18 C18        8.4915    1.6956    0.7400 C.ar      1 RES1    0.0000
     19 C19        9.2248    1.2358   -0.3281 C.ar      1 RES1    0.0000
     20 C20       10.2523    0.3298   -0.1549 C.ar      1 RES1    0.0000
     21 C21       10.3504   -0.2754    1.0725 C.ar      1 RES1    0.0000
     22 C22        9.6069    0.1640    2.1480 C.ar      1 RES1    0.0000
     23 C23       12.4107    1.4159   -0.9800 C.3       1 RES1    0.0000
     24 C24       11.3702    0.2813   -1.1702 C.3       1 RES1    0.0000
     25 H1         7.4098    5.3459    5.9756 H         1 RES1    0.0000
     26 H2         9.1396    6.7227    4.9845 H         1 RES1    0.0000
     27 H3        10.4563    5.8388    3.2667 H         1 RES1    0.0000
     28 H4         6.7901    0.3740    3.3989 H         1 RES1    0.0000
     29 H5         5.5767    1.2833    5.2048 H         1 RES1    0.0000
     30 H6         6.1189    3.3911    5.9462 H         1 RES1    0.0000
     31 H7         9.8625    4.8104    0.6240 H         1 RES1    0.0000
     32 H8        11.1792    3.8161   -1.0644 H         1 RES1    0.0000
     33 H9        12.8574    1.3258    1.7031 H         1 RES1    0.0000
     34 H10       11.5148    2.3372    3.3255 H         1 RES1    0.0000
     35 H11        7.8745    2.4307    0.6387 H         1 RES1    0.0000
     36 H12        9.0363    1.5723   -1.2480 H         1 RES1    0.0000
     37 H13       11.0501   -0.9434    1.2406 H         1 RES1    0.0000
     38 H14        9.7076   -0.1870    3.0465 H         1 RES1    0.0000
     39 H15       12.5734    1.8613   -1.8940 H         1 RES1    0.0000
     40 H16       13.2705    0.9859   -0.7341 H         1 RES1    0.0000
     41 H17       11.1017    0.2210   -2.2096 H         1 RES1    0.0000
     42 H18       12.0054   -0.6374   -1.3507 H         1 RES1    0.0000
@<TRIPOS>BOND
     1    1    2 ar
     2    2    3 ar
     3    3    4 ar
     4    4    5 ar
     5    5    6 ar
     6    6    7 ar
     7    7    8 ar
     8    8    9 ar
     9    9   10 ar
    10   10    1 ar
    11   11    4 1
    12   12   11 ar
    13   13   12 ar
    14   14   13 ar
    15   15   14 ar
    16   16   11 ar
    17   17    6 1
    18   18   17 ar
    19   19   18 ar
    20   20   19 ar
    21   21   20 ar
    22   22   17 ar
    23   23   14 1
    24   24   20 1
    25   25    1 1
    26   26    2 1
    27   27    3 1
    28   28    7 1
    29   29    8 1
    30   30    9 1
    31   31   12 1
    32   32   13 1
    33   33   15 1
    34   34   16 1
    35   35   18 1
    36   36   19 1
    37   37   21 1
    38   38   22 1
    39   39   23 1
    40   40   23 1
    41   41   24 1
    42   42   24 1
    43    5   10 ar
    44   15   16 ar
    45   21   22 ar
    46   23   24 1
@<TRIPOS>SUBSTRUCTURE
     1 RES1 1

@<TRIPOS>CRYSIN
  25.8180    8.4990    7.3410  90.0000  90.0000  90.0000  19 1

