# MOL2 file generated by ConQuest
# Please check atom types

@<TRIPOS>MOLECULE
BUTPYR11
    50    53     1
SMALL
NO_CHARGES
****
Generated from CSD

@<TRIPOS>ATOM
      1 C1         4.2356   -0.3167    5.4912 C.ar      1 RES1    0.0000
      2 H1         4.7610   -1.1068    5.5399 H         1 RES1    0.0000
      3 C2         3.0685   -0.2325    6.2563 C.ar      1 RES1    0.0000
      4 C3         2.3211    0.9440    6.1814 C.ar      1 RES1    0.0000
      5 H2         1.5267    1.0184    6.6962 H         1 RES1    0.0000
      6 C4         2.7076    2.0172    5.3702 C.ar      1 RES1    0.0000
      7 C5         3.8798    1.9085    4.5870 C.ar      1 RES1    0.0000
      8 C6         4.6537    0.7233    4.6577 C.ar      1 RES1    0.0000
      9 C7         1.9420    3.2296    5.2851 C.ar      1 RES1    0.0000
     10 H3         1.1555    3.3217    5.8103 H         1 RES1    0.0000
     11 C8         5.8353    0.6353    3.8481 C.ar      1 RES1    0.0000
     12 H4         6.3648   -0.1526    3.8846 H         1 RES1    0.0000
     13 C9         2.5951   -1.4362    7.0754 C.3       1 RES1    0.0000
     14 C10        1.8606   -2.3927    6.1221 C.3       1 RES1    0.0000
     15 H5         1.0870   -1.9351    5.7321 H         1 RES1    0.0000
     16 H6         1.5572   -3.1805    6.6196 H         1 RES1    0.0000
     17 H7         2.4695   -2.6725    5.4068 H         1 RES1    0.0000
     18 C11        3.7815   -2.1726    7.7130 C.3       1 RES1    0.0000
     19 H8         4.3003   -1.5453    8.2592 H         1 RES1    0.0000
     20 H9         4.3532   -2.5423    7.0081 H         1 RES1    0.0000
     21 H10        3.4488   -2.9002    8.2791 H         1 RES1    0.0000
     22 C12        1.6369   -1.0193    8.1979 C.3       1 RES1    0.0000
     23 H11        2.0655   -0.3383    8.7574 H         1 RES1    0.0000
     24 H12        1.4162   -1.8006    8.7458 H         1 RES1    0.0000
     25 H13        0.8167   -0.6517    7.8075 H         1 RES1    0.0000
     26 C1A        3.9197    5.1958    2.8270 C.ar      1 RES1    0.0000
     27 H1A        3.3942    5.9859    2.7783 H         1 RES1    0.0000
     28 C2A        5.0867    5.1116    2.0619 C.ar      1 RES1    0.0000
     29 C3A        5.8342    3.9351    2.1368 C.ar      1 RES1    0.0000
     30 H2A        6.6286    3.8607    1.6221 H         1 RES1    0.0000
     31 C4A        5.4477    2.8619    2.9481 C.ar      1 RES1    0.0000
     32 C5A        4.2755    2.9705    3.7312 C.ar      1 RES1    0.0000
     33 C6A        3.5016    4.1558    3.6605 C.ar      1 RES1    0.0000
     34 C7A        6.2133    1.6495    3.0332 C.ar      1 RES1    0.0000
     35 H3A        6.9998    1.5574    2.5079 H         1 RES1    0.0000
     36 C8A        2.3200    4.2438    4.4701 C.ar      1 RES1    0.0000
     37 H4A        1.7904    5.0317    4.4336 H         1 RES1    0.0000
     38 C9A        5.5602    6.3153    1.2428 C.3       1 RES1    0.0000
     39 C10A       6.2947    7.2718    2.1961 C.3       1 RES1    0.0000
     40 H5A        7.0683    6.8142    2.5861 H         1 RES1    0.0000
     41 H6A        6.5981    8.0596    1.6986 H         1 RES1    0.0000
     42 H7A        5.6857    7.5516    2.9114 H         1 RES1    0.0000
     43 C11A       4.3737    7.0517    0.6052 C.3       1 RES1    0.0000
     44 H8A        3.8549    6.4244    0.0591 H         1 RES1    0.0000
     45 H9A        3.8020    7.4213    1.3101 H         1 RES1    0.0000
     46 H10A       4.7065    7.7793    0.0391 H         1 RES1    0.0000
     47 C12A       6.5184    5.8984    0.1203 C.3       1 RES1    0.0000
     48 H11A       6.0898    5.2173   -0.4392 H         1 RES1    0.0000
     49 H12A       6.7391    6.6797   -0.4276 H         1 RES1    0.0000
     50 H13A       7.3386    5.5308    0.5107 H         1 RES1    0.0000
@<TRIPOS>BOND
     1    1    2 1
     2    3    1 ar
     3    4    3 ar
     4    5    4 1
     5    6    4 ar
     6    7    6 ar
     7    8    1 ar
     8    9    6 ar
     9   10    9 1
    10   11    8 ar
    11   12   11 1
    12   13    3 1
    13   14   13 1
    14   15   14 1
    15   16   14 1
    16   17   14 1
    17   18   13 1
    18   19   18 1
    19   20   18 1
    20   21   18 1
    21   22   13 1
    22   23   22 1
    23   24   22 1
    24   25   22 1
    25   26   27 1
    26   28   26 ar
    27   29   28 ar
    28   30   29 1
    29   31   29 ar
    30   32    7 ar
    31   33   26 ar
    32   34   11 ar
    33   35   34 1
    34   36    9 ar
    35   37   36 1
    36   38   28 1
    37   39   38 1
    38   40   39 1
    39   41   39 1
    40   42   39 1
    41   43   38 1
    42   44   43 1
    43   45   43 1
    44   46   43 1
    45   47   38 1
    46   48   47 1
    47   49   47 1
    48   50   47 1
    49    7    8 ar
    50   31   32 ar
    51   31   34 ar
    52   32   33 ar
    53   33   36 ar
@<TRIPOS>SUBSTRUCTURE
     1 RES1 1

@<TRIPOS>CRYSIN
   6.0637    8.8976    9.1392 109.3610  97.6870 108.0010   2 1

