# MOL2 file generated by ConQuest
# Please check atom types

@<TRIPOS>MOLECULE
BZPHAN01
    30    33     1
SMALL
NO_CHARGES
****
Generated from CSD

@<TRIPOS>ATOM
      1 C1         5.3064    1.9285    0.8938 C.ar      1 RES1    0.0000
      2 C2         5.9625    1.0524    0.0447 C.ar      1 RES1    0.0000
      3 C3         5.3758    0.6498   -1.1542 C.ar      1 RES1    0.0000
      4 C4         4.1041    1.0566   -1.4541 C.ar      1 RES1    0.0000
      5 C5         2.0044    2.1742   -0.8045 C.ar      1 RES1    0.0000
      6 C6         1.2847    2.8851    0.0858 C.ar      1 RES1    0.0000
      7 C7         1.1156    4.2763    2.1153 C.ar      1 RES1    0.0000
      8 C8         1.6648    4.9038    3.1842 C.ar      1 RES1    0.0000
      9 C9         3.6532    5.6772    4.3929 C.ar      1 RES1    0.0000
     10 C10        5.0217    5.8188    4.5008 C.ar      1 RES1    0.0000
     11 C11        5.8440    5.2495    3.5131 C.ar      1 RES1    0.0000
     12 C12        5.3035    4.5012    2.5108 C.ar      1 RES1    0.0000
     13 C13        4.0232    2.4422    0.5754 C.ar      1 RES1    0.0000
     14 C14        3.3902    1.9049   -0.5765 C.ar      1 RES1    0.0000
     15 C15        1.9061    3.5140    1.2000 C.ar      1 RES1    0.0000
     16 C16        3.2977    3.3932    1.4024 C.ar      1 RES1    0.0000
     17 C17        3.9148    4.2360    2.4244 C.ar      1 RES1    0.0000
     18 C18        3.0838    4.9247    3.3478 C.ar      1 RES1    0.0000
     19 H1         5.7659    2.2214    1.7864 H         1 RES1    0.0000
     20 H2         3.6561    0.7359   -2.3374 H         1 RES1    0.0000
     21 H3         6.9076    0.6942    0.3016 H         1 RES1    0.0000
     22 H4         5.8960    0.0417   -1.8154 H         1 RES1    0.0000
     23 H5         1.5463    1.8188   -1.6704 H         1 RES1    0.0000
     24 H6         0.2601    2.9712   -0.0406 H         1 RES1    0.0000
     25 H7         0.0867    4.3457    1.9604 H         1 RES1    0.0000
     26 H8         1.0549    5.3731    3.8802 H         1 RES1    0.0000
     27 H9         3.0347    6.1367    5.0924 H         1 RES1    0.0000
     28 H10        5.4336    6.3450    5.3012 H         1 RES1    0.0000
     29 H11        6.8642    5.4009    3.5496 H         1 RES1    0.0000
     30 H12        5.9394    4.1097    1.7806 H         1 RES1    0.0000
@<TRIPOS>BOND
     1    1    2 ar
     2    2    3 ar
     3    3    4 ar
     4    4   14 ar
     5    5    6 ar
     6    6   15 ar
     7    7    8 ar
     8    8   18 ar
     9    9   10 ar
    10   10   11 ar
    11   11   12 ar
    12   12   17 ar
    13   13    1 ar
    14   14    5 ar
    15   15    7 ar
    16   16   13 ar
    17   17   16 ar
    18   18    9 ar
    19   19    1 1
    20   20    4 1
    21   21    2 1
    22   22    3 1
    23   23    5 1
    24   24    6 1
    25   25    7 1
    26   26    8 1
    27   27    9 1
    28   28   10 1
    29   29   11 1
    30   30   12 1
    31   13   14 ar
    32   15   16 ar
    33   17   18 ar
@<TRIPOS>SUBSTRUCTURE
     1 RES1 1

@<TRIPOS>CRYSIN
  14.4510   13.8840    5.8000  90.0000  90.0000  90.0000  19 1

