# MOL2 file generated by ConQuest
# Please check atom types

@<TRIPOS>MOLECULE
CARREU
    90   101     1
SMALL
NO_CHARGES
****
Generated from CSD

@<TRIPOS>ATOM
      1 C1         2.1908    5.3299    9.5064 C.ar      1 RES1    0.0000
      2 C2         3.0617    5.0670   10.6076 C.ar      1 RES1    0.0000
      3 H1         3.7019    4.3971   10.5281 H         1 RES1    0.0000
      4 C3         2.9810    5.7652   11.7597 C.ar      1 RES1    0.0000
      5 H2         3.5428    5.5524   12.4694 H         1 RES1    0.0000
      6 C4         2.0504    6.8134   11.8919 C.ar      1 RES1    0.0000
      7 H3         2.0154    7.3041   12.6826 H         1 RES1    0.0000
      8 C5         1.2097    7.1124   10.8817 C.ar      1 RES1    0.0000
      9 H4         0.6124    7.8175   10.9856 H         1 RES1    0.0000
     10 C6         1.2092    6.3789    9.6599 C.ar      1 RES1    0.0000
     11 C7         0.2808    6.6296    8.6457 C.ar      1 RES1    0.0000
     12 C8        -0.7565    7.6962    8.8269 C.ar      1 RES1    0.0000
     13 C9        -0.4868    9.0055    8.5284 C.ar      1 RES1    0.0000
     14 H5         0.3478    9.2365    8.1915 H         1 RES1    0.0000
     15 C10       -1.4403    9.9864    8.7234 C.ar      1 RES1    0.0000
     16 H6        -1.2444   10.8703    8.5091 H         1 RES1    0.0000
     17 C11       -2.6672    9.6668    9.2272 C.ar      1 RES1    0.0000
     18 H7        -3.2989   10.3308    9.3798 H         1 RES1    0.0000
     19 C12       -2.9547    8.3700    9.5022 C.ar      1 RES1    0.0000
     20 H8        -3.7953    8.1398    9.8284 H         1 RES1    0.0000
     21 C13       -1.9999    7.3898    9.2989 C.ar      1 RES1    0.0000
     22 H9        -2.2104    6.5043    9.4886 H         1 RES1    0.0000
     23 C14        0.3026    5.8631    7.4605 C.ar      1 RES1    0.0000
     24 C15       -0.6323    6.0589    6.4319 C.ar      1 RES1    0.0000
     25 H10       -1.2752    6.7222    6.5390 H         1 RES1    0.0000
     26 C16       -0.6425    5.3074    5.2609 C.ar      1 RES1    0.0000
     27 C17       -1.5611    5.5503    4.1746 C.ar      1 RES1    0.0000
     28 C18       -2.5837    6.6207    4.4078 C.ar      1 RES1    0.0000
     29 C19       -2.2478    7.9526    4.5948 C.ar      1 RES1    0.0000
     30 H11       -1.3682    8.2300    4.4756 H         1 RES1    0.0000
     31 C20       -3.2214    8.8742    4.9589 C.ar      1 RES1    0.0000
     32 H12       -2.9918    9.7676    5.0797 H         1 RES1    0.0000
     33 C21       -4.5213    8.4701    5.1390 C.ar      1 RES1    0.0000
     34 H13       -5.1636    9.0837    5.4129 H         1 RES1    0.0000
     35 C22       -4.8733    7.1701    4.9171 C.ar      1 RES1    0.0000
     36 H14       -5.7599    6.9045    5.0086 H         1 RES1    0.0000
     37 C23       -3.9094    6.2515    4.5560 C.ar      1 RES1    0.0000
     38 H15       -4.1550    5.3677    4.4089 H         1 RES1    0.0000
     39 C24       -1.5445    4.7405    3.0538 C.ar      1 RES1    0.0000
     40 C25       -2.2351    5.1017    1.7907 C.ar      1 RES1    0.0000
     41 C26       -2.6106    6.4069    1.4895 C.ar      1 RES1    0.0000
     42 H16       -2.4313    7.0831    2.1034 H         1 RES1    0.0000
     43 C27       -3.2487    6.7274    0.2972 C.ar      1 RES1    0.0000
     44 H17       -3.4918    7.6074    0.1222 H         1 RES1    0.0000
     45 C28       -3.5184    5.7572   -0.6148 C.ar      1 RES1    0.0000
     46 H18       -3.9804    5.9743   -1.3926 H         1 RES1    0.0000
     47 C29       -3.1142    4.4497   -0.4031 C.ar      1 RES1    0.0000
     48 C30       -2.4332    4.1152    0.7987 C.ar      1 RES1    0.0000
     49 C31       -3.3799    3.4235   -1.3569 C.ar      1 RES1    0.0000
     50 H19       -3.8310    3.6379   -2.1412 H         1 RES1    0.0000
     51 C32       -2.9983    2.1645   -1.1512 C.ar      1 RES1    0.0000
     52 H20       -3.2016    1.5196   -1.7902 H         1 RES1    0.0000
     53 C33       -2.2808    1.7782    0.0295 C.ar      1 RES1    0.0000
     54 C34       -1.9042    0.4581    0.2639 C.ar      1 RES1    0.0000
     55 H21       -2.1039   -0.1962   -0.3665 H         1 RES1    0.0000
     56 C35       -1.2475    0.1164    1.4024 C.ar      1 RES1    0.0000
     57 H22       -1.0494   -0.7763    1.5726 H         1 RES1    0.0000
     58 C36       -0.8717    1.0940    2.3162 C.ar      1 RES1    0.0000
     59 H23       -0.4081    0.8428    3.0829 H         1 RES1    0.0000
     60 C37       -1.1695    2.4394    2.1161 C.ar      1 RES1    0.0000
     61 C38       -1.9570    2.7770    0.9891 C.ar      1 RES1    0.0000
     62 C39       -0.7887    3.4928    3.0840 C.ar      1 RES1    0.0000
     63 C40        0.1995    3.3196    4.0364 C.ar      1 RES1    0.0000
     64 C41        1.2144    2.2234    4.0098 C.ar      1 RES1    0.0000
     65 C42        2.2036    2.2218    3.0487 C.ar      1 RES1    0.0000
     66 H24        2.1936    2.8698    2.3810 H         1 RES1    0.0000
     67 C43        3.1998    1.2813    3.0609 C.ar      1 RES1    0.0000
     68 H25        3.8572    1.2964    2.4032 H         1 RES1    0.0000
     69 C44        3.2350    0.3273    4.0291 C.ar      1 RES1    0.0000
     70 H26        3.9157   -0.3075    4.0313 H         1 RES1    0.0000
     71 C45        2.2692    0.2982    4.9997 C.ar      1 RES1    0.0000
     72 H27        2.2897   -0.3580    5.6572 H         1 RES1    0.0000
     73 C46        1.2591    1.2502    5.0000 C.ar      1 RES1    0.0000
     74 H28        0.6092    1.2360    5.6661 H         1 RES1    0.0000
     75 C47        0.3250    4.2494    5.1195 C.ar      1 RES1    0.0000
     76 C48        1.2889    4.0948    6.1125 C.ar      1 RES1    0.0000
     77 H29        1.9509    3.4539    5.9881 H         1 RES1    0.0000
     78 C49        1.3134    4.8538    7.2857 C.ar      1 RES1    0.0000
     79 C50        2.2638    4.6070    8.3143 C.ar      1 RES1    0.0000
     80 C51        3.2964    3.5460    8.0962 C.ar      1 RES1    0.0000
     81 C52        4.3303    3.7356    7.2044 C.ar      1 RES1    0.0000
     82 H30        4.4208    4.5574    6.7788 H         1 RES1    0.0000
     83 C53        5.2313    2.7276    6.9328 C.ar      1 RES1    0.0000
     84 H31        5.9161    2.8738    6.3191 H         1 RES1    0.0000
     85 C54        5.1267    1.5235    7.5538 C.ar      1 RES1    0.0000
     86 H32        5.7274    0.8400    7.3563 H         1 RES1    0.0000
     87 C55        4.1338    1.3259    8.4682 C.ar      1 RES1    0.0000
     88 H33        4.0729    0.5135    8.9156 H         1 RES1    0.0000
     89 C56        3.2216    2.3249    8.7312 C.ar      1 RES1    0.0000
     90 H34        2.5428    2.1728    9.3487 H         1 RES1    0.0000
@<TRIPOS>BOND
     1    1    2 ar
     2    2    3 1
     3    4    2 ar
     4    5    4 1
     5    6    4 ar
     6    7    6 1
     7    8    6 ar
     8    9    8 1
     9   10    1 ar
    10   11   10 ar
    11   12   11 1
    12   13   12 ar
    13   14   13 1
    14   15   13 ar
    15   16   15 1
    16   17   15 ar
    17   18   17 1
    18   19   17 ar
    19   20   19 1
    20   21   12 ar
    21   22   21 1
    22   23   11 ar
    23   24   23 ar
    24   25   24 1
    25   26   24 ar
    26   27   26 ar
    27   28   27 1
    28   29   28 ar
    29   30   29 1
    30   31   29 ar
    31   32   31 1
    32   33   31 ar
    33   34   33 1
    34   35   33 ar
    35   36   35 1
    36   37   28 ar
    37   38   37 1
    38   39   27 ar
    39   40   39 ar
    40   41   40 ar
    41   42   41 1
    42   43   41 ar
    43   44   43 1
    44   45   43 ar
    45   46   45 1
    46   47   45 ar
    47   48   40 ar
    48   49   47 ar
    49   50   49 1
    50   51   49 ar
    51   52   51 1
    52   53   51 ar
    53   54   53 ar
    54   55   54 1
    55   56   54 ar
    56   57   56 1
    57   58   56 ar
    58   59   58 1
    59   60   58 ar
    60   61   48 ar
    61   62   39 ar
    62   63   62 ar
    63   64   63 1
    64   65   64 ar
    65   66   65 1
    66   67   65 ar
    67   68   67 1
    68   69   67 ar
    69   70   69 1
    70   71   69 ar
    71   72   71 1
    72   73   64 ar
    73   74   73 1
    74   75   26 ar
    75   76   75 ar
    76   77   76 1
    77   78   23 ar
    78   79    1 ar
    79   80   79 1
    80   81   80 ar
    81   82   81 1
    82   83   81 ar
    83   84   83 1
    84   85   83 ar
    85   86   85 1
    86   87   85 ar
    87   88   87 1
    88   89   80 ar
    89   90   89 1
    90    8   10 ar
    91   19   21 ar
    92   35   37 ar
    93   47   48 ar
    94   53   61 ar
    95   60   61 ar
    96   60   62 ar
    97   63   75 ar
    98   71   73 ar
    99   76   78 ar
   100   78   79 ar
   101   87   89 ar
@<TRIPOS>SUBSTRUCTURE
     1 RES1 1

@<TRIPOS>CRYSIN
   7.7160   11.1718   22.5538  92.1100  99.1010 102.1270   2 1

