# MOL2 file generated by ConQuest
# Please check atom types

@<TRIPOS>MOLECULE
CAZHIX
    52    61     1
SMALL
NO_CHARGES
****
Generated from CSD

@<TRIPOS>ATOM
      1 C1         6.9389    1.8076    6.5918 C.3       1 RES1    0.0000
      2 H1         7.6385    1.2842    6.1490 H         1 RES1    0.0000
      3 H2         6.9450    1.6134    7.5519 H         1 RES1    0.0000
      4 H3         7.1070    2.7625    6.4508 H         1 RES1    0.0000
      5 C2         5.5927    1.4413    6.0115 C.ar      1 RES1    0.0000
      6 C3         4.5069    1.0938    6.9138 C.ar      1 RES1    0.0000
      7 C4         4.3685    1.5734    8.2911 C.ar      1 RES1    0.0000
      8 H4         5.1382    1.8235    8.7877 H         1 RES1    0.0000
      9 C5         3.1136    1.6613    8.8679 C.ar      1 RES1    0.0000
     10 C6         2.5417    2.4718    9.9787 C.ar      1 RES1    0.0000
     11 C7         3.1358    3.0653   11.0794 C.ar      1 RES1    0.0000
     12 H5         4.0673    2.9695   11.2365 H         1 RES1    0.0000
     13 C8         2.3336    3.8149   11.9627 C.ar      1 RES1    0.0000
     14 H6         2.7256    4.2097   12.7332 H         1 RES1    0.0000
     15 C9         0.9826    3.9819   11.7206 C.ar      1 RES1    0.0000
     16 H7         0.4602    4.4989   12.3221 H         1 RES1    0.0000
     17 C10        0.3728    3.3994   10.6008 C.ar      1 RES1    0.0000
     18 H8        -0.5539    3.5280   10.4359 H         1 RES1    0.0000
     19 C11        1.1357    2.6374    9.7421 C.ar      1 RES1    0.0000
     20 C12        0.7773    1.9420    8.4763 C.ar      1 RES1    0.0000
     21 C13       -0.2177    2.1337    7.5234 C.ar      1 RES1    0.0000
     22 H9        -1.0200    2.5843    7.7587 H         1 RES1    0.0000
     23 C14       -0.0283    1.6426    6.1657 C.ar      1 RES1    0.0000
     24 C15       -0.6123    2.2844    4.9993 C.ar      1 RES1    0.0000
     25 H10       -1.4402    2.7441    5.0767 H         1 RES1    0.0000
     26 C16        0.0339    2.2287    3.7739 C.ar      1 RES1    0.0000
     27 C17       -0.0003    3.0997    2.5739 C.ar      1 RES1    0.0000
     28 C18       -0.9758    3.9476    2.1011 C.ar      1 RES1    0.0000
     29 H11       -1.8154    4.0099    2.5414 H         1 RES1    0.0000
     30 C19       -0.7101    4.7227    0.9555 C.ar      1 RES1    0.0000
     31 H12       -1.3781    5.3092    0.6191 H         1 RES1    0.0000
     32 C20        0.5198    4.6388    0.3105 C.ar      1 RES1    0.0000
     33 H13        0.6792    5.1598   -0.4676 H         1 RES1    0.0000
     34 C21        1.5193    3.7973    0.7934 C.ar      1 RES1    0.0000
     35 H14        2.3621    3.7582    0.3570 H         1 RES1    0.0000
     36 C22        1.2762    3.0158    1.9170 C.ar      1 RES1    0.0000
     37 C23        2.1505    2.0896    2.6806 C.ar      1 RES1    0.0000
     38 C24        3.5208    1.9739    2.8596 C.ar      1 RES1    0.0000
     39 H15        4.1118    2.3222    2.2023 H         1 RES1    0.0000
     40 C25        4.0665    1.3191    4.0534 C.ar      1 RES1    0.0000
     41 C26        5.3781    1.5587    4.6300 C.ar      1 RES1    0.0000
     42 C27        6.4916    2.0865    3.7532 C.3       1 RES1    0.0000
     43 H16        6.6999    3.0086    4.0104 H         1 RES1    0.0000
     44 H17        6.2080    2.0641    2.8154 H         1 RES1    0.0000
     45 H18        7.2888    1.5279    3.8661 H         1 RES1    0.0000
     46 C28        3.3779    0.5655    6.2969 C.ar      1 RES1    0.0000
     47 C29        2.0971    0.6318    6.9186 C.ar      1 RES1    0.0000
     48 C30        1.9642    1.2367    8.1249 C.ar      1 RES1    0.0000
     49 C31        1.0845    0.8180    5.9452 C.ar      1 RES1    0.0000
     50 C32        1.7517    0.7801    4.6897 C.ar      1 RES1    0.0000
     51 C33        1.2730    1.5228    3.6618 C.ar      1 RES1    0.0000
     52 C34        3.1647    0.6719    4.8925 C.ar      1 RES1    0.0000
@<TRIPOS>BOND
     1    1    2 1
     2    3    1 1
     3    4    1 1
     4    5    1 1
     5    6    5 ar
     6    7    6 ar
     7    8    7 1
     8    9    7 ar
     9   10    9 ar
    10   11   10 ar
    11   12   11 1
    12   13   11 ar
    13   14   13 1
    14   15   13 ar
    15   16   15 1
    16   17   15 ar
    17   18   17 1
    18   19   10 ar
    19   20   19 ar
    20   21   20 ar
    21   22   21 1
    22   23   21 ar
    23   24   23 ar
    24   25   24 1
    25   26   24 ar
    26   27   26 ar
    27   28   27 ar
    28   29   28 1
    29   30   28 ar
    30   31   30 1
    31   32   30 ar
    32   33   32 1
    33   34   32 ar
    34   35   34 1
    35   36   27 ar
    36   37   36 ar
    37   38   37 ar
    38   39   38 1
    39   40   38 ar
    40   41    5 ar
    41   42   41 1
    42   43   42 1
    43   44   42 1
    44   45   42 1
    45   46    6 ar
    46   47   46 ar
    47   48    9 ar
    48   49   23 ar
    49   50   49 ar
    50   51   26 ar
    51   52   40 ar
    52   17   19 ar
    53   20   48 ar
    54   34   36 ar
    55   37   51 ar
    56   40   41 ar
    57   46   52 ar
    58   47   48 ar
    59   47   49 ar
    60   50   51 ar
    61   50   52 ar
@<TRIPOS>SUBSTRUCTURE
     1 RES1 1

@<TRIPOS>CRYSIN
  10.7430    7.9910   12.7720  90.0000 109.7390  90.0000   4 1

