# MOL2 file generated by ConQuest
# Please check atom types

@<TRIPOS>MOLECULE
CAZTAB
    58    67     1
SMALL
NO_CHARGES
****
Generated from CSD

@<TRIPOS>ATOM
      1 C1         3.7449    8.5485    5.4347 C.ar      1 RES1    0.0000
      2 C2         4.0787    7.2300    5.7524 C.ar      1 RES1    0.0000
      3 H1         4.4229    6.6879    5.0533 H         1 RES1    0.0000
      4 C3         3.9471    6.6313    7.0341 C.ar      1 RES1    0.0000
      5 H2         4.2601    5.7485    7.1913 H         1 RES1    0.0000
      6 C4         3.3583    7.3553    8.0374 C.ar      1 RES1    0.0000
      7 C5         3.0742    7.2151    9.5231 C.ar      1 RES1    0.0000
      8 C6         3.4951    6.4428   10.6023 C.ar      1 RES1    0.0000
      9 H3         3.9144    5.6041   10.4522 H         1 RES1    0.0000
     10 C7         3.2891    6.9296   11.9783 C.ar      1 RES1    0.0000
     11 C8         3.8489    6.4375   13.2218 C.ar      1 RES1    0.0000
     12 H4         4.2623    5.5817   13.2401 H         1 RES1    0.0000
     13 C9         3.7939    7.1868   14.3849 C.ar      1 RES1    0.0000
     14 H5         4.1315    6.7987   15.1837 H         1 RES1    0.0000
     15 C10        3.2475    8.5384   14.4527 C.ar      1 RES1    0.0000
     16 C11        3.3315    9.5239   15.4925 C.ar      1 RES1    0.0000
     17 C12        2.9791   10.8382   15.1589 C.ar      1 RES1    0.0000
     18 H6         3.0415   11.4943   15.8445 H         1 RES1    0.0000
     19 C13        2.5390   11.2695   13.8856 C.ar      1 RES1    0.0000
     20 H7         2.3598   12.1883   13.7217 H         1 RES1    0.0000
     21 C14        2.3754   10.3408   12.8922 C.ar      1 RES1    0.0000
     22 C15        2.1219   10.3340   11.3927 C.ar      1 RES1    0.0000
     23 C16        2.1464   11.2315   10.3295 C.ar      1 RES1    0.0000
     24 H8         2.0505   12.1630   10.4889 H         1 RES1    0.0000
     25 C17        2.3211   10.7304    8.9601 C.ar      1 RES1    0.0000
     26 C18        2.6036   11.4464    7.7329 C.ar      1 RES1    0.0000
     27 H9         2.5248   12.3930    7.7268 H         1 RES1    0.0000
     28 C19        2.9835   10.8019    6.5734 C.ar      1 RES1    0.0000
     29 H10        3.0928   11.3218    5.7854 H         1 RES1    0.0000
     30 C20        3.2259    9.3726    6.4914 C.ar      1 RES1    0.0000
     31 C21        2.9694    8.6965    7.6752 C.ar      1 RES1    0.0000
     32 C22        2.4453    9.3615    8.7831 C.ar      1 RES1    0.0000
     33 C23        2.4252    8.4571    9.8352 C.ar      1 RES1    0.0000
     34 C24        2.2349    8.9315   11.0698 C.ar      1 RES1    0.0000
     35 C25        2.6557    8.1534   12.1370 C.ar      1 RES1    0.0000
     36 C26        2.7070    8.9897   13.2624 C.ar      1 RES1    0.0000
     37 C27        3.9374    9.0155    4.0323 C.ar      1 RES1    0.0000
     38 C28        4.5798   10.2153    3.7250 C.ar      1 RES1    0.0000
     39 H11        4.8787   10.7792    4.4292 H         1 RES1    0.0000
     40 C29        4.7902   10.6015    2.4027 C.ar      1 RES1    0.0000
     41 H12        5.2444   11.4129    2.2092 H         1 RES1    0.0000
     42 C30        4.3337    9.7938    1.3711 C.ar      1 RES1    0.0000
     43 H13        4.4668   10.0571    0.4686 H         1 RES1    0.0000
     44 C31        3.6802    8.5984    1.6577 C.ar      1 RES1    0.0000
     45 H14        3.3664    8.0479    0.9502 H         1 RES1    0.0000
     46 C32        3.4861    8.2095    2.9722 C.ar      1 RES1    0.0000
     47 H15        3.0438    7.3904    3.1594 H         1 RES1    0.0000
     48 C33        3.7434    9.1861   16.8762 C.ar      1 RES1    0.0000
     49 C34        3.3374    7.9784   17.4642 C.ar      1 RES1    0.0000
     50 H16        2.8289    7.3553   16.9589 H         1 RES1    0.0000
     51 C35        3.6727    7.6854   18.7794 C.ar      1 RES1    0.0000
     52 H17        3.3954    6.8632   19.1659 H         1 RES1    0.0000
     53 C36        4.4073    8.5826   19.5300 C.ar      1 RES1    0.0000
     54 H18        4.6437    8.3732   20.4249 H         1 RES1    0.0000
     55 C37        4.7998    9.7986   18.9675 C.ar      1 RES1    0.0000
     56 H19        5.2913   10.4245   19.4855 H         1 RES1    0.0000
     57 C38        4.4757   10.0930   17.6596 C.ar      1 RES1    0.0000
     58 H20        4.7523   10.9208   17.2828 H         1 RES1    0.0000
@<TRIPOS>BOND
     1    1    2 ar
     2    2    3 1
     3    4    2 ar
     4    5    4 1
     5    6    4 ar
     6    7    6 1
     7    8    7 ar
     8    9    8 1
     9   10    8 ar
    10   11   10 ar
    11   12   11 1
    12   13   11 ar
    13   14   13 1
    14   15   13 ar
    15   16   15 ar
    16   17   16 ar
    17   18   17 1
    18   19   17 ar
    19   20   19 1
    20   21   19 ar
    21   22   21 1
    22   23   22 ar
    23   24   23 1
    24   25   23 ar
    25   26   25 ar
    26   27   26 1
    27   28   26 ar
    28   29   28 1
    29   30    1 ar
    30   31    6 ar
    31   32   25 ar
    32   33    7 ar
    33   34   22 ar
    34   35   10 ar
    35   36   15 ar
    36   37    1 1
    37   38   37 ar
    38   39   38 1
    39   40   38 ar
    40   41   40 1
    41   42   40 ar
    42   43   42 1
    43   44   42 ar
    44   45   44 1
    45   46   37 ar
    46   47   46 1
    47   48   16 1
    48   49   48 ar
    49   50   49 1
    50   51   49 ar
    51   52   51 1
    52   53   51 ar
    53   54   53 1
    54   55   53 ar
    55   56   55 1
    56   57   48 ar
    57   58   57 1
    58   21   36 ar
    59   28   30 ar
    60   30   31 ar
    61   31   32 ar
    62   32   33 ar
    63   33   34 ar
    64   34   35 ar
    65   35   36 ar
    66   44   46 ar
    67   55   57 ar
@<TRIPOS>SUBSTRUCTURE
     1 RES1 1

@<TRIPOS>CRYSIN
   7.4347   14.0208   21.5954  90.0000  90.0000  90.0000  19 1

