# MOL2 file generated by ConQuest
# Please check atom types

@<TRIPOS>MOLECULE
CEBJUR
    64    73     1
SMALL
NO_CHARGES
****
Generated from CSD

@<TRIPOS>ATOM
      1 C1         6.6007    1.0047    6.5544 C.ar      1 RES1    0.0000
      2 C2         1.7771   -0.1108   10.0649 C.ar      1 RES1    0.0000
      3 C3         1.8711    0.2154    7.2351 C.ar      1 RES1    0.0000
      4 C4        -0.5429   -0.1326    7.1267 C.ar      1 RES1    0.0000
      5 H1        -1.3614   -0.3826    7.5375 H         1 RES1    0.0000
      6 C5         3.0666    0.2549    7.9753 C.ar      1 RES1    0.0000
      7 C6         2.9598    0.1967    9.3712 C.ar      1 RES1    0.0000
      8 C7         0.6252   -0.4401    9.3152 C.ar      1 RES1    0.0000
      9 C8         5.5454    0.4021   13.4464 C.ar      1 RES1    0.0000
     10 H2         6.3578    0.5700   13.9092 H         1 RES1    0.0000
     11 C9         4.1611    0.5547    9.9926 C.ar      1 RES1    0.0000
     12 C10        0.3065    0.3561   13.4399 C.ar      1 RES1    0.0000
     13 H3         1.0005    0.8353   13.8767 H         1 RES1    0.0000
     14 C11        0.6452   -0.1752    7.9092 C.ar      1 RES1    0.0000
     15 C12        3.2477   -0.2576   13.5060 C.ar      1 RES1    0.0000
     16 H4         2.5053   -0.5880   13.9993 H         1 RES1    0.0000
     17 C13        6.9000    0.4175    4.2243 C.ar      1 RES1    0.0000
     18 H5         7.4323    0.4240    3.4373 H         1 RES1    0.0000
     19 C14        5.1047    0.8560    8.9099 C.ar      1 RES1    0.0000
     20 C15       -1.8020   -0.9568   12.1698 C.ar      1 RES1    0.0000
     21 C16        1.7843    0.6540    5.8741 C.ar      1 RES1    0.0000
     22 H6         2.5729    0.9530    5.4361 H         1 RES1    0.0000
     23 C17        7.1595    1.4697    7.7902 C.ar      1 RES1    0.0000
     24 C18        1.8079   -0.0621   11.4836 C.ar      1 RES1    0.0000
     25 C19       -0.5895   -0.6758   11.4699 C.ar      1 RES1    0.0000
     26 C20        3.0647    0.0667   12.1326 C.ar      1 RES1    0.0000
     27 C21        5.6261   -0.1614    4.2048 C.ar      1 RES1    0.0000
     28 H7         5.3177   -0.5854    3.4123 H         1 RES1    0.0000
     29 C22       -2.8376   -1.6280   11.4989 C.ar      1 RES1    0.0000
     30 H8        -3.6523   -1.8044   11.9554 H         1 RES1    0.0000
     31 C23       -1.9419   -0.5279   13.5287 C.ar      1 RES1    0.0000
     32 C24        4.2543    0.4608   11.3918 C.ar      1 RES1    0.0000
     33 C25        7.3751    0.9691    5.3683 C.ar      1 RES1    0.0000
     34 H9         8.2491    1.3409    5.3736 H         1 RES1    0.0000
     35 C26       -1.5431   -1.6959    9.5001 C.ar      1 RES1    0.0000
     36 H10       -1.4583   -1.9842    8.5982 H         1 RES1    0.0000
     37 C27       -2.6919   -2.0302   10.2060 C.ar      1 RES1    0.0000
     38 H11       -3.3751   -2.5389    9.7865 H         1 RES1    0.0000
     39 C28        8.5398    2.0348    7.8342 C.3       1 RES1    0.0000
     40 H12        8.7391    2.3372    8.7458 H         1 RES1    0.0000
     41 H13        8.6009    2.7930    7.2173 H         1 RES1    0.0000
     42 H14        9.1843    1.3448    7.5700 H         1 RES1    0.0000
     43 C29        5.2641    0.5033    6.5041 C.ar      1 RES1    0.0000
     44 C30        4.4770    0.5635    7.6956 C.ar      1 RES1    0.0000
     45 C31        5.4595    0.6624   12.1168 C.ar      1 RES1    0.0000
     46 H15        6.2265    0.9883   11.6577 H         1 RES1    0.0000
     47 C32       -3.1976   -0.8039   14.2945 C.3       1 RES1    0.0000
     48 H16       -3.0821   -0.5175   15.2251 H         1 RES1    0.0000
     49 H17       -3.3901   -1.7645   14.2695 H         1 RES1    0.0000
     50 H18       -3.9413   -0.3109   13.8892 H         1 RES1    0.0000
     51 C33        6.4188    1.3382    8.9397 C.ar      1 RES1    0.0000
     52 H19        6.8069    1.5794    9.7715 H         1 RES1    0.0000
     53 C34        4.8230   -0.1273    5.3013 C.ar      1 RES1    0.0000
     54 H20        3.9619   -0.5259    5.2660 H         1 RES1    0.0000
     55 C35       -0.5158   -0.9576   10.0644 C.ar      1 RES1    0.0000
     56 C36        4.4376   -0.1146   14.1396 C.ar      1 RES1    0.0000
     57 H21        4.5234   -0.3638   15.0525 H         1 RES1    0.0000
     58 C37        0.5201   -0.1296   12.1666 C.ar      1 RES1    0.0000
     59 C38        0.6214    0.6559    5.1974 C.ar      1 RES1    0.0000
     60 H22        0.6021    0.9357    4.2903 H         1 RES1    0.0000
     61 C39       -0.9127    0.1572   14.1026 C.ar      1 RES1    0.0000
     62 H23       -1.0255    0.5102   14.9774 H         1 RES1    0.0000
     63 C40       -0.5671    0.2450    5.8291 C.ar      1 RES1    0.0000
     64 H24       -1.3851    0.2335    5.3460 H         1 RES1    0.0000
@<TRIPOS>BOND
     1    1   23 ar
     2    2    7 ar
     3    3    6 ar
     4    4    5 1
     5    6    7 ar
     6    7   11 ar
     7    8    2 ar
     8    9   10 1
     9   11   19 1
    10   12   13 1
    11   14    3 ar
    12   15   16 1
    13   17   18 1
    14   19   44 ar
    15   20   25 ar
    16   21    3 ar
    17   22   21 1
    18   23   39 1
    19   24    2 ar
    20   25   55 ar
    21   26   15 ar
    22   27   17 ar
    23   28   27 1
    24   29   20 ar
    25   30   29 1
    26   31   20 ar
    27   32   11 ar
    28   33    1 ar
    29   34   33 1
    30   35   36 1
    31   37   29 ar
    32   38   37 1
    33   39   40 1
    34   41   39 1
    35   42   39 1
    36   43    1 ar
    37   44    6 1
    38   45    9 ar
    39   46   45 1
    40   47   31 1
    41   48   47 1
    42   49   47 1
    43   50   47 1
    44   51   19 ar
    45   52   51 1
    46   53   27 ar
    47   54   53 1
    48   55    8 ar
    49   56    9 ar
    50   57   56 1
    51   58   12 ar
    52   59   21 ar
    53   60   59 1
    54   61   12 ar
    55   62   61 1
    56   63    4 ar
    57   64   63 1
    58    4   14 ar
    59    8   14 ar
    60   15   56 ar
    61   17   33 ar
    62   23   51 ar
    63   24   26 ar
    64   24   58 ar
    65   25   58 ar
    66   26   32 ar
    67   31   61 ar
    68   32   45 ar
    69   35   37 ar
    70   35   55 ar
    71   43   44 ar
    72   43   53 ar
    73   59   63 ar
@<TRIPOS>SUBSTRUCTURE
     1 RES1 1

@<TRIPOS>CRYSIN
  24.1660    3.8334   26.7680  90.0000 110.8410  90.0000  14 1

