# MOL2 file generated by ConQuest
# Please check atom types

@<TRIPOS>MOLECULE
CEGCAS
    42    49     1
SMALL
NO_CHARGES
****
Generated from CSD

@<TRIPOS>ATOM
      1 C1        -0.2721    1.2387    2.7403 C.ar      1 RES1    0.0000
      2 C2        -0.2721    2.6769    2.7403 C.ar      1 RES1    0.0000
      3 C3         0.2474    3.4024    1.6398 C.ar      1 RES1    0.0000
      4 C4         0.9147    2.7854    0.6610 C.ar      1 RES1    0.0000
      5 C5         1.2474    1.4183    0.8078 C.ar      1 RES1    0.0000
      6 C6         2.3727    0.9891    0.0471 C.ar      1 RES1    0.0000
      7 C7         2.9905   -0.1540    0.3990 C.ar      1 RES1    0.0000
      8 C8         2.3996   -1.0463    1.3208 C.ar      1 RES1    0.0000
      9 C9         3.0857   -2.2570    1.5652 C.ar      1 RES1    0.0000
     10 C10        2.4600   -3.2799    2.1648 C.ar      1 RES1    0.0000
     11 C11        1.0981   -3.1761    2.4969 C.ar      1 RES1    0.0000
     12 C12        0.4209   -1.9059    2.5057 C.ar      1 RES1    0.0000
     13 C13        1.1173   -0.7792    1.9204 C.ar      1 RES1    0.0000
     14 C14        0.6360    0.5949    1.8053 C.ar      1 RES1    0.0000
     15 C15        0.3910   -4.3868    2.6888 C.ar      1 RES1    0.0000
     16 H1         0.0923    4.4090    1.5784 H         1 RES1    0.0000
     17 H2         1.2243    3.3009   -0.1863 H         1 RES1    0.0000
     18 H3         2.6919    1.5746   -0.7125 H         1 RES1    0.0000
     19 H4         3.9056   -0.3849    0.0000 H         1 RES1    0.0000
     20 H5         4.0677   -2.3328    1.2715 H         1 RES1    0.0000
     21 H6         2.9639   -4.1407    2.3566 H         1 RES1    0.0000
     22 H7         0.9228   -5.2605    2.7184 H         1 RES1    0.0000
     23 C14B      -1.1801    0.5949    3.6753 C.ar      1 RES1    0.0000
     24 C3B       -0.7915    3.4024    3.8408 C.ar      1 RES1    0.0000
     25 C12B      -0.9651   -1.9059    2.9748 C.ar      1 RES1    0.0000
     26 C15B      -0.9351   -4.3868    2.7918 C.ar      1 RES1    0.0000
     27 C5B       -1.7916    1.4183    4.6727 C.ar      1 RES1    0.0000
     28 C13B      -1.6614   -0.7792    3.5602 C.ar      1 RES1    0.0000
     29 C4B       -1.4588    2.7854    4.8196 C.ar      1 RES1    0.0000
     30 H1B       -0.6364    4.4090    3.9022 H         1 RES1    0.0000
     31 C11B      -1.6422   -3.1761    2.9836 C.ar      1 RES1    0.0000
     32 H7B       -1.4669   -5.2605    2.7622 H         1 RES1    0.0000
     33 C6B       -2.9169    0.9891    5.4334 C.ar      1 RES1    0.0000
     34 C8B       -2.9438   -1.0463    4.1597 C.ar      1 RES1    0.0000
     35 H2B       -1.7684    3.3009    5.6669 H         1 RES1    0.0000
     36 C10B      -3.0041   -3.2799    3.3157 C.ar      1 RES1    0.0000
     37 C7B       -3.5346   -0.1540    5.0816 C.ar      1 RES1    0.0000
     38 H3B       -3.2361    1.5746    6.1930 H         1 RES1    0.0000
     39 C9B       -3.6298   -2.2570    3.9153 C.ar      1 RES1    0.0000
     40 H6B       -3.5080   -4.1407    3.1239 H         1 RES1    0.0000
     41 H4B       -4.4497   -0.3849    5.4806 H         1 RES1    0.0000
     42 H5B       -4.6118   -2.3328    4.2091 H         1 RES1    0.0000
@<TRIPOS>BOND
     1    1    2 ar
     2    2    3 ar
     3    3    4 ar
     4    4    5 ar
     5    5    6 ar
     6    6    7 ar
     7    7    8 ar
     8    8    9 ar
     9    9   10 ar
    10   10   11 ar
    11   11   12 ar
    12   12   13 ar
    13   13    8 ar
    14   14    1 ar
    15   15   11 ar
    16   16    3 1
    17   17    4 1
    18   18    6 1
    19   19    7 1
    20   20    9 1
    21   21   10 1
    22   22   15 1
    23   23    1 ar
    24   24    2 ar
    25   25   12 ar
    26   26   15 ar
    27   27   23 ar
    28   28   23 ar
    29   29   24 ar
    30   30   24 1
    31   31   25 ar
    32   32   26 1
    33   33   27 ar
    34   34   28 ar
    35   35   29 1
    36   36   31 ar
    37   37   33 ar
    38   38   33 1
    39   39   34 ar
    40   40   36 1
    41   41   37 1
    42   42   39 1
    43    5   14 ar
    44   13   14 ar
    45   25   28 ar
    46   26   31 ar
    47   27   29 ar
    48   34   37 ar
    49   36   39 ar
@<TRIPOS>SUBSTRUCTURE
     1 RES1 1

@<TRIPOS>CRYSIN
  13.1060   11.6640   11.0150  90.0000  95.6700  90.0000  15 1

