# MOL2 file generated by ConQuest
# Please check atom types

@<TRIPOS>MOLECULE
CEXQUT
    80    89     1
SMALL
NO_CHARGES
****
Generated from CSD

@<TRIPOS>ATOM
      1 C1         4.8021    2.5588    1.8069 C.ar      1 RES1    0.0000
      2 C2         4.1021    1.9893    2.8872 C.ar      1 RES1    0.0000
      3 C3         2.7943    2.4267    3.2289 C.ar      1 RES1    0.0000
      4 H1         2.3755    3.1058    2.7141 H         1 RES1    0.0000
      5 C4         2.1342    1.8816    4.2858 C.ar      1 RES1    0.0000
      6 H2         1.2673    2.1988    4.5119 H         1 RES1    0.0000
      7 C5         2.7132    0.8656    5.0411 C.ar      1 RES1    0.0000
      8 H3         2.2239    0.4936    5.7661 H         1 RES1    0.0000
      9 C6         3.9798    0.3793    4.7666 C.ar      1 RES1    0.0000
     10 C7         4.7129    0.9565    3.6840 C.ar      1 RES1    0.0000
     11 C8         6.0259    0.5248    3.3854 C.ar      1 RES1    0.0000
     12 C9         6.7421    1.1249    2.3225 C.ar      1 RES1    0.0000
     13 C10        8.0807    0.7078    2.0155 C.ar      1 RES1    0.0000
     14 C11        8.7546    1.3637    0.9987 C.ar      1 RES1    0.0000
     15 H4         9.6550    1.1219    0.8127 H         1 RES1    0.0000
     16 C12        8.1513    2.3708    0.2351 C.ar      1 RES1    0.0000
     17 H5         8.6418    2.7916   -0.4604 H         1 RES1    0.0000
     18 C13        6.8736    2.7498    0.4793 C.ar      1 RES1    0.0000
     19 H6         6.4744    3.4270   -0.0552 H         1 RES1    0.0000
     20 C14        6.1223    2.1488    1.5249 C.ar      1 RES1    0.0000
     21 C15        4.1463    3.5961    0.9488 C.ar      1 RES1    0.0000
     22 C16        3.5634    3.2241   -0.2759 C.ar      1 RES1    0.0000
     23 C17        2.9735    4.2021   -1.0660 C.ar      1 RES1    0.0000
     24 H7         2.5782    3.9489   -1.8923 H         1 RES1    0.0000
     25 C18        2.9422    5.5446   -0.6857 C.ar      1 RES1    0.0000
     26 C19        3.5116    5.8842    0.5300 C.ar      1 RES1    0.0000
     27 H8         3.4856    6.7902    0.8112 H         1 RES1    0.0000
     28 C20        4.1219    4.9404    1.3563 C.ar      1 RES1    0.0000
     29 C21        3.5764    1.7876   -0.7462 C.3       1 RES1    0.0000
     30 H9         2.9135    1.6722   -1.4591 H         1 RES1    0.0000
     31 H10        3.3569    1.1974    0.0038 H         1 RES1    0.0000
     32 H11        4.4666    1.5635   -1.0887 H         1 RES1    0.0000
     33 C22        2.3381    6.6185   -1.5725 C.3       1 RES1    0.0000
     34 H12        2.0585    7.3783   -1.0206 H         1 RES1    0.0000
     35 H13        1.5601    6.2540   -2.0435 H         1 RES1    0.0000
     36 H14        3.0049    6.9177   -2.2249 H         1 RES1    0.0000
     37 C23        4.7345    5.3733    2.6619 C.3       1 RES1    0.0000
     38 H15        5.0274    6.3060    2.5924 H         1 RES1    0.0000
     39 H16        5.5049    4.8039    2.8660 H         1 RES1    0.0000
     40 H17        4.0692    5.2928    3.3779 H         1 RES1    0.0000
     41 C1B        7.8651   -2.5588    5.7532 C.ar      1 RES1    0.0000
     42 C2B        8.5651   -1.9893    4.6729 C.ar      1 RES1    0.0000
     43 C3B        9.8729   -2.4267    4.3312 C.ar      1 RES1    0.0000
     44 H1B       10.2917   -3.1058    4.8460 H         1 RES1    0.0000
     45 C4B       10.5330   -1.8816    3.2743 C.ar      1 RES1    0.0000
     46 H2B       11.3999   -2.1988    3.0482 H         1 RES1    0.0000
     47 C5B        9.9540   -0.8656    2.5190 C.ar      1 RES1    0.0000
     48 H3B       10.4433   -0.4936    1.7940 H         1 RES1    0.0000
     49 C6B        8.6874   -0.3793    2.7935 C.ar      1 RES1    0.0000
     50 C7B        7.9542   -0.9565    3.8761 C.ar      1 RES1    0.0000
     51 C8B        6.6413   -0.5248    4.1747 C.ar      1 RES1    0.0000
     52 C9B        5.9251   -1.1249    5.2376 C.ar      1 RES1    0.0000
     53 C10B       4.5865   -0.7078    5.5446 C.ar      1 RES1    0.0000
     54 C11B       3.9126   -1.3637    6.5614 C.ar      1 RES1    0.0000
     55 H4B        3.0122   -1.1219    6.7474 H         1 RES1    0.0000
     56 C12B       4.5159   -2.3708    7.3250 C.ar      1 RES1    0.0000
     57 H5B        4.0254   -2.7916    8.0205 H         1 RES1    0.0000
     58 C13B       5.7936   -2.7498    7.0808 C.ar      1 RES1    0.0000
     59 H6B        6.1928   -3.4270    7.6153 H         1 RES1    0.0000
     60 C14B       6.5449   -2.1488    6.0352 C.ar      1 RES1    0.0000
     61 C15B       8.5209   -3.5961    6.6113 C.ar      1 RES1    0.0000
     62 C16B       9.1038   -3.2241    7.8360 C.ar      1 RES1    0.0000
     63 C17B       9.6937   -4.2021    8.6261 C.ar      1 RES1    0.0000
     64 H7B       10.0890   -3.9489    9.4524 H         1 RES1    0.0000
     65 C18B       9.7250   -5.5446    8.2458 C.ar      1 RES1    0.0000
     66 C19B       9.1556   -5.8842    7.0301 C.ar      1 RES1    0.0000
     67 H8B        9.1816   -6.7902    6.7489 H         1 RES1    0.0000
     68 C20B       8.5453   -4.9404    6.2038 C.ar      1 RES1    0.0000
     69 C21B       9.0908   -1.7876    8.3063 C.3       1 RES1    0.0000
     70 H9B        9.7537   -1.6722    9.0192 H         1 RES1    0.0000
     71 H10B       9.3103   -1.1974    7.5563 H         1 RES1    0.0000
     72 H11B       8.2006   -1.5635    8.6488 H         1 RES1    0.0000
     73 C22B      10.3291   -6.6185    9.1326 C.3       1 RES1    0.0000
     74 H12B      10.6087   -7.3783    8.5807 H         1 RES1    0.0000
     75 H13B      11.1071   -6.2540    9.6036 H         1 RES1    0.0000
     76 H14B       9.6623   -6.9177    9.7850 H         1 RES1    0.0000
     77 C23B       7.9327   -5.3733    4.8982 C.3       1 RES1    0.0000
     78 H15B       7.6397   -6.3060    4.9677 H         1 RES1    0.0000
     79 H16B       7.1623   -4.8039    4.6941 H         1 RES1    0.0000
     80 H17B       8.5980   -5.2928    4.1822 H         1 RES1    0.0000
@<TRIPOS>BOND
     1    1    2 ar
     2    2    3 ar
     3    3    4 1
     4    5    3 ar
     5    6    5 1
     6    7    5 ar
     7    8    7 1
     8    9    7 ar
     9   10    2 ar
    10   11   10 ar
    11   12   11 ar
    12   13   12 ar
    13   14   13 ar
    14   15   14 1
    15   16   14 ar
    16   17   16 1
    17   18   16 ar
    18   19   18 1
    19   20    1 ar
    20   21    1 1
    21   22   21 ar
    22   23   22 ar
    23   24   23 1
    24   25   23 ar
    25   26   25 ar
    26   27   26 1
    27   28   21 ar
    28   29   22 1
    29   30   29 1
    30   31   29 1
    31   32   29 1
    32   33   25 1
    33   34   33 1
    34   35   33 1
    35   36   33 1
    36   37   28 1
    37   38   37 1
    38   39   37 1
    39   40   37 1
    40   41   42 ar
    41   42   43 ar
    42   43   44 1
    43   45   43 ar
    44   46   45 1
    45   47   45 ar
    46   48   47 1
    47   49   13 ar
    48   50   42 ar
    49   51   11 ar
    50   52   51 ar
    51   53    9 ar
    52   54   53 ar
    53   55   54 1
    54   56   54 ar
    55   57   56 1
    56   58   56 ar
    57   59   58 1
    58   60   41 ar
    59   61   41 1
    60   62   61 ar
    61   63   62 ar
    62   64   63 1
    63   65   63 ar
    64   66   65 ar
    65   67   66 1
    66   68   61 ar
    67   69   62 1
    68   70   69 1
    69   71   69 1
    70   72   69 1
    71   73   65 1
    72   74   73 1
    73   75   73 1
    74   76   73 1
    75   77   68 1
    76   78   77 1
    77   79   77 1
    78   80   77 1
    79    9   10 ar
    80   12   20 ar
    81   18   20 ar
    82   26   28 ar
    83   47   49 ar
    84   49   50 ar
    85   50   51 ar
    86   52   53 ar
    87   52   60 ar
    88   58   60 ar
    89   66   68 ar
@<TRIPOS>SUBSTRUCTURE
     1 RES1 1

@<TRIPOS>CRYSIN
   8.6021   23.6180    8.8170  90.0000 120.9690  90.0000  14 1

