# MOL2 file generated by ConQuest
# Please check atom types

@<TRIPOS>MOLECULE
CIVMOJ10
    36    38     1
SMALL
NO_CHARGES
****
Generated from CSD

@<TRIPOS>ATOM
      1 C1         1.3833    1.0063    8.1401 C.ar      1 RES1    0.0000
      2 C2         0.8689    0.3860    9.2505 C.ar      1 RES1    0.0000
      3 C3        -0.3185   -0.3977    9.1708 C.ar      1 RES1    0.0000
      4 C4        -0.8928   -0.6128    7.9469 C.ar      1 RES1    0.0000
      5 C5        -0.3242   -0.0579    6.7535 C.ar      1 RES1    0.0000
      6 C6        -0.5699   -0.5783    3.0733 C.ar      1 RES1    0.0000
      7 C7         0.1251   -0.3019    1.9274 C.ar      1 RES1    0.0000
      8 C8         1.2829    0.5273    1.9986 C.ar      1 RES1    0.0000
      9 C9         1.6558    1.1104    3.1835 C.ar      1 RES1    0.0000
     10 C10        0.9338    0.8967    4.4108 C.ar      1 RES1    0.0000
     11 C11        1.2795    1.5005    5.6567 C.ar      1 RES1    0.0000
     12 C12        0.7881    0.8581    6.8383 C.ar      1 RES1    0.0000
     13 C13       -0.8302   -0.4280    5.5042 C.ar      1 RES1    0.0000
     14 C14       -0.1650   -0.0400    4.3396 C.ar      1 RES1    0.0000
     15 C15        2.0584    2.8494    5.7534 C.3       1 RES1    0.0000
     16 C16        1.8508    3.7503    4.5108 C.3       1 RES1    0.0000
     17 C17        3.5673    2.6385    5.9669 C.3       1 RES1    0.0000
     18 C18        1.4843    3.7214    6.9078 C.3       1 RES1    0.0000
     19 H1         2.3358    1.5178    8.2266 H         1 RES1    0.0000
     20 H2         1.4159    0.4756   10.1828 H         1 RES1    0.0000
     21 H3        -0.6849   -0.8568   10.0828 H         1 RES1    0.0000
     22 H4        -1.7714   -1.2393    7.8384 H         1 RES1    0.0000
     23 H5        -1.4437   -1.2207    3.0547 H         1 RES1    0.0000
     24 H6        -0.1703   -0.7589    0.9883 H         1 RES1    0.0000
     25 H7         1.8823    0.6279    1.1002 H         1 RES1    0.0000
     26 H8         2.5915    1.6611    3.1971 H         1 RES1    0.0000
     27 H9        -1.7059   -1.0684    5.4770 H         1 RES1    0.0000
     28 H10        0.8288    3.7655    4.1463 H         1 RES1    0.0000
     29 H11        2.1389    4.7670    4.7566 H         1 RES1    0.0000
     30 H12        2.4758    3.4539    3.6751 H         1 RES1    0.0000
     31 H13        3.9898    2.1388    5.0990 H         1 RES1    0.0000
     32 H14        3.8538    2.0885    6.8569 H         1 RES1    0.0000
     33 H15        4.1050    3.5801    6.0093 H         1 RES1    0.0000
     34 H16        1.9644    4.6926    6.8552 H         1 RES1    0.0000
     35 H17        0.4209    3.8689    6.7501 H         1 RES1    0.0000
     36 H18        1.6522    3.3436    7.9113 H         1 RES1    0.0000
@<TRIPOS>BOND
     1    1    2 ar
     2    2    3 ar
     3    3    4 ar
     4    4    5 ar
     5    5   12 ar
     6    6    7 ar
     7    7    8 ar
     8    8    9 ar
     9    9   10 ar
    10   10   11 ar
    11   11   12 ar
    12   12    1 ar
    13   13    5 ar
    14   14    6 ar
    15   15   11 1
    16   16   15 1
    17   17   15 1
    18   18   15 1
    19   19    1 1
    20   20    2 1
    21   21    3 1
    22   22    4 1
    23   23    6 1
    24   24    7 1
    25   25    8 1
    26   26    9 1
    27   27   13 1
    28   28   16 1
    29   29   16 1
    30   30   16 1
    31   31   17 1
    32   32   17 1
    33   33   17 1
    34   34   18 1
    35   35   18 1
    36   36   18 1
    37   10   14 ar
    38   13   14 ar
@<TRIPOS>SUBSTRUCTURE
     1 RES1 1

@<TRIPOS>CRYSIN
  11.1370    6.8927   17.7920  90.0000 107.6810  90.0000  14 1

