# MOL2 file generated by ConQuest
# Please check atom types

@<TRIPOS>MOLECULE
CIZCIY
    76    80     1
SMALL
NO_CHARGES
****
Generated from CSD

@<TRIPOS>ATOM
      1 C1         0.6610    2.9751    6.4149 C.ar      1 RES1    0.0000
      2 C2         1.3578    2.6548    5.2189 C.ar      1 RES1    0.0000
      3 C3         0.8630    3.0135    3.9523 C.ar      1 RES1    0.0000
      4 H1         0.0204    3.4474    3.8947 H         1 RES1    0.0000
      5 C4         1.5654    2.7541    2.7865 C.ar      1 RES1    0.0000
      6 C5         1.0822    3.1447    1.4979 C.ar      1 RES1    0.0000
      7 H2         0.2370    3.5720    1.4250 H         1 RES1    0.0000
      8 C6         1.8170    2.9115    0.3755 C.ar      1 RES1    0.0000
      9 H3         1.4878    3.1927   -0.4711 H         1 RES1    0.0000
     10 C7         3.0721    2.2528    0.4618 C.ar      1 RES1    0.0000
     11 H4         3.5726    2.0903   -0.3296 H         1 RES1    0.0000
     12 C8         3.5631    1.8534    1.6581 C.ar      1 RES1    0.0000
     13 H5         4.4028    1.4096    1.6936 H         1 RES1    0.0000
     14 C9         2.8421    2.0874    2.8697 C.ar      1 RES1    0.0000
     15 C10        3.3216    1.6974    4.1041 C.ar      1 RES1    0.0000
     16 H6         4.1533    1.2408    4.1490 H         1 RES1    0.0000
     17 C11        1.1711    2.5835    7.6788 C.ar      1 RES1    0.0000
     18 C12       -0.5587    3.7198    6.3398 C.1       1 RES1    0.0000
     19 C13       -1.5626    4.3608    6.2892 C.1       1 RES1    0.0000
     20 C14       -2.8095    5.1308    6.1720 C.3       1 RES1    0.0000
     21 H7        -2.7422    5.9410    6.7368 H         1 RES1    0.0000
     22 H8        -3.5596    4.5840    6.5149 H         1 RES1    0.0000
     23 C15       -3.1153    5.5498    4.7350 C.3       1 RES1    0.0000
     24 H9        -2.3853    6.1312    4.4047 H         1 RES1    0.0000
     25 H10       -3.1446    4.7436    4.1620 H         1 RES1    0.0000
     26 C16       -4.4341    6.2926    4.6159 C.3       1 RES1    0.0000
     27 H11       -5.1538    5.7322    5.0017 H         1 RES1    0.0000
     28 H12       -4.3826    7.1254    5.1483 H         1 RES1    0.0000
     29 C17       -4.8008    6.6452    3.1866 C.3       1 RES1    0.0000
     30 H13       -4.7820    5.8202    2.6397 H         1 RES1    0.0000
     31 H14       -4.1164    7.2624    2.8240 H         1 RES1    0.0000
     32 C18       -6.1692    7.2949    3.0492 C.3       1 RES1    0.0000
     33 H15       -6.1912    8.1191    3.5962 H         1 RES1    0.0000
     34 H16       -6.8562    6.6771    3.4054 H         1 RES1    0.0000
     35 C19       -6.5174    7.6469    1.6077 C.3       1 RES1    0.0000
     36 H17       -5.8658    8.2921    1.2628 H         1 RES1    0.0000
     37 H18       -7.4149    8.0389    1.5755 H         1 RES1    0.0000
     38 H19       -6.4956    6.8356    1.0590 H         1 RES1    0.0000
     39 C1A        3.1316    1.5604    6.5631 C.ar      1 RES1    0.0000
     40 C2A        2.4349    1.8808    7.7590 C.ar      1 RES1    0.0000
     41 C3A        2.9296    1.5220    9.0256 C.ar      1 RES1    0.0000
     42 H1A        3.7722    1.0882    9.0833 H         1 RES1    0.0000
     43 C4A        2.2272    1.7814   10.1914 C.ar      1 RES1    0.0000
     44 C5A        2.7104    1.3908   11.4800 C.ar      1 RES1    0.0000
     45 H2A        3.5556    0.9636   11.5530 H         1 RES1    0.0000
     46 C6A        1.9756    1.6240   12.6025 C.ar      1 RES1    0.0000
     47 H3A        2.3048    1.3428   13.4490 H         1 RES1    0.0000
     48 C7A        0.7205    2.2827   12.5162 C.ar      1 RES1    0.0000
     49 H4A        0.2200    2.4453   13.3076 H         1 RES1    0.0000
     50 C8A        0.2295    2.6822   11.3199 C.ar      1 RES1    0.0000
     51 H5A       -0.6101    3.1260   11.2843 H         1 RES1    0.0000
     52 C9A        0.9505    2.4482   10.1082 C.ar      1 RES1    0.0000
     53 C10A       0.4710    2.8382    8.8738 C.ar      1 RES1    0.0000
     54 H6A       -0.3607    3.2948    8.8289 H         1 RES1    0.0000
     55 C11A       2.6215    1.9521    5.2991 C.ar      1 RES1    0.0000
     56 C12A       4.3513    0.8157    6.6381 C.1       1 RES1    0.0000
     57 C13A       5.3553    0.1748    6.6887 C.1       1 RES1    0.0000
     58 C14A       6.6021   -0.5953    6.8059 C.3       1 RES1    0.0000
     59 H7A        6.5348   -1.4054    6.2411 H         1 RES1    0.0000
     60 H8A        7.3522   -0.0484    6.4630 H         1 RES1    0.0000
     61 C15A       6.9079   -1.0142    8.2429 C.3       1 RES1    0.0000
     62 H9A        6.1780   -1.5956    8.5732 H         1 RES1    0.0000
     63 H10A       6.9373   -0.2080    8.8159 H         1 RES1    0.0000
     64 C16A       8.2268   -1.7570    8.3621 C.3       1 RES1    0.0000
     65 H11A       8.9464   -1.1966    7.9762 H         1 RES1    0.0000
     66 H12A       8.1753   -2.5898    7.8296 H         1 RES1    0.0000
     67 C17A       8.5934   -2.1097    9.7913 C.3       1 RES1    0.0000
     68 H13A       8.5746   -1.2847   10.3382 H         1 RES1    0.0000
     69 H14A       7.9090   -2.7269   10.1539 H         1 RES1    0.0000
     70 C18A       9.9618   -2.7593    9.9288 C.3       1 RES1    0.0000
     71 H15A       9.9838   -3.5835    9.3817 H         1 RES1    0.0000
     72 H16A      10.6488   -2.1416    9.5725 H         1 RES1    0.0000
     73 C19A      10.3100   -3.1113   11.3702 C.3       1 RES1    0.0000
     74 H17A       9.6584   -3.7566   11.7152 H         1 RES1    0.0000
     75 H18A      11.2075   -3.5033   11.4024 H         1 RES1    0.0000
     76 H19A      10.2882   -2.3001   11.9189 H         1 RES1    0.0000
@<TRIPOS>BOND
     1    1    2 ar
     2    2    3 ar
     3    3    4 1
     4    5    3 ar
     5    6    5 ar
     6    7    6 1
     7    8    6 ar
     8    9    8 1
     9   10    8 ar
    10   11   10 1
    11   12   10 ar
    12   13   12 1
    13   14    5 ar
    14   15   14 ar
    15   16   15 1
    16   17    1 ar
    17   18    1 1
    18   19   18 3
    19   20   19 1
    20   21   20 1
    21   22   20 1
    22   23   20 1
    23   24   23 1
    24   25   23 1
    25   26   23 1
    26   27   26 1
    27   28   26 1
    28   29   26 1
    29   30   29 1
    30   31   29 1
    31   32   29 1
    32   33   32 1
    33   34   32 1
    34   35   32 1
    35   36   35 1
    36   37   35 1
    37   38   35 1
    38   39   40 ar
    39   40   17 ar
    40   41   40 ar
    41   42   41 1
    42   43   41 ar
    43   44   43 ar
    44   45   44 1
    45   46   44 ar
    46   47   46 1
    47   48   46 ar
    48   49   48 1
    49   50   48 ar
    50   51   50 1
    51   52   43 ar
    52   53   17 ar
    53   54   53 1
    54   55    2 ar
    55   56   39 1
    56   57   56 3
    57   58   57 1
    58   59   58 1
    59   60   58 1
    60   61   58 1
    61   62   61 1
    62   63   61 1
    63   64   61 1
    64   65   64 1
    65   66   64 1
    66   67   64 1
    67   68   67 1
    68   69   67 1
    69   70   67 1
    70   71   70 1
    71   72   70 1
    72   73   70 1
    73   74   73 1
    74   75   73 1
    75   76   73 1
    76   12   14 ar
    77   15   55 ar
    78   39   55 ar
    79   50   52 ar
    80   52   53 ar
@<TRIPOS>SUBSTRUCTURE
     1 RES1 1

@<TRIPOS>CRYSIN
   6.6368    8.3446   13.7421 105.5261 100.2523  92.7360   2 1

