# MOL2 file generated by ConQuest
# Please check atom types

@<TRIPOS>MOLECULE
CIZCOE
    70    74     1
SMALL
NO_CHARGES
****
Generated from CSD

@<TRIPOS>ATOM
      1 C1         4.4977    3.5603    9.2464 C.ar      1 RES1    0.0000
      2 C2         5.2456    3.4498   10.4479 C.ar      1 RES1    0.0000
      3 C3         6.3258    4.3039   10.7322 C.ar      1 RES1    0.0000
      4 H1         6.5701    4.9605   10.0905 H         1 RES1    0.0000
      5 C4         7.0465    4.2247   11.9109 C.ar      1 RES1    0.0000
      6 C5         8.1352    5.0988   12.2121 C.ar      1 RES1    0.0000
      7 H2         8.3852    5.7637   11.5825 H         1 RES1    0.0000
      8 C6         8.8178    5.0006   13.3769 C.ar      1 RES1    0.0000
      9 H3         9.5413    5.5909   13.5540 H         1 RES1    0.0000
     10 C7         8.4520    4.0108   14.3414 C.ar      1 RES1    0.0000
     11 H4         8.9369    3.9480   15.1562 H         1 RES1    0.0000
     12 C8         7.4280    3.1649   14.1092 C.ar      1 RES1    0.0000
     13 H5         7.2006    2.5160   14.7643 H         1 RES1    0.0000
     14 C9         6.6762    3.2292   12.8897 C.ar      1 RES1    0.0000
     15 C10        5.6282    2.3705   12.6123 C.ar      1 RES1    0.0000
     16 H6         5.4018    1.7061   13.2520 H         1 RES1    0.0000
     17 C11        3.4105    2.7001    8.9904 C.ar      1 RES1    0.0000
     18 C12        4.8603    4.5517    8.2802 C.1       1 RES1    0.0000
     19 C13        5.1647    5.3898    7.4752 C.1       1 RES1    0.0000
     20 C14        5.5458    6.4100    6.4970 C.3       1 RES1    0.0000
     21 H7         5.4388    7.3052    6.9066 H         1 RES1    0.0000
     22 H8         4.9334    6.3576    5.7208 H         1 RES1    0.0000
     23 C15        6.9905    6.2542    6.0068 C.3       1 RES1    0.0000
     24 H9         7.0837    5.3677    5.5759 H         1 RES1    0.0000
     25 H10        7.1657    6.9417    5.3167 H         1 RES1    0.0000
     26 C16        8.0493    6.3781    7.0940 C.3       1 RES1    0.0000
     27 H11        7.8704    5.6968    7.7904 H         1 RES1    0.0000
     28 H12        8.9347    6.1776    6.6984 H         1 RES1    0.0000
     29 C17        8.1102    7.7408    7.7534 C.3       1 RES1    0.0000
     30 H13        7.2519    7.9141    8.2149 H         1 RES1    0.0000
     31 H14        8.2227    8.4324    7.0536 H         1 RES1    0.0000
     32 C18        9.2497    7.8642    8.7619 C.3       1 RES1    0.0000
     33 H15        9.1211    7.2122    9.4823 H         1 RES1    0.0000
     34 H16        9.2569    8.7692    9.1374 H         1 RES1    0.0000
     35 H17       10.1034    7.6904    8.3128 H         1 RES1    0.0000
     36 C1B        3.7972    1.5817   11.1633 C.ar      1 RES1    0.0000
     37 C2B        3.0492    1.6922    9.9617 C.ar      1 RES1    0.0000
     38 C3B        1.9691    0.8381    9.6774 C.ar      1 RES1    0.0000
     39 H1B        1.7247    0.1815   10.3191 H         1 RES1    0.0000
     40 C4B        1.2483    0.9173    8.4988 C.ar      1 RES1    0.0000
     41 C5B        0.1596    0.0432    8.1975 C.ar      1 RES1    0.0000
     42 H2B       -0.0904   -0.6217    8.8272 H         1 RES1    0.0000
     43 C6B       -0.5230    0.1414    7.0328 C.ar      1 RES1    0.0000
     44 H3B       -1.2465   -0.4489    6.8556 H         1 RES1    0.0000
     45 C7B       -0.1572    1.1312    6.0682 C.ar      1 RES1    0.0000
     46 H4B       -0.6421    1.1940    5.2534 H         1 RES1    0.0000
     47 C8B        0.8668    1.9771    6.3005 C.ar      1 RES1    0.0000
     48 H5B        1.0943    2.6260    5.6453 H         1 RES1    0.0000
     49 C9B        1.6186    1.9128    7.5199 C.ar      1 RES1    0.0000
     50 C10B       2.6666    2.7715    7.7973 C.ar      1 RES1    0.0000
     51 H6B        2.8930    3.4359    7.1577 H         1 RES1    0.0000
     52 C11B       4.8843    2.4419   11.4192 C.ar      1 RES1    0.0000
     53 C12B       3.4346    0.5903   12.1294 C.1       1 RES1    0.0000
     54 C13B       3.1301   -0.2478   12.9344 C.1       1 RES1    0.0000
     55 C14B       2.7490   -1.2680   13.9126 C.3       1 RES1    0.0000
     56 H7B        2.8560   -2.1632   13.5030 H         1 RES1    0.0000
     57 H8B        3.3614   -1.2156   14.6888 H         1 RES1    0.0000
     58 C15B       1.3043   -1.1122   14.4029 C.3       1 RES1    0.0000
     59 H9B        1.2111   -0.2257   14.8337 H         1 RES1    0.0000
     60 H10B       1.1292   -1.7997   15.0929 H         1 RES1    0.0000
     61 C16B       0.2456   -1.2361   13.3157 C.3       1 RES1    0.0000
     62 H11B       0.4245   -0.5548   12.6193 H         1 RES1    0.0000
     63 H12B      -0.6399   -1.0356   13.7112 H         1 RES1    0.0000
     64 C17B       0.1847   -2.5988   12.6562 C.3       1 RES1    0.0000
     65 H13B       1.0429   -2.7721   12.1948 H         1 RES1    0.0000
     66 H14B       0.0721   -3.2904   13.3561 H         1 RES1    0.0000
     67 C18B      -0.9548   -2.7222   11.6478 C.3       1 RES1    0.0000
     68 H15B      -0.8263   -2.0702   10.9273 H         1 RES1    0.0000
     69 H16B      -0.9621   -3.6272   11.2722 H         1 RES1    0.0000
     70 H17B      -1.8086   -2.5484   12.0968 H         1 RES1    0.0000
@<TRIPOS>BOND
     1    1    2 ar
     2    2    3 ar
     3    3    4 1
     4    5    3 ar
     5    6    5 ar
     6    7    6 1
     7    8    6 ar
     8    9    8 1
     9   10    8 ar
    10   11   10 1
    11   12   10 ar
    12   13   12 1
    13   14    5 ar
    14   15   14 ar
    15   16   15 1
    16   17    1 ar
    17   18    1 1
    18   19   18 3
    19   20   19 1
    20   21   20 1
    21   22   20 1
    22   23   20 1
    23   24   23 1
    24   25   23 1
    25   26   23 1
    26   27   26 1
    27   28   26 1
    28   29   26 1
    29   30   29 1
    30   31   29 1
    31   32   29 1
    32   33   32 1
    33   34   32 1
    34   35   32 1
    35   36   37 ar
    36   37   17 ar
    37   38   37 ar
    38   39   38 1
    39   40   38 ar
    40   41   40 ar
    41   42   41 1
    42   43   41 ar
    43   44   43 1
    44   45   43 ar
    45   46   45 1
    46   47   45 ar
    47   48   47 1
    48   49   40 ar
    49   50   17 ar
    50   51   50 1
    51   52    2 ar
    52   53   36 1
    53   54   53 3
    54   55   54 1
    55   56   55 1
    56   57   55 1
    57   58   55 1
    58   59   58 1
    59   60   58 1
    60   61   58 1
    61   62   61 1
    62   63   61 1
    63   64   61 1
    64   65   64 1
    65   66   64 1
    66   67   64 1
    67   68   67 1
    68   69   67 1
    69   70   67 1
    70   12   14 ar
    71   15   52 ar
    72   36   52 ar
    73   47   49 ar
    74   49   50 ar
@<TRIPOS>SUBSTRUCTURE
     1 RES1 1

@<TRIPOS>CRYSIN
  12.3212    5.1420   20.8030  90.0000 101.1599  90.0000 231 1

