# MOL2 file generated by ConQuest
# Please check atom types

@<TRIPOS>MOLECULE
CIZRIN
   102   111     1
SMALL
NO_CHARGES
****
Generated from CSD

@<TRIPOS>ATOM
      1 C1        -0.1803    3.3205   -8.0651 C.ar      1 RES1    0.0000
      2 C2        -0.3259    3.8112   -9.3674 C.ar      1 RES1    0.0000
      3 H1         0.4018    3.7912   -9.9465 H         1 RES1    0.0000
      4 C3        -1.5262    4.3223   -9.8082 C.ar      1 RES1    0.0000
      5 H2        -1.5951    4.6417  -10.6783 H         1 RES1    0.0000
      6 C4        -3.9192    4.8819   -9.3943 C.ar      1 RES1    0.0000
      7 H3        -4.0075    5.2155  -10.2579 H         1 RES1    0.0000
      8 C5        -4.9851    4.8900   -8.5725 C.ar      1 RES1    0.0000
      9 H4        -5.7955    5.2256   -8.8821 H         1 RES1    0.0000
     10 C6        -5.9953    4.3609   -6.3553 C.ar      1 RES1    0.0000
     11 H5        -6.8246    4.6612   -6.6499 H         1 RES1    0.0000
     12 C7        -5.8674    3.8936   -5.0746 C.ar      1 RES1    0.0000
     13 H6        -6.6098    3.8881   -4.5139 H         1 RES1    0.0000
     14 C8        -4.6602    3.4324   -4.6013 C.ar      1 RES1    0.0000
     15 H7        -4.5928    3.1326   -3.7227 H         1 RES1    0.0000
     16 C9        -2.2673    2.8983   -5.0016 C.ar      1 RES1    0.0000
     17 H8        -2.1838    2.5702   -4.1360 H         1 RES1    0.0000
     18 C10       -1.1946    2.8820   -5.8244 C.ar      1 RES1    0.0000
     19 H9        -0.3855    2.5490   -5.5090 H         1 RES1    0.0000
     20 C11       -1.2761    3.3666   -7.1708 C.ar      1 RES1    0.0000
     21 C12       -2.6453    4.3689   -8.9657 C.ar      1 RES1    0.0000
     22 C13       -4.8995    4.3953   -7.2333 C.ar      1 RES1    0.0000
     23 C14       -3.5264    3.4105   -5.4371 C.ar      1 RES1    0.0000
     24 C15       -3.6472    3.9082   -6.7648 C.ar      1 RES1    0.0000
     25 C16       -2.5170    3.8913   -7.6336 C.ar      1 RES1    0.0000
     26 C17        1.0601    2.7332   -7.6457 C.1       1 RES1    0.0000
     27 C18        2.0587    2.1790   -7.2902 C.1       1 RES1    0.0000
     28 C19        3.2218    1.4389   -6.8814 C.ar      1 RES1    0.0000
     29 C20        4.2046    1.1006   -7.8277 C.ar      1 RES1    0.0000
     30 H10        4.0976    1.3830   -8.7065 H         1 RES1    0.0000
     31 C21        5.3314    0.3577   -7.4945 C.ar      1 RES1    0.0000
     32 C22        5.4388   -0.0853   -6.1673 C.ar      1 RES1    0.0000
     33 H11        6.1613   -0.6180   -5.9237 H         1 RES1    0.0000
     34 C23        4.4979    0.2501   -5.2149 C.ar      1 RES1    0.0000
     35 H12        4.5985   -0.0569   -4.3427 H         1 RES1    0.0000
     36 C24        3.3927    1.0456   -5.5433 C.ar      1 RES1    0.0000
     37 C25        6.4223   -0.0100   -8.5104 C.3       1 RES1    0.0000
     38 C26        7.7917    0.4119   -7.9630 C.3       1 RES1    0.0000
     39 H13        8.4747    0.1790   -8.5961 H         1 RES1    0.0000
     40 H14        7.9575   -0.0402   -7.1325 H         1 RES1    0.0000
     41 H15        7.7995    1.3611   -7.8176 H         1 RES1    0.0000
     42 C27        6.4054   -1.5235   -8.7071 C.3       1 RES1    0.0000
     43 H16        7.0863   -1.7719   -9.3364 H         1 RES1    0.0000
     44 H17        5.5466   -1.7926   -9.0406 H         1 RES1    0.0000
     45 H18        6.5736   -1.9568   -7.8672 H         1 RES1    0.0000
     46 C28        6.2416    0.7067   -9.8463 C.3       1 RES1    0.0000
     47 H19        6.9446    0.4480  -10.4462 H         1 RES1    0.0000
     48 H20        6.2732    1.6565   -9.7073 H         1 RES1    0.0000
     49 H21        5.3930    0.4665  -10.2253 H         1 RES1    0.0000
     50 C29        2.4920    1.4896   -4.5204 C.1       1 RES1    0.0000
     51 C30        1.7805    1.9107   -3.6434 C.1       1 RES1    0.0000
     52 C31        0.9694    2.4210   -2.6534 C.1       1 RES1    0.0000
     53 C32        0.2915    2.9281   -1.7995 C.1       1 RES1    0.0000
     54 C33       -0.4763    3.6400   -0.8172 C.ar      1 RES1    0.0000
     55 C34       -1.7871    4.0349   -1.0918 C.ar      1 RES1    0.0000
     56 H22       -2.1849    3.7782   -1.8925 H         1 RES1    0.0000
     57 C35       -2.5059    4.8066   -0.1843 C.ar      1 RES1    0.0000
     58 H23       -3.3793    5.0521   -0.3878 H         1 RES1    0.0000
     59 C36       -1.9464    5.2209    1.0242 C.ar      1 RES1    0.0000
     60 C37       -0.6499    4.7853    1.3151 C.ar      1 RES1    0.0000
     61 H24       -0.2654    5.0268    2.1260 H         1 RES1    0.0000
     62 C38        0.0878    3.9973    0.4256 C.ar      1 RES1    0.0000
     63 C39       -2.6466    6.1613    2.0114 C.3       1 RES1    0.0000
     64 C40       -4.0746    6.5005    1.5749 C.3       1 RES1    0.0000
     65 H25       -4.4737    7.0907    2.2180 H         1 RES1    0.0000
     66 H26       -4.5915    5.6931    1.5160 H         1 RES1    0.0000
     67 H27       -4.0531    6.9292    0.7162 H         1 RES1    0.0000
     68 C41       -1.8359    7.4635    2.0857 C.3       1 RES1    0.0000
     69 H28       -2.2579    8.0690    2.6993 H         1 RES1    0.0000
     70 H29       -1.7967    7.8663    1.2145 H         1 RES1    0.0000
     71 H30       -0.9464    7.2693    2.3893 H         1 RES1    0.0000
     72 C42       -2.7010    5.5219    3.4043 C.3       1 RES1    0.0000
     73 H31       -3.1410    6.1191    4.0143 H         1 RES1    0.0000
     74 H32       -1.8087    5.3503    3.7128 H         1 RES1    0.0000
     75 H33       -3.1867    4.6962    3.3589 H         1 RES1    0.0000
     76 C43        1.4170    3.5989    0.7898 C.1       1 RES1    0.0000
     77 C44        2.5252    3.2935    1.1233 C.1       1 RES1    0.0000
     78 C45        3.8608    2.9252    1.4949 C.ar      1 RES1    0.0000
     79 C46        4.2960    3.1016    2.8060 C.ar      1 RES1    0.0000
     80 H34        3.7161    3.4689    3.4339 H         1 RES1    0.0000
     81 C47        5.5741    2.7408    3.1937 C.ar      1 RES1    0.0000
     82 H35        5.8427    2.8704    4.0751 H         1 RES1    0.0000
     83 C48        7.8150    1.7802    2.6243 C.ar      1 RES1    0.0000
     84 H36        8.1121    1.9137    3.4962 H         1 RES1    0.0000
     85 C49        8.6431    1.2206    1.7297 C.ar      1 RES1    0.0000
     86 H37        9.4980    0.9701    1.9944 H         1 RES1    0.0000
     87 C50        9.0734    0.3986   -0.5714 C.ar      1 RES1    0.0000
     88 H38        9.9244    0.1200   -0.3213 H         1 RES1    0.0000
     89 C51        8.6536    0.2118   -1.8727 C.ar      1 RES1    0.0000
     90 H39        9.2280   -0.1870   -2.4856 H         1 RES1    0.0000
     91 C52        7.3997    0.6057   -2.2795 C.ar      1 RES1    0.0000
     92 H40        7.1374    0.4771   -3.1622 H         1 RES1    0.0000
     93 C53        5.1809    1.6049   -1.7313 C.ar      1 RES1    0.0000
     94 H41        4.8947    1.4857   -2.6073 H         1 RES1    0.0000
     95 C54        4.3423    2.1500   -0.8333 C.ar      1 RES1    0.0000
     96 H42        3.4860    2.3937   -1.1027 H         1 RES1    0.0000
     97 C55        4.7309    2.3666    0.5267 C.ar      1 RES1    0.0000
     98 C56        6.4714    2.1799    2.2660 C.ar      1 RES1    0.0000
     99 C57        8.2377    1.0025    0.3788 C.ar      1 RES1    0.0000
    100 C58        6.5135    1.2018   -1.3642 C.ar      1 RES1    0.0000
    101 C59        6.9320    1.4041   -0.0276 C.ar      1 RES1    0.0000
    102 C60        6.0455    1.9897    0.9284 C.ar      1 RES1    0.0000
@<TRIPOS>BOND
     1    1    2 ar
     2    2    3 1
     3    4    2 ar
     4    5    4 1
     5    6    7 1
     6    8    6 ar
     7    9    8 1
     8   10   11 1
     9   12   10 ar
    10   13   12 1
    11   14   12 ar
    12   15   14 1
    13   16   17 1
    14   18   16 ar
    15   19   18 1
    16   20    1 ar
    17   21    4 ar
    18   22    8 ar
    19   23   14 ar
    20   24   22 ar
    21   25   20 ar
    22   26    1 1
    23   27   26 3
    24   28   27 1
    25   29   28 ar
    26   30   29 1
    27   31   29 ar
    28   32   31 ar
    29   33   32 1
    30   34   32 ar
    31   35   34 1
    32   36   28 ar
    33   37   31 1
    34   38   37 1
    35   39   38 1
    36   40   38 1
    37   41   38 1
    38   42   37 1
    39   43   42 1
    40   44   42 1
    41   45   42 1
    42   46   37 1
    43   47   46 1
    44   48   46 1
    45   49   46 1
    46   50   36 1
    47   51   50 3
    48   52   51 1
    49   53   52 3
    50   54   53 1
    51   55   54 ar
    52   56   55 1
    53   57   55 ar
    54   58   57 1
    55   59   57 ar
    56   60   59 ar
    57   61   60 1
    58   62   54 ar
    59   63   59 1
    60   64   63 1
    61   65   64 1
    62   66   64 1
    63   67   64 1
    64   68   63 1
    65   69   68 1
    66   70   68 1
    67   71   68 1
    68   72   63 1
    69   73   72 1
    70   74   72 1
    71   75   72 1
    72   76   62 1
    73   77   76 3
    74   78   77 1
    75   79   78 ar
    76   80   79 1
    77   81   79 ar
    78   82   81 1
    79   83   84 1
    80   85   83 ar
    81   86   85 1
    82   87   88 1
    83   89   87 ar
    84   90   89 1
    85   91   89 ar
    86   92   91 1
    87   93   94 1
    88   95   93 ar
    89   96   95 1
    90   97   78 ar
    91   98   81 ar
    92   99   85 ar
    93  100   91 ar
    94  101   99 ar
    95  102   97 ar
    96    6   21 ar
    97   10   22 ar
    98   16   23 ar
    99   18   20 ar
   100   21   25 ar
   101   23   24 ar
   102   24   25 ar
   103   34   36 ar
   104   60   62 ar
   105   83   98 ar
   106   87   99 ar
   107   93  100 ar
   108   95   97 ar
   109   98  102 ar
   110  100  101 ar
   111  101  102 ar
@<TRIPOS>SUBSTRUCTURE
     1 RES1 1

@<TRIPOS>CRYSIN
  11.1104   12.9232   15.1849  80.6390  70.4390  85.6750   2 1

