# MOL2 file generated by ConQuest
# Please check atom types

@<TRIPOS>MOLECULE
CORONE03
    36    42     1
SMALL
NO_CHARGES
****
Generated from CSD

@<TRIPOS>ATOM
      1 C1        -2.0060    6.9496   16.5846 C.ar      1 RES1    0.0000
      2 H1        -1.6423    7.5957   17.1786 H         1 RES1    0.0000
      3 C2        -1.2039    6.3735   15.6519 C.ar      1 RES1    0.0000
      4 H2        -0.2858    6.6160   15.6173 H         1 RES1    0.0000
      5 C3        -0.8947    4.8326   13.7117 C.ar      1 RES1    0.0000
      6 H3         0.0156    5.0915   13.6329 H         1 RES1    0.0000
      7 C4        -1.4035    3.9070   12.8489 C.ar      1 RES1    0.0000
      8 H4        -0.8374    3.5268   12.1878 H         1 RES1    0.0000
      9 C5        -3.3195    2.5304   12.0399 C.ar      1 RES1    0.0000
     10 H5        -2.7697    2.1366   11.3729 H         1 RES1    0.0000
     11 C6        -4.6257    2.1567   12.1375 C.ar      1 RES1    0.0000
     12 H6        -4.9681    1.4994   11.5428 H         1 RES1    0.0000
     13 C7        -1.7006    5.4185   14.7281 C.ar      1 RES1    0.0000
     14 C8        -2.7636    3.4993   12.9193 C.ar      1 RES1    0.0000
     15 C9        -5.4837    2.7300   13.1102 C.ar      1 RES1    0.0000
     16 C10       -3.0616    5.0425   14.8081 C.ar      1 RES1    0.0000
     17 C11       -3.5936    4.0801   13.9055 C.ar      1 RES1    0.0000
     18 C12       -4.9639    3.6985   13.9990 C.ar      1 RES1    0.0000
     19 C1B       -6.8628    2.3806   13.2109 C.ar      1 RES1    0.0000
     20 H1B       -7.2265    1.7345   12.6169 H         1 RES1    0.0000
     21 C2B       -7.6649    2.9567   14.1436 C.ar      1 RES1    0.0000
     22 H2B       -8.5830    2.7142   14.1782 H         1 RES1    0.0000
     23 C3B       -7.9742    4.4976   16.0837 C.ar      1 RES1    0.0000
     24 H3B       -8.8844    4.2387   16.1626 H         1 RES1    0.0000
     25 C4B       -7.4654    5.4232   16.9466 C.ar      1 RES1    0.0000
     26 H4B       -8.0314    5.8034   17.6076 H         1 RES1    0.0000
     27 C5B       -5.5493    6.7998   17.7556 C.ar      1 RES1    0.0000
     28 H5B       -6.0991    7.1936   18.4225 H         1 RES1    0.0000
     29 C6B       -4.2432    7.1735   17.6580 C.ar      1 RES1    0.0000
     30 H6B       -3.9007    7.8308   18.2527 H         1 RES1    0.0000
     31 C7B       -7.1682    3.9117   15.0674 C.ar      1 RES1    0.0000
     32 C8B       -6.1052    5.8309   16.8762 C.ar      1 RES1    0.0000
     33 C9B       -3.3851    6.6002   16.6853 C.ar      1 RES1    0.0000
     34 C10B      -5.8073    4.2877   14.9874 C.ar      1 RES1    0.0000
     35 C11B      -5.2752    5.2501   15.8899 C.ar      1 RES1    0.0000
     36 C12B      -3.9050    5.6317   15.7965 C.ar      1 RES1    0.0000
@<TRIPOS>BOND
     1    1    2 1
     2    3    1 ar
     3    4    3 1
     4    5    6 1
     5    7    5 ar
     6    8    7 1
     7    9   10 1
     8   11    9 ar
     9   12   11 1
    10   13    3 ar
    11   14    7 ar
    12   15   11 ar
    13   16   13 ar
    14   17   14 ar
    15   18   15 ar
    16   19   15 ar
    17   20   19 1
    18   21   19 ar
    19   22   21 1
    20   23   24 1
    21   25   23 ar
    22   26   25 1
    23   27   28 1
    24   29   27 ar
    25   30   29 1
    26   31   21 ar
    27   32   25 ar
    28   33    1 ar
    29   34   18 ar
    30   35   32 ar
    31   36   16 ar
    32    5   13 ar
    33    9   14 ar
    34   16   17 ar
    35   17   18 ar
    36   23   31 ar
    37   27   32 ar
    38   29   33 ar
    39   31   34 ar
    40   33   36 ar
    41   34   35 ar
    42   35   36 ar
@<TRIPOS>SUBSTRUCTURE
     1 RES1 1

@<TRIPOS>CRYSIN
  10.0086    4.6651   15.5437  90.0000 106.5760  90.0000 231 1

