# MOL2 file generated by ConQuest
# Please check atom types

@<TRIPOS>MOLECULE
CORONE04
    36    42     1
SMALL
NO_CHARGES
****
Generated from CSD

@<TRIPOS>ATOM
      1 C1         2.5499    3.0203    9.2946 C.ar      1 RES1    0.0000
      2 H1         3.4780    3.1949    9.1928 H         1 RES1    0.0000
      3 C2         1.8370    2.4349    8.2241 C.ar      1 RES1    0.0000
      4 C3         2.4548    2.0837    6.9902 C.ar      1 RES1    0.0000
      5 H2         3.3800    2.2572    6.8677 H         1 RES1    0.0000
      6 C4         1.7454    1.5052    5.9828 C.ar      1 RES1    0.0000
      7 H3         2.1879    1.2774    5.1739 H         1 RES1    0.0000
      8 C5         0.3537    1.2342    6.1162 C.ar      1 RES1    0.0000
      9 C6        -0.4086    0.6362    5.0897 C.ar      1 RES1    0.0000
     10 H4         0.0179    0.3959    4.2756 H         1 RES1    0.0000
     11 C7        -1.7447    0.3947    5.2370 C.ar      1 RES1    0.0000
     12 H5        -2.2326    0.0046    4.5220 H         1 RES1    0.0000
     13 C8        -2.4164    0.7207    6.4517 C.ar      1 RES1    0.0000
     14 C9        -3.8042    0.4803    6.6353 C.ar      1 RES1    0.0000
     15 H6        -4.3110    0.0929    5.9318 H         1 RES1    0.0000
     16 C10       -1.6774    1.3195    7.4923 C.ar      1 RES1    0.0000
     17 C11       -0.2901    1.5694    7.3322 C.ar      1 RES1    0.0000
     18 C12        0.4561    2.1716    8.3824 C.ar      1 RES1    0.0000
     19 C1B       -4.4191    0.8009    7.8147 C.ar      1 RES1    0.0000
     20 H1B       -5.3473    0.6263    7.9165 H         1 RES1    0.0000
     21 C2B       -3.7063    1.3863    8.8852 C.ar      1 RES1    0.0000
     22 C3B       -4.3240    1.7375   10.1191 C.ar      1 RES1    0.0000
     23 H2B       -5.2492    1.5640   10.2416 H         1 RES1    0.0000
     24 C4B       -3.6147    2.3160   11.1265 C.ar      1 RES1    0.0000
     25 H3B       -4.0572    2.5438   11.9354 H         1 RES1    0.0000
     26 C5B       -2.2230    2.5870   10.9931 C.ar      1 RES1    0.0000
     27 C6B       -1.4607    3.1850   12.0196 C.ar      1 RES1    0.0000
     28 H4B       -1.8871    3.4253   12.8337 H         1 RES1    0.0000
     29 C7B       -0.1246    3.4265   11.8723 C.ar      1 RES1    0.0000
     30 H5B        0.3633    3.8166   12.5873 H         1 RES1    0.0000
     31 C8B        0.5472    3.1005   10.6575 C.ar      1 RES1    0.0000
     32 C9B        1.9350    3.3409   10.4740 C.ar      1 RES1    0.0000
     33 H6B        2.4418    3.7283   11.1775 H         1 RES1    0.0000
     34 C10B      -0.1918    2.5017    9.6170 C.ar      1 RES1    0.0000
     35 C11B      -1.5791    2.2518    9.7771 C.ar      1 RES1    0.0000
     36 C12B      -2.3254    1.6496    8.7269 C.ar      1 RES1    0.0000
@<TRIPOS>BOND
     1    1    2 1
     2    3    1 ar
     3    4    3 ar
     4    5    4 1
     5    6    4 ar
     6    7    6 1
     7    8    6 ar
     8    9    8 ar
     9   10    9 1
    10   11    9 ar
    11   12   11 1
    12   13   11 ar
    13   14   13 ar
    14   15   14 1
    15   16   13 ar
    16   17    8 ar
    17   18    3 ar
    18   19   14 ar
    19   20   19 1
    20   21   19 ar
    21   22   21 ar
    22   23   22 1
    23   24   22 ar
    24   25   24 1
    25   26   24 ar
    26   27   26 ar
    27   28   27 1
    28   29   27 ar
    29   30   29 1
    30   31   29 ar
    31   32    1 ar
    32   33   32 1
    33   34   18 ar
    34   35   26 ar
    35   36   16 ar
    36   16   17 ar
    37   17   18 ar
    38   21   36 ar
    39   31   32 ar
    40   31   34 ar
    41   34   35 ar
    42   35   36 ar
@<TRIPOS>SUBSTRUCTURE
     1 RES1 1

@<TRIPOS>CRYSIN
  10.3855    3.8212   17.2111  90.0000  96.2350  90.0000 231 1

