# MOL2 file generated by ConQuest
# Please check atom types

@<TRIPOS>MOLECULE
CPPHEN
    31    34     1
SMALL
NO_CHARGES
****
Generated from CSD

@<TRIPOS>ATOM
      1 C1        -7.2209    0.4490   -0.0551 C.ar      1 RES1    0.0000
      2 C2        -5.9283   -0.5300    1.8200 C.ar      1 RES1    0.0000
      3 C3        -5.1275   -1.5752    2.3835 C.ar      1 RES1    0.0000
      4 C4        -4.7156   -1.4884    3.7069 C.ar      1 RES1    0.0000
      5 C5        -5.1276   -0.4443    4.4971 C.ar      1 RES1    0.0000
      6 C6        -5.9285    0.5939    3.9940 C.ar      1 RES1    0.0000
      7 C7        -6.3472    0.5740    2.6555 C.ar      1 RES1    0.0000
      8 C8        -7.2080    1.6140    2.1276 C.ar      1 RES1    0.0000
      9 C9        -7.6397    1.4913    0.8495 C.ar      1 RES1    0.0000
     10 C10       -7.6601    0.3879   -1.4022 C.ar      1 RES1    0.0000
     11 C11       -8.6012    1.3522   -2.1028 C.3       1 RES1    0.0000
     12 C12       -8.4491    0.9103   -3.5806 C.3       1 RES1    0.0000
     13 C13       -7.8442   -0.5353   -3.6022 C.3       1 RES1    0.0000
     14 C14       -7.2132   -0.5928   -2.2345 C.ar      1 RES1    0.0000
     15 C15       -6.3738   -1.6662   -1.7822 C.ar      1 RES1    0.0000
     16 C16       -5.9527   -1.6034   -0.4404 C.ar      1 RES1    0.0000
     17 C17       -6.3498   -0.5922    0.4512 C.ar      1 RES1    0.0000
     18 H1        -8.2222    2.3300   -1.9430 H         1 RES1    0.0000
     19 H2        -4.1466   -2.2713    4.1236 H         1 RES1    0.0000
     20 H3        -4.7836   -0.3756    5.4081 H         1 RES1    0.0000
     21 H4        -6.2204    1.3205    4.5877 H         1 RES1    0.0000
     22 H5        -7.4867    2.4356    2.6879 H         1 RES1    0.0000
     23 H6        -8.2296    2.1950    0.4858 H         1 RES1    0.0000
     24 H7        -9.4821    1.3205   -1.7272 H         1 RES1    0.0000
     25 H8        -9.3736    0.9801   -3.9940 H         1 RES1    0.0000
     26 H9        -7.8714    1.5905   -4.0804 H         1 RES1    0.0000
     27 H10       -8.5727   -1.2677   -3.7458 H         1 RES1    0.0000
     28 H11       -7.1590   -0.6867   -4.3503 H         1 RES1    0.0000
     29 H12       -6.0933   -2.4180   -2.4072 H         1 RES1    0.0000
     30 H13       -5.3564   -2.3065   -0.0972 H         1 RES1    0.0000
     31 H14       -4.8621   -2.3359    1.7595 H         1 RES1    0.0000
@<TRIPOS>BOND
     1    1    9 ar
     2    2    3 ar
     3    3    4 ar
     4    4    5 ar
     5    5    6 ar
     6    6    7 ar
     7    7    2 ar
     8    8    7 ar
     9    9    8 ar
    10   10    1 ar
    11   11   10 1
    12   12   11 1
    13   13   12 1
    14   14   10 ar
    15   15   14 ar
    16   16   15 ar
    17   17    1 ar
    18   18   11 1
    19   19    4 1
    20   20    5 1
    21   21    6 1
    22   22    8 1
    23   23    9 1
    24   24   11 1
    25   25   12 1
    26   26   12 1
    27   27   13 1
    28   28   13 1
    29   29   15 1
    30   30   16 1
    31   31    3 1
    32    2   17 ar
    33   13   14 1
    34   16   17 ar
@<TRIPOS>SUBSTRUCTURE
     1 RES1 1

@<TRIPOS>CRYSIN
  18.3500    5.8690   11.6100  90.0000 111.6000  90.0000  14 2

