# MOL2 file generated by ConQuest
# Please check atom types

@<TRIPOS>MOLECULE
DACXAI
    30    32     1
SMALL
NO_CHARGES
****
Generated from CSD

@<TRIPOS>ATOM
      1 C1         3.1532    8.3775    5.2165 C.ar      1 RES1    0.0000
      2 C2         2.9269    7.4957    6.2445 C.ar      1 RES1    0.0000
      3 H1         3.3763    6.6702    6.2491 H         1 RES1    0.0000
      4 C3         2.0481    7.7961    7.2783 C.ar      1 RES1    0.0000
      5 H2         1.9086    7.1729    7.9684 H         1 RES1    0.0000
      6 C4         1.3877    8.9855    7.2987 C.ar      1 RES1    0.0000
      7 H3         0.7952    9.1743    8.0039 H         1 RES1    0.0000
      8 C5        -0.0781   11.5506    7.2206 C.ar      1 RES1    0.0000
      9 H4        -0.2734   10.9439    7.9114 H         1 RES1    0.0000
     10 C6        -0.7357   12.7458    7.1766 C.ar      1 RES1    0.0000
     11 H5        -1.3924   12.9398    7.8202 H         1 RES1    0.0000
     12 C7        -0.4437   13.6769    6.1913 C.ar      1 RES1    0.0000
     13 H6        -0.8827   14.5090    6.1782 H         1 RES1    0.0000
     14 C8         0.4874   13.3725    5.2401 C.ar      1 RES1    0.0000
     15 H7         0.6836   14.0082    4.5756 H         1 RES1    0.0000
     16 C9         2.0975   11.7968    4.1794 C.ar      1 RES1    0.0000
     17 C10        2.7025   10.5956    4.2023 C.ar      1 RES1    0.0000
     18 H8         3.3000   10.3819    3.5083 H         1 RES1    0.0000
     19 C11        2.4804    9.6269    5.2323 C.ar      1 RES1    0.0000
     20 C12        1.5802    9.9373    6.2779 C.ar      1 RES1    0.0000
     21 C13        0.8880   11.2069    6.2517 C.ar      1 RES1    0.0000
     22 C14        1.1607   12.1418    5.2231 C.ar      1 RES1    0.0000
     23 C15        4.1092    8.0249    4.1131 C.3       1 RES1    0.0000
     24 C16        2.3941   12.7777    3.0858 C.3       1 RES1    0.0000
     25 H9         3.6925    8.1022    3.1947 H         1 RES1    0.0000
     26 H10        4.4087    7.1599    4.2509 H         1 RES1    0.0000
     27 H11        4.9853    8.5975    4.0606 H         1 RES1    0.0000
     28 H12        1.5812   13.0121    2.5912 H         1 RES1    0.0000
     29 H13        2.8089   13.6298    3.4834 H         1 RES1    0.0000
     30 H14        3.0135   12.4445    2.4862 H         1 RES1    0.0000
@<TRIPOS>BOND
     1    1    2 ar
     2    2    3 1
     3    4    2 ar
     4    5    4 1
     5    6    4 ar
     6    7    6 1
     7    8    9 1
     8   10    8 ar
     9   11   10 1
    10   12   10 ar
    11   13   12 1
    12   14   12 ar
    13   15   14 1
    14   16   17 ar
    15   17   18 1
    16   19    1 ar
    17   20    6 ar
    18   21    8 ar
    19   22   14 ar
    20   23    1 1
    21   24   16 1
    22   25   23 1
    23   26   23 1
    24   27   23 1
    25   28   24 1
    26   29   24 1
    27   30   24 1
    28   16   22 ar
    29   17   19 ar
    30   19   20 ar
    31   20   21 ar
    32   21   22 ar
@<TRIPOS>SUBSTRUCTURE
     1 RES1 1

@<TRIPOS>CRYSIN
   9.3010   18.5490    6.5600  90.0000  90.0000  90.0000  33 1

