# MOL2 file generated by ConQuest
# Please check atom types

@<TRIPOS>MOLECULE
DBNTHR02
    36    40     1
SMALL
NO_CHARGES
****
Generated from CSD

@<TRIPOS>ATOM
      1 C1        -0.2066   -1.6431    5.4445 C.ar      1 RES1    0.0000
      2 C2        -0.7098   -1.9962    3.1086 C.ar      1 RES1    0.0000
      3 C3        -0.7602   -2.4010    4.4602 C.ar      1 RES1    0.0000
      4 C4         0.4512   -0.4472    5.1215 C.ar      1 RES1    0.0000
      5 C5         0.5098   -0.0321    3.8141 C.ar      1 RES1    0.0000
      6 C6        -0.0653   -0.7843    2.7748 C.ar      1 RES1    0.0000
      7 C7        -0.0165   -0.3726    1.3806 C.ar      1 RES1    0.0000
      8 C8         0.6346    0.7843    0.9463 C.ar      1 RES1    0.0000
      9 C9        -0.6610   -1.1707    0.3901 C.ar      1 RES1    0.0000
     10 C10       -1.3163   -2.3849    0.7954 C.ar      1 RES1    0.0000
     11 C11       -1.3336   -2.7748    2.0754 C.ar      1 RES1    0.0000
     12 H1        -0.2148   -1.9034    6.4304 H         1 RES1    0.0000
     13 H2        -1.2312   -3.2105    4.6019 H         1 RES1    0.0000
     14 H3         0.8841    0.1147    5.8819 H         1 RES1    0.0000
     15 H4         0.9750    0.8026    3.5657 H         1 RES1    0.0000
     16 H5         1.0577    1.3874    1.6152 H         1 RES1    0.0000
     17 H6        -1.8179   -2.9124    0.0457 H         1 RES1    0.0000
     18 H7        -1.7848   -3.5889    2.3314 H         1 RES1    0.0000
     19 C9D        0.6610    1.1707   -0.3901 C.ar      1 RES1    0.0000
     20 C8D       -0.6346   -0.7843   -0.9463 C.ar      1 RES1    0.0000
     21 C7D        0.0165    0.3726   -1.3806 C.ar      1 RES1    0.0000
     22 C10D       1.3163    2.3849   -0.7954 C.ar      1 RES1    0.0000
     23 H5D       -1.0577   -1.3874   -1.6152 H         1 RES1    0.0000
     24 C6D        0.0653    0.7843   -2.7748 C.ar      1 RES1    0.0000
     25 C11D       1.3336    2.7748   -2.0754 C.ar      1 RES1    0.0000
     26 H6D        1.8179    2.9124   -0.0457 H         1 RES1    0.0000
     27 C2D        0.7098    1.9962   -3.1086 C.ar      1 RES1    0.0000
     28 C5D       -0.5098    0.0321   -3.8141 C.ar      1 RES1    0.0000
     29 H7D        1.7848    3.5889   -2.3314 H         1 RES1    0.0000
     30 C3D        0.7602    2.4010   -4.4602 C.ar      1 RES1    0.0000
     31 C4D       -0.4512    0.4472   -5.1215 C.ar      1 RES1    0.0000
     32 H4D       -0.9750   -0.8026   -3.5657 H         1 RES1    0.0000
     33 C1D        0.2066    1.6431   -5.4445 C.ar      1 RES1    0.0000
     34 H2D        1.2312    3.2105   -4.6019 H         1 RES1    0.0000
     35 H3D       -0.8841   -0.1147   -5.8819 H         1 RES1    0.0000
     36 H1D        0.2148    1.9034   -6.4304 H         1 RES1    0.0000
@<TRIPOS>BOND
     1    1    3 ar
     2    2    3 ar
     3    3   13 1
     4    4    1 ar
     5    5    4 ar
     6    6    2 ar
     7    7    6 ar
     8    8    7 ar
     9    9    7 ar
    10   10    9 ar
    11   11    2 ar
    12   12    1 1
    13   14    4 1
    14   15    5 1
    15   16    8 1
    16   17   10 1
    17   18   11 1
    18   19    8 ar
    19   20    9 ar
    20   21   19 ar
    21   22   19 ar
    22   23   20 1
    23   24   21 ar
    24   25   22 ar
    25   26   22 1
    26   27   24 ar
    27   28   24 ar
    28   29   25 1
    29   30   27 ar
    30   31   28 ar
    31   32   28 1
    32   33   30 ar
    33   34   30 1
    34   35   31 1
    35   36   33 1
    36    5    6 ar
    37   10   11 ar
    38   20   21 ar
    39   25   27 ar
    40   31   33 ar
@<TRIPOS>SUBSTRUCTURE
     1 RES1 1

@<TRIPOS>CRYSIN
   8.2630   11.4660   15.2380  90.0000  90.0000  90.0000  61 3

