# MOL2 file generated by ConQuest
# Please check atom types

@<TRIPOS>MOLECULE
DESZEJ
    44    47     1
SMALL
NO_CHARGES
****
Generated from CSD

@<TRIPOS>ATOM
      1 C1         1.7653   13.5439    4.5532 C.ar      1 RES1    0.0000
      2 H1         2.5463   13.5288    5.0577 H         1 RES1    0.0000
      3 C2         0.7732   14.4046    4.8932 C.ar      1 RES1    0.0000
      4 H2         0.8808   14.9697    5.6243 H         1 RES1    0.0000
      5 C3        -0.4052   14.4461    4.1557 C.ar      1 RES1    0.0000
      6 H3        -1.0735   15.0503    4.3859 H         1 RES1    0.0000
      7 C4        -0.5844   13.6090    3.1017 C.ar      1 RES1    0.0000
      8 H4        -1.3776   13.6535    2.6170 H         1 RES1    0.0000
      9 C5         0.4064   12.6701    2.7249 C.ar      1 RES1    0.0000
     10 C6         1.6385   12.6667    3.4444 C.ar      1 RES1    0.0000
     11 C7         2.6932   11.7831    3.0532 C.ar      1 RES1    0.0000
     12 C8         2.4645   10.9508    1.9875 C.ar      1 RES1    0.0000
     13 H5         3.1409   10.3725    1.7177 H         1 RES1    0.0000
     14 C9         1.2486   10.9397    1.2896 C.ar      1 RES1    0.0000
     15 H6         1.1418   10.3552    0.5747 H         1 RES1    0.0000
     16 C10        0.2178   11.7649    1.6323 C.ar      1 RES1    0.0000
     17 C11        3.9937   11.7405    3.7672 C.ar      1 RES1    0.0000
     18 C12        4.7812   12.8628    3.9561 C.ar      1 RES1    0.0000
     19 H7         4.4933   13.6803    3.6197 H         1 RES1    0.0000
     20 C13        5.9792   12.7958    4.6297 C.ar      1 RES1    0.0000
     21 H8         6.4859   13.5690    4.7322 H         1 RES1    0.0000
     22 C14        6.4470   11.6074    5.1585 C.ar      1 RES1    0.0000
     23 C15        5.6759   10.4811    4.9534 C.ar      1 RES1    0.0000
     24 H9         5.9714    9.6626    5.2826 H         1 RES1    0.0000
     25 C16        4.4765   10.5392    4.2744 C.ar      1 RES1    0.0000
     26 H10        3.9826    9.7604    4.1530 H         1 RES1    0.0000
     27 C17        7.7511   11.5385    5.9166 C.3       1 RES1    0.0000
     28 H11        8.4833   11.5563    5.2961 H         1 RES1    0.0000
     29 H12        7.7833   10.7255    6.4247 H         1 RES1    0.0000
     30 H13        7.8157   12.2893    6.5110 H         1 RES1    0.0000
     31 C18       -1.0683   11.7066    0.8921 C.ar      1 RES1    0.0000
     32 C19       -2.2800   11.4834    1.5342 C.ar      1 RES1    0.0000
     33 H14       -2.2919   11.3664    2.4569 H         1 RES1    0.0000
     34 C20       -3.4673   11.4318    0.8337 C.ar      1 RES1    0.0000
     35 H15       -4.2600   11.2915    1.2986 H         1 RES1    0.0000
     36 C21       -3.5104   11.5807   -0.5270 C.ar      1 RES1    0.0000
     37 C22       -2.3102   11.7724   -1.1763 C.ar      1 RES1    0.0000
     38 H16       -2.3049   11.8633   -2.1017 H         1 RES1    0.0000
     39 C23       -1.1169   11.8330   -0.4874 C.ar      1 RES1    0.0000
     40 H17       -0.3266   11.9612   -0.9596 H         1 RES1    0.0000
     41 C24       -4.8192   11.5364   -1.2779 C.3       1 RES1    0.0000
     42 H18       -5.4063   10.9001   -0.8615 H         1 RES1    0.0000
     43 H19       -4.6573   11.2743   -2.1880 H         1 RES1    0.0000
     44 H20       -5.2268   12.4063   -1.2626 H         1 RES1    0.0000
@<TRIPOS>BOND
     1    1    2 1
     2    3    1 ar
     3    4    3 1
     4    5    3 ar
     5    6    5 1
     6    7    5 ar
     7    8    7 1
     8    9    7 ar
     9   10    1 ar
    10   11   10 ar
    11   12   11 ar
    12   13   12 1
    13   14   12 ar
    14   15   14 1
    15   16    9 ar
    16   17   11 1
    17   18   17 ar
    18   19   18 1
    19   20   18 ar
    20   21   20 1
    21   22   20 ar
    22   23   22 ar
    23   24   23 1
    24   25   17 ar
    25   26   25 1
    26   27   22 1
    27   28   27 1
    28   29   27 1
    29   30   27 1
    30   31   16 1
    31   32   31 ar
    32   33   32 1
    33   34   32 ar
    34   35   34 1
    35   36   34 ar
    36   37   36 ar
    37   38   37 1
    38   39   31 ar
    39   40   39 1
    40   41   36 1
    41   42   41 1
    42   43   41 1
    43   44   41 1
    44    9   10 ar
    45   14   16 ar
    46   23   25 ar
    47   37   39 ar
@<TRIPOS>SUBSTRUCTURE
     1 RES1 1

@<TRIPOS>CRYSIN
  10.0953   19.1870   10.1071  90.0000 117.1540  90.0000  14 1

