# MOL2 file generated by ConQuest
# Please check atom types

@<TRIPOS>MOLECULE
DIDMEJ
    54    57     1
SMALL
NO_CHARGES
****
Generated from CSD

@<TRIPOS>ATOM
      1 C1        -0.5662    3.3848    3.5676 C.ar      1 RES1    0.0000
      2 H1        -0.5514    2.7547    2.8562 H         1 RES1    0.0000
      3 C2        -1.2897    4.5528    3.4036 C.ar      1 RES1    0.0000
      4 C3        -1.3114    5.4546    4.4853 C.ar      1 RES1    0.0000
      5 H2        -1.7993    6.2661    4.4067 H         1 RES1    0.0000
      6 C4        -0.6417    5.1824    5.6507 C.ar      1 RES1    0.0000
      7 H3        -0.6839    5.8084    6.3639 H         1 RES1    0.0000
      8 C5         0.7987    4.6146    8.1571 C.ar      1 RES1    0.0000
      9 H4         0.1678    5.3257    8.1528 H         1 RES1    0.0000
     10 C6         1.6144    4.4425    9.2516 C.ar      1 RES1    0.0000
     11 H5         1.5394    5.0268    9.9969 H         1 RES1    0.0000
     12 C7         2.5513    3.4083    9.2660 C.ar      1 RES1    0.0000
     13 H6         3.1393    3.3100   10.0060 H         1 RES1    0.0000
     14 C8         2.6230    2.5320    8.2079 C.ar      1 RES1    0.0000
     15 H7         3.2554    1.8237    8.2324 H         1 RES1    0.0000
     16 C9         2.6326    0.5581    6.0207 C.ar      1 RES1    0.0000
     17 H8         3.1834    0.4121    6.7798 H         1 RES1    0.0000
     18 C10        2.6570   -0.3497    4.9920 C.ar      1 RES1    0.0000
     19 H9         3.2327   -1.1033    5.0489 H         1 RES1    0.0000
     20 C11        1.8474   -0.1879    3.8541 C.ar      1 RES1    0.0000
     21 C12        1.0251    0.9234    3.8122 C.ar      1 RES1    0.0000
     22 H10        0.4618    1.0452    3.0581 H         1 RES1    0.0000
     23 C13        0.1059    4.0015    5.8204 C.ar      1 RES1    0.0000
     24 C14        0.8795    3.7544    7.0360 C.ar      1 RES1    0.0000
     25 C15        1.7758    2.6637    7.0859 C.ar      1 RES1    0.0000
     26 C16        1.8090    1.7040    5.9785 C.ar      1 RES1    0.0000
     27 C17        0.9897    1.8869    4.8489 C.ar      1 RES1    0.0000
     28 C18        0.1528    3.0884    4.7480 C.ar      1 RES1    0.0000
     29 C19       -2.0185    4.9074    2.1043 C.3       1 RES1    0.0000
     30 C20       -3.5078    5.1604    2.3991 C.3       1 RES1    0.0000
     31 H11       -3.9721    5.3828    1.5657 H         1 RES1    0.0000
     32 H12       -3.5935    5.9049    3.0306 H         1 RES1    0.0000
     33 H13       -3.9052    4.3542    2.7890 H         1 RES1    0.0000
     34 C21       -1.3948    6.1855    1.5186 C.3       1 RES1    0.0000
     35 H14       -0.4467    6.0284    1.3272 H         1 RES1    0.0000
     36 H15       -1.4801    6.9169    2.1651 H         1 RES1    0.0000
     37 H16       -1.8598    6.4259    0.6911 H         1 RES1    0.0000
     38 C22       -1.9193    3.7984    1.0566 C.3       1 RES1    0.0000
     39 H17       -0.9779    3.6442    0.8318 H         1 RES1    0.0000
     40 H18       -2.4075    4.0657    0.2508 H         1 RES1    0.0000
     41 H19       -2.3078    2.9737    1.4159 H         1 RES1    0.0000
     42 C23        1.9067   -1.2311    2.7379 C.3       1 RES1    0.0000
     43 C24        0.9656   -0.9090    1.5774 C.3       1 RES1    0.0000
     44 H20        0.0416   -0.8791    1.9052 H         1 RES1    0.0000
     45 H21        1.0460   -1.6026    0.8899 H         1 RES1    0.0000
     46 H22        1.2050   -0.0394    1.1927 H         1 RES1    0.0000
     47 C25        1.5312   -2.6025    3.3214 C.3       1 RES1    0.0000
     48 H23        0.6296   -2.5585    3.7033 H         1 RES1    0.0000
     49 H24        2.1715   -2.8461    4.0214 H         1 RES1    0.0000
     50 H25        1.5520   -3.2768    2.6116 H         1 RES1    0.0000
     51 C26        3.3456   -1.3010    2.1908 C.3       1 RES1    0.0000
     52 H26        3.3967   -1.9887    1.4954 H         1 RES1    0.0000
     53 H27        3.9620   -1.5268    2.9174 H         1 RES1    0.0000
     54 H28        3.5935   -0.4318    1.8104 H         1 RES1    0.0000
@<TRIPOS>BOND
     1    1    2 1
     2    3    1 ar
     3    4    3 ar
     4    5    4 1
     5    6    4 ar
     6    7    6 1
     7    8    9 1
     8   10    8 ar
     9   11   10 1
    10   12   10 ar
    11   13   12 1
    12   14   12 ar
    13   15   14 1
    14   16   17 1
    15   18   16 ar
    16   19   18 1
    17   20   18 ar
    18   21   20 ar
    19   22   21 1
    20   23    6 ar
    21   24    8 ar
    22   25   14 ar
    23   26   16 ar
    24   27   21 ar
    25   28    1 ar
    26   29    3 1
    27   30   29 1
    28   31   30 1
    29   32   30 1
    30   33   30 1
    31   34   29 1
    32   35   34 1
    33   36   34 1
    34   37   34 1
    35   38   29 1
    36   39   38 1
    37   40   38 1
    38   41   38 1
    39   42   20 1
    40   43   42 1
    41   44   43 1
    42   45   43 1
    43   46   43 1
    44   47   42 1
    45   48   47 1
    46   49   47 1
    47   50   47 1
    48   51   42 1
    49   52   51 1
    50   53   51 1
    51   54   51 1
    52   23   24 ar
    53   23   28 ar
    54   24   25 ar
    55   25   26 ar
    56   26   27 ar
    57   27   28 ar
@<TRIPOS>SUBSTRUCTURE
     1 RES1 1

@<TRIPOS>CRYSIN
  12.6177   10.3795   30.5808  90.0000  90.0000  90.0000  61 1

