# MOL2 file generated by ConQuest
# Please check atom types

@<TRIPOS>MOLECULE
DIMNAP02
    24    25     1
SMALL
NO_CHARGES
****
Generated from CSD

@<TRIPOS>ATOM
      1 C1         1.2551    3.5967    5.3512 C.ar      1 RES1    0.0000
      2 C2         2.2943    4.3475    6.1434 C.3       1 RES1    0.0000
      3 C3         0.2251    2.8897    3.2070 C.ar      1 RES1    0.0000
      4 C4         0.2778    2.8857    6.0131 C.ar      1 RES1    0.0000
      5 C5        -0.7236    2.1633    5.3077 C.ar      1 RES1    0.0000
      6 C6        -0.7364    2.1579    3.9329 C.ar      1 RES1    0.0000
      7 C7         0.2160    2.8873    1.7879 C.ar      1 RES1    0.0000
      8 C8        -0.8152    2.1338    0.9988 C.3       1 RES1    0.0000
      9 C9         1.1690    3.6043    1.1121 C.ar      1 RES1    0.0000
     10 C10        2.1649    4.3213    1.8174 C.ar      1 RES1    0.0000
     11 C11        2.2030    4.3156    3.1914 C.ar      1 RES1    0.0000
     12 C12        1.2424    3.5943    3.9224 C.ar      1 RES1    0.0000
     13 H1         2.1386    4.2266    7.1982 H         1 RES1    0.0000
     14 H2         2.2781    5.3780    5.9016 H         1 RES1    0.0000
     15 H3         3.2649    4.0344    5.9033 H         1 RES1    0.0000
     16 H4         0.2889    2.8847    7.0816 H         1 RES1    0.0000
     17 H5        -1.4815    1.6288    5.8705 H         1 RES1    0.0000
     18 H6        -1.5066    1.5934    3.4399 H         1 RES1    0.0000
     19 H7        -0.6609    2.2470   -0.0361 H         1 RES1    0.0000
     20 H8        -1.7876    2.4490    1.2227 H         1 RES1    0.0000
     21 H9        -0.7985    1.0823    1.2161 H         1 RES1    0.0000
     22 H10        1.1798    3.6323    0.0607 H         1 RES1    0.0000
     23 H11        2.9078    4.8846    1.2653 H         1 RES1    0.0000
     24 H12        2.9756    4.8696    3.6976 H         1 RES1    0.0000
@<TRIPOS>BOND
     1    1    2 1
     2    2   13 1
     3    3    6 ar
     4    4    1 ar
     5    5    4 ar
     6    6    5 ar
     7    7    3 ar
     8    8    7 1
     9    9    7 ar
    10   10    9 ar
    11   11   10 ar
    12   12    1 ar
    13   14    2 1
    14   15    2 1
    15   16    4 1
    16   17    5 1
    17   18    6 1
    18   19    8 1
    19   20    8 1
    20   21    8 1
    21   22    9 1
    22   23   10 1
    23   24   11 1
    24    3   12 ar
    25   11   12 ar
@<TRIPOS>SUBSTRUCTURE
     1 RES1 1

@<TRIPOS>CRYSIN
   6.1390    8.8570   16.7200  90.0000 101.0200  90.0000  14 1

