# MOL2 file generated by ConQuest
# Please check atom types

@<TRIPOS>MOLECULE
DIMNAP01
    24    25     1
SMALL
NO_CHARGES
****
Generated from CSD

@<TRIPOS>ATOM
      1 C1         1.2368    3.6192    5.3411 C.ar      1 RES1    0.0000
      2 C2         2.2887    4.3704    6.1318 C.3       1 RES1    0.0000
      3 C3         0.2158    2.8904    3.2204 C.ar      1 RES1    0.0000
      4 C4         0.2401    2.9002    6.0365 C.ar      1 RES1    0.0000
      5 C5        -0.7484    2.1714    5.3329 C.ar      1 RES1    0.0000
      6 C6        -0.7636    2.1625    3.9405 C.ar      1 RES1    0.0000
      7 C7         0.1997    2.9064    1.8017 C.ar      1 RES1    0.0000
      8 C8        -0.8419    2.1527    1.0061 C.3       1 RES1    0.0000
      9 C9         1.1801    3.6326    1.1080 C.ar      1 RES1    0.0000
     10 C10        2.1906    4.3320    1.8215 C.ar      1 RES1    0.0000
     11 C11        2.1956    4.3445    3.2007 C.ar      1 RES1    0.0000
     12 C12        1.2317    3.6290    3.9322 C.ar      1 RES1    0.0000
     13 H1         2.1240    4.2679    7.1510 H         1 RES1    0.0000
     14 H2         2.2860    5.4440    5.9181 H         1 RES1    0.0000
     15 H3         3.2439    4.0541    5.9181 H         1 RES1    0.0000
     16 H4         0.2309    2.8958    7.0688 H         1 RES1    0.0000
     17 H5        -1.4924    1.6394    5.8688 H         1 RES1    0.0000
     18 H6        -1.4995    1.6038    3.4522 H         1 RES1    0.0000
     19 H7        -0.6546    2.2721   -0.0329 H         1 RES1    0.0000
     20 H8        -1.8126    2.5037    1.2658 H         1 RES1    0.0000
     21 H9        -0.7953    1.0692    1.2165 H         1 RES1    0.0000
     22 H10        1.1481    3.6442    0.0986 H         1 RES1    0.0000
     23 H11        2.9184    4.9005    1.2494 H         1 RES1    0.0000
     24 H12        2.9803    4.8827    3.7317 H         1 RES1    0.0000
@<TRIPOS>BOND
     1    1    2 1
     2    2   13 1
     3    3    6 ar
     4    4    1 ar
     5    5    4 ar
     6    6    5 ar
     7    7    3 ar
     8    8    7 1
     9    9    7 ar
    10   10    9 ar
    11   11   10 ar
    12   12    1 ar
    13   14    2 1
    14   15    2 1
    15   16    4 1
    16   17    5 1
    17   18    6 1
    18   19    8 1
    19   20    8 1
    20   21    8 1
    21   22    9 1
    22   23   10 1
    23   24   11 1
    24    3   12 ar
    25   11   12 ar
@<TRIPOS>SUBSTRUCTURE
     1 RES1 1

@<TRIPOS>CRYSIN
   6.1800    8.9100   16.7700  90.0000 101.4000  90.0000  14 1

