# MOL2 file generated by ConQuest
# Please check atom types

@<TRIPOS>MOLECULE
DITBEN01
    48    53     1
SMALL
NO_CHARGES
****
Generated from CSD

@<TRIPOS>ATOM
      1 C1        11.1004    1.0580    6.3404 C.ar      1 RES1    0.0000
      2 C2        11.8590    0.6093    5.2352 C.ar      1 RES1    0.0000
      3 C3        13.1050    1.1872    4.8791 C.ar      1 RES1    0.0000
      4 H1        13.4585    1.8934    5.4071 H         1 RES1    0.0000
      5 C4        13.8036    0.7508    3.7984 C.ar      1 RES1    0.0000
      6 H2        14.6274    1.1659    3.5731 H         1 RES1    0.0000
      7 C5        13.3159   -0.3163    3.0051 C.ar      1 RES1    0.0000
      8 H3        13.8175   -0.6185    2.2575 H         1 RES1    0.0000
      9 C6        12.1404   -0.9044    3.3107 C.ar      1 RES1    0.0000
     10 H4        11.8253   -1.6232    2.7759 H         1 RES1    0.0000
     11 C7        11.3620   -0.4659    4.4225 C.ar      1 RES1    0.0000
     12 C8        10.1344   -1.0417    4.7276 C.ar      1 RES1    0.0000
     13 H5         9.8156   -1.7585    4.1910 H         1 RES1    0.0000
     14 C9         9.3580   -0.6002    5.7944 C.ar      1 RES1    0.0000
     15 C10        8.0901   -1.1796    6.0856 C.ar      1 RES1    0.0000
     16 H6         7.7672   -1.8903    5.5443 H         1 RES1    0.0000
     17 C11        7.3395   -0.7391    7.1161 C.ar      1 RES1    0.0000
     18 H7         6.4957   -1.1386    7.2924 H         1 RES1    0.0000
     19 C12        7.8047    0.3168    7.9354 C.ar      1 RES1    0.0000
     20 H8         7.2697    0.6245    8.6578 H         1 RES1    0.0000
     21 C13        9.0133    0.8942    7.6966 C.ar      1 RES1    0.0000
     22 H9         9.3111    1.5978    8.2614 H         1 RES1    0.0000
     23 C14        9.8388    0.4694    6.6228 C.ar      1 RES1    0.0000
     24 C15       11.6083    2.0992    7.1819 C.1       1 RES1    0.0000
     25 C1B       12.5506    4.0113    8.7296 C.ar      1 RES1    0.0000
     26 C2B       11.7921    4.4600    9.8349 C.ar      1 RES1    0.0000
     27 C3B       10.5461    3.8821   10.1910 C.ar      1 RES1    0.0000
     28 H1B       10.1925    3.1759    9.6629 H         1 RES1    0.0000
     29 C4B        9.8475    4.3185   11.2717 C.ar      1 RES1    0.0000
     30 H2B        9.0237    3.9034   11.4970 H         1 RES1    0.0000
     31 C5B       10.3352    5.3856   12.0649 C.ar      1 RES1    0.0000
     32 H3B        9.8335    5.6878   12.8126 H         1 RES1    0.0000
     33 C6B       11.5107    5.9737   11.7593 C.ar      1 RES1    0.0000
     34 H4B       11.8258    6.6925   12.2942 H         1 RES1    0.0000
     35 C7B       12.2890    5.5352   10.6476 C.ar      1 RES1    0.0000
     36 C8B       13.5167    6.1110   10.3424 C.ar      1 RES1    0.0000
     37 H5B       13.8355    6.8278   10.8791 H         1 RES1    0.0000
     38 C9B       14.2931    5.6695    9.2756 C.ar      1 RES1    0.0000
     39 C10B      15.5610    6.2489    8.9845 C.ar      1 RES1    0.0000
     40 H6B       15.8839    6.9596    9.5258 H         1 RES1    0.0000
     41 C11B      16.3115    5.8084    7.9540 C.ar      1 RES1    0.0000
     42 H7B       17.1553    6.2079    7.7777 H         1 RES1    0.0000
     43 C12B      15.8463    4.7525    7.1346 C.ar      1 RES1    0.0000
     44 H8B       16.3814    4.4448    6.4123 H         1 RES1    0.0000
     45 C13B      14.6378    4.1751    7.3735 C.ar      1 RES1    0.0000
     46 H9B       14.3400    3.4715    6.8087 H         1 RES1    0.0000
     47 C14B      13.8122    4.5999    8.4472 C.ar      1 RES1    0.0000
     48 C15B      12.0427    2.9701    7.8881 C.1       1 RES1    0.0000
@<TRIPOS>BOND
     1    1    2 ar
     2    2    3 ar
     3    3    4 1
     4    5    3 ar
     5    6    5 1
     6    7    5 ar
     7    8    7 1
     8    9    7 ar
     9   10    9 1
    10   11    2 ar
    11   12   11 ar
    12   13   12 1
    13   14   12 ar
    14   15   14 ar
    15   16   15 1
    16   17   15 ar
    17   18   17 1
    18   19   17 ar
    19   20   19 1
    20   21   19 ar
    21   22   21 1
    22   23    1 ar
    23   24    1 1
    24   25   26 ar
    25   26   27 ar
    26   27   28 1
    27   29   27 ar
    28   30   29 1
    29   31   29 ar
    30   32   31 1
    31   33   31 ar
    32   34   33 1
    33   35   26 ar
    34   36   35 ar
    35   37   36 1
    36   38   36 ar
    37   39   38 ar
    38   40   39 1
    39   41   39 ar
    40   42   41 1
    41   43   41 ar
    42   44   43 1
    43   45   43 ar
    44   46   45 1
    45   47   25 ar
    46   48   24 3
    47    9   11 ar
    48   14   23 ar
    49   21   23 ar
    50   25   48 1
    51   33   35 ar
    52   38   47 ar
    53   45   47 ar
@<TRIPOS>SUBSTRUCTURE
     1 RES1 1

@<TRIPOS>CRYSIN
  12.3880    5.0693   15.1120  90.0000  94.2690  90.0000 231 1

