# MOL2 file generated by ConQuest
# Please check atom types

@<TRIPOS>MOLECULE
DMANTR
    30    32     1
SMALL
NO_CHARGES
****
Generated from CSD

@<TRIPOS>ATOM
      1 C1         0.3415    1.7790    2.1896 C.ar      1 RES1    0.0000
      2 C2         1.4726    1.7489    2.9306 C.ar      1 RES1    0.0000
      3 C3         2.4896    0.8205    2.6407 C.ar      1 RES1    0.0000
      4 C4         2.3562   -0.0444    1.5935 C.ar      1 RES1    0.0000
      5 C5         1.1719   -0.0450    0.7733 C.ar      1 RES1    0.0000
      6 C6         0.1340    0.8977    1.0834 C.ar      1 RES1    0.0000
      7 C7         1.0399   -0.9406   -0.3061 C.ar      1 RES1    0.0000
      8 C8         2.1254   -1.9420   -0.6149 C.3       1 RES1    0.0000
      9 H1        -0.3555    2.4461    2.3493 H         1 RES1    0.0000
     10 H2         1.6082    2.4350    3.6354 H         1 RES1    0.0000
     11 H3         3.3478    0.7052    3.1884 H         1 RES1    0.0000
     12 H4         3.0955   -0.8485    1.3989 H         1 RES1    0.0000
     13 H5         2.3739   -2.4794    0.2792 H         1 RES1    0.0000
     14 H6         1.8171   -2.6117   -1.3425 H         1 RES1    0.0000
     15 H7         2.9114   -1.4325   -0.9223 H         1 RES1    0.0000
     16 C7B       -1.0399    0.9406    0.3061 C.ar      1 RES1    0.0000
     17 C6B       -0.1340   -0.8977   -1.0834 C.ar      1 RES1    0.0000
     18 C5B       -1.1719    0.0450   -0.7733 C.ar      1 RES1    0.0000
     19 C8B       -2.1254    1.9420    0.6149 C.3       1 RES1    0.0000
     20 C1B       -0.3415   -1.7790   -2.1896 C.ar      1 RES1    0.0000
     21 C4B       -2.3562    0.0444   -1.5935 C.ar      1 RES1    0.0000
     22 H5B       -2.3739    2.4794   -0.2792 H         1 RES1    0.0000
     23 H6B       -1.8171    2.6117    1.3425 H         1 RES1    0.0000
     24 H7B       -2.9114    1.4325    0.9223 H         1 RES1    0.0000
     25 C2B       -1.4726   -1.7489   -2.9306 C.ar      1 RES1    0.0000
     26 H1B        0.3555   -2.4461   -2.3493 H         1 RES1    0.0000
     27 C3B       -2.4896   -0.8205   -2.6407 C.ar      1 RES1    0.0000
     28 H4B       -3.0955    0.8485   -1.3989 H         1 RES1    0.0000
     29 H2B       -1.6082   -2.4350   -3.6354 H         1 RES1    0.0000
     30 H3B       -3.3478   -0.7052   -3.1884 H         1 RES1    0.0000
@<TRIPOS>BOND
     1    1    2 ar
     2    2    3 ar
     3    3    4 ar
     4    4    5 ar
     5    5    6 ar
     6    6    1 ar
     7    7    5 ar
     8    8    7 1
     9    9    1 1
    10   10    2 1
    11   11    3 1
    12   12    4 1
    13   13    8 1
    14   14    8 1
    15   15    8 1
    16   16    6 ar
    17   17    7 ar
    18   18   16 ar
    19   19   16 1
    20   20   17 ar
    21   21   18 ar
    22   22   19 1
    23   23   19 1
    24   24   19 1
    25   25   20 ar
    26   26   20 1
    27   27   21 ar
    28   28   21 1
    29   29   25 1
    30   30   27 1
    31   17   18 ar
    32   25   27 ar
@<TRIPOS>SUBSTRUCTURE
     1 RES1 1

@<TRIPOS>CRYSIN
   7.8150    5.2900   13.4560  90.0000  93.9000  90.0000  14 1

