# MOL2 file generated by ConQuest
# Please check atom types

@<TRIPOS>MOLECULE
DMBZAN10
    33    36     1
SMALL
NO_CHARGES
****
Generated from CSD

@<TRIPOS>ATOM
      1 C1         3.9163    0.2131    5.4014 C.ar      1 RES1    0.0000
      2 C2         4.5501    0.6693    6.5343 C.ar      1 RES1    0.0000
      3 C3         5.9340    0.8783    6.6165 C.ar      1 RES1    0.0000
      4 C4         6.7573    0.4171    5.5668 C.ar      1 RES1    0.0000
      5 C5         6.9912   -0.6935    3.3860 C.ar      1 RES1    0.0000
      6 C6         6.4279   -1.2854    2.3352 C.ar      1 RES1    0.0000
      7 C7         4.5438   -1.6259    0.8141 C.ar      1 RES1    0.0000
      8 C8         2.7156   -1.8290   -0.8101 C.ar      1 RES1    0.0000
      9 C9         1.4660   -1.5102   -1.2548 C.ar      1 RES1    0.0000
     10 C10        0.6251   -0.5819   -0.5011 C.ar      1 RES1    0.0000
     11 C11        1.1457   -0.0358    0.6843 C.ar      1 RES1    0.0000
     12 C12        2.9435    0.0716    2.3957 C.ar      1 RES1    0.0000
     13 C13        4.7038   -0.0458    4.2179 C.ar      1 RES1    0.0000
     14 C14        6.1432   -0.0341    4.3882 C.ar      1 RES1    0.0000
     15 C15        5.0296   -1.1522    2.0015 C.ar      1 RES1    0.0000
     16 C16        3.2309   -1.3495    0.3704 C.ar      1 RES1    0.0000
     17 C17        2.4245   -0.4063    1.1676 C.ar      1 RES1    0.0000
     18 C18        4.1620   -0.3488    2.8681 C.ar      1 RES1    0.0000
     19 C19        2.4719   -0.2090    5.4479 C.3       1 RES1    0.0000
     20 C20        2.2145    1.3345    2.9849 C.3       1 RES1    0.0000
     21 H1         4.1294    0.7409    7.5950 H         1 RES1    0.0000
     22 H2         6.5432    0.8941    7.7366 H         1 RES1    0.0000
     23 H3         7.7546    0.1782    6.2442 H         1 RES1    0.0000
     24 H4         5.2857   -2.0280    0.0644 H         1 RES1    0.0000
     25 H5         3.0012   -2.6465   -1.5004 H         1 RES1    0.0000
     26 H6        -0.5936   -0.3338   -0.5110 H         1 RES1    0.0000
     27 H7         0.2707    0.6768    1.1815 H         1 RES1    0.0000
     28 H8         1.6348   -0.7726    4.6547 H         1 RES1    0.0000
     29 H9         1.7361    0.5836    5.7569 H         1 RES1    0.0000
     30 H10        2.3288   -0.7284    6.2531 H         1 RES1    0.0000
     31 H11        2.6529    1.5676    3.9287 H         1 RES1    0.0000
     32 H12        1.0812    1.2546    3.0523 H         1 RES1    0.0000
     33 H13        2.0636    1.9406    2.0837 H         1 RES1    0.0000
@<TRIPOS>BOND
     1    1    2 ar
     2    2    3 ar
     3    3    4 ar
     4    4   14 ar
     5    5    6 ar
     6    6   15 ar
     7    7   15 ar
     8    8    9 ar
     9    9   10 ar
    10   10   11 ar
    11   11   17 ar
    12   12   17 ar
    13   13    1 ar
    14   14    5 ar
    15   15   18 ar
    16   16    7 ar
    17   17   16 ar
    18   18   12 ar
    19   19    1 1
    20   20   12 1
    21   21    2 1
    22   22    3 1
    23   23    4 1
    24   24    7 1
    25   25    8 1
    26   26   10 1
    27   27   11 1
    28   28   19 1
    29   29   19 1
    30   30   19 1
    31   31   20 1
    32   32   20 1
    33   33   20 1
    34    8   16 ar
    35   13   14 ar
    36   13   18 ar
@<TRIPOS>SUBSTRUCTURE
     1 RES1 1

@<TRIPOS>CRYSIN
   8.4300    8.3250    9.9710  90.0000  96.6700  90.0000   4 1

