# MOL2 file generated by ConQuest
# Please check atom types

@<TRIPOS>MOLECULE
DMNAPH04
    24    25     1
SMALL
NO_CHARGES
****
Generated from CSD

@<TRIPOS>ATOM
      1 C1        -1.7926   -0.4315    6.1446 C.ar      1 RES1    0.0000
      2 C2        -2.8346    0.4142    6.4990 C.ar      1 RES1    0.0000
      3 C3        -3.1163    1.5860    5.8182 C.ar      1 RES1    0.0000
      4 C4        -2.3318    1.9593    4.7590 C.ar      1 RES1    0.0000
      5 C5        -1.2176    1.1586    4.3660 C.ar      1 RES1    0.0000
      6 C6        -0.9331   -0.0735    5.0654 C.ar      1 RES1    0.0000
      7 C7         0.1993   -0.8492    4.5792 C.ar      1 RES1    0.0000
      8 C8         0.9375   -0.3518    3.5266 C.ar      1 RES1    0.0000
      9 C9         0.6510    0.8367    2.8685 C.ar      1 RES1    0.0000
     10 C10       -0.4267    1.6006    3.2735 C.ar      1 RES1    0.0000
     11 C11       -1.6491   -1.7054    6.9960 C.3       1 RES1    0.0000
     12 C12        0.6398   -2.1695    5.1587 C.3       1 RES1    0.0000
     13 H1        -3.4824    0.0902    7.3157 H         1 RES1    0.0000
     14 H2        -4.0022    2.1855    6.1007 H         1 RES1    0.0000
     15 H3        -2.5236    2.8862    4.2154 H         1 RES1    0.0000
     16 H4        -0.6970    2.5254    2.8018 H         1 RES1    0.0000
     17 H5         1.2762    1.1864    2.0704 H         1 RES1    0.0000
     18 H6         1.7863   -0.9366    3.1576 H         1 RES1    0.0000
     19 H7        -0.7047   -1.7553    7.4916 H         1 RES1    0.0000
     20 H8        -1.7646   -2.5740    6.3978 H         1 RES1    0.0000
     21 H9        -2.4340   -1.7067    7.7447 H         1 RES1    0.0000
     22 H10        0.9472   -2.0675    6.1726 H         1 RES1    0.0000
     23 H11       -0.1294   -2.9348    5.0961 H         1 RES1    0.0000
     24 H12        1.4502   -2.5809    4.6284 H         1 RES1    0.0000
@<TRIPOS>BOND
     1    1    2 ar
     2    2    3 ar
     3    3    4 ar
     4    4    5 ar
     5    5    6 ar
     6    6    1 ar
     7    7    6 ar
     8    8    7 ar
     9    9    8 ar
    10   10    5 ar
    11   11    1 1
    12   12    7 1
    13   13    2 1
    14   14    3 1
    15   15    4 1
    16   16   10 1
    17   17    9 1
    18   18    8 1
    19   19   11 1
    20   20   11 1
    21   21   11 1
    22   22   12 1
    23   23   12 1
    24   24   12 1
    25    9   10 ar
@<TRIPOS>SUBSTRUCTURE
     1 RES1 1

@<TRIPOS>CRYSIN
   9.7250    6.9380   16.1470  90.0000 124.4000  90.0000  14 1

