# MOL2 file generated by ConQuest
# Please check atom types

@<TRIPOS>MOLECULE
DMNAPH02
    24    25     1
SMALL
NO_CHARGES
****
Generated from CSD

@<TRIPOS>ATOM
      1 C1        -1.8197   -0.4391    6.1430 C.ar      1 RES1    0.0000
      2 C2        -2.8645    0.4108    6.5049 C.ar      1 RES1    0.0000
      3 C3        -3.1472    1.5962    5.8183 C.ar      1 RES1    0.0000
      4 C4        -2.3544    1.9711    4.7659 C.ar      1 RES1    0.0000
      5 C5        -1.2520    1.1633    4.3734 C.ar      1 RES1    0.0000
      6 C6        -0.9567   -0.0683    5.0599 C.ar      1 RES1    0.0000
      7 C7         0.1658   -0.8430    4.5876 C.ar      1 RES1    0.0000
      8 C8         0.9167   -0.3583    3.5259 C.ar      1 RES1    0.0000
      9 C9         0.6245    0.8430    2.8686 C.ar      1 RES1    0.0000
     10 C10       -0.4483    1.6086    3.2784 C.ar      1 RES1    0.0000
     11 C11       -1.6820   -1.6922    6.9905 C.3       1 RES1    0.0000
     12 C12        0.6031   -2.1706    5.1584 C.3       1 RES1    0.0000
     13 H1        -3.4988    0.1049    7.3444 H         1 RES1    0.0000
     14 H2        -4.0083    2.2231    6.1430 H         1 RES1    0.0000
     15 H3        -2.5570    2.8976    4.2297 H         1 RES1    0.0000
     16 H4        -0.7300    2.5227    2.7648 H         1 RES1    0.0000
     17 H5         1.2319    1.1875    2.0304 H         1 RES1    0.0000
     18 H6         1.7740   -0.9293    3.1773 H         1 RES1    0.0000
     19 H7        -0.7284   -1.7598    7.5174 H         1 RES1    0.0000
     20 H8        -1.8140   -2.5773    6.4078 H         1 RES1    0.0000
     21 H9        -2.4440   -1.6708    7.7729 H         1 RES1    0.0000
     22 H10        0.9260   -2.0836    6.2029 H         1 RES1    0.0000
     23 H11       -0.1798   -2.9218    5.0932 H         1 RES1    0.0000
     24 H12        1.4224   -2.5683    4.5810 H         1 RES1    0.0000
@<TRIPOS>BOND
     1    1    2 ar
     2    2    3 ar
     3    3    4 ar
     4    4    5 ar
     5    5    6 ar
     6    6    1 ar
     7    7    6 ar
     8    8    7 ar
     9    9    8 ar
    10   10    5 ar
    11   11    1 1
    12   12    7 1
    13   13    2 1
    14   14    3 1
    15   15    4 1
    16   16   10 1
    17   17    9 1
    18   18    8 1
    19   19   11 1
    20   20   11 1
    21   21   11 1
    22   22   12 1
    23   23   12 1
    24   24   12 1
    25    9   10 ar
@<TRIPOS>SUBSTRUCTURE
     1 RES1 1

@<TRIPOS>CRYSIN
   9.6460    6.9040   16.1310  90.0000 124.4300  90.0000  14 1

