# MOL2 file generated by ConQuest
# Please check atom types

@<TRIPOS>MOLECULE
DPANTR06
    44    48     1
SMALL
NO_CHARGES
****
Generated from CSD

@<TRIPOS>ATOM
      1 C1         0.3104    1.7470   -0.4327 C.ar      1 RES1    0.0000
      2 H1         0.3569    0.9843   -0.9625 H         1 RES1    0.0000
      3 C2        -0.8668    2.0757    0.1502 C.ar      1 RES1    0.0000
      4 H2        -1.6166    1.5455    0.0060 H         1 RES1    0.0000
      5 C3         1.3807    3.7142    0.5759 C.ar      1 RES1    0.0000
      6 C4         0.1061    4.0097    1.1699 C.ar      1 RES1    0.0000
      7 H3         0.0188    4.7663    1.7026 H         1 RES1    0.0000
      8 C5        -0.9631    3.2152    0.9721 C.ar      1 RES1    0.0000
      9 H4        -1.7720    3.4204    1.3818 H         1 RES1    0.0000
     10 C6         2.5054    4.5159    0.8031 C.ar      1 RES1    0.0000
     11 C7         1.4791    2.5425   -0.2529 C.ar      1 RES1    0.0000
     12 C8         2.3808    5.7497    1.6414 C.ar      1 RES1    0.0000
     13 C9         3.0230    5.8625    2.8550 C.ar      1 RES1    0.0000
     14 H5         3.5522    5.1601    3.1577 H         1 RES1    0.0000
     15 C10        2.8983    7.0028    3.6336 C.ar      1 RES1    0.0000
     16 H6         3.3495    7.0711    4.4434 H         1 RES1    0.0000
     17 C11        2.0926    8.0378    3.1902 C.ar      1 RES1    0.0000
     18 H7         1.9928    8.8014    3.7117 H         1 RES1    0.0000
     19 C12        1.4441    7.9444    1.9910 C.ar      1 RES1    0.0000
     20 H8         0.9056    8.6447    1.7002 H         1 RES1    0.0000
     21 C13        1.5856    6.8081    1.2043 C.ar      1 RES1    0.0000
     22 H9         1.1490    6.7537    0.3845 H         1 RES1    0.0000
     23 C1F        4.9247    4.9491    0.4327 C.ar      1 RES1    0.0000
     24 H1F        4.8782    5.7118    0.9625 H         1 RES1    0.0000
     25 C2F        6.1019    4.6205   -0.1502 C.ar      1 RES1    0.0000
     26 H2F        6.8517    5.1507   -0.0060 H         1 RES1    0.0000
     27 C3F        3.8544    2.9819   -0.5759 C.ar      1 RES1    0.0000
     28 C4F        5.1290    2.6865   -1.1699 C.ar      1 RES1    0.0000
     29 H3F        5.2163    1.9298   -1.7026 H         1 RES1    0.0000
     30 C5F        6.1982    3.4809   -0.9721 C.ar      1 RES1    0.0000
     31 H4F        7.0071    3.2758   -1.3818 H         1 RES1    0.0000
     32 C6F        2.7297    2.1803   -0.8031 C.ar      1 RES1    0.0000
     33 C7F        3.7560    4.1536    0.2529 C.ar      1 RES1    0.0000
     34 C8F        2.8543    0.9464   -1.6414 C.ar      1 RES1    0.0000
     35 C9F        2.2121    0.8337   -2.8550 C.ar      1 RES1    0.0000
     36 H5F        1.6829    1.5361   -3.1577 H         1 RES1    0.0000
     37 C10F       2.3368   -0.3067   -3.6336 C.ar      1 RES1    0.0000
     38 H6F        1.8856   -0.3750   -4.4434 H         1 RES1    0.0000
     39 C11F       3.1425   -1.3416   -3.1902 C.ar      1 RES1    0.0000
     40 H7F        3.2423   -2.1053   -3.7117 H         1 RES1    0.0000
     41 C12F       3.7910   -1.2483   -1.9910 C.ar      1 RES1    0.0000
     42 H8F        4.3295   -1.9486   -1.7002 H         1 RES1    0.0000
     43 C13F       3.6495   -0.1120   -1.2043 C.ar      1 RES1    0.0000
     44 H9F        4.0861   -0.0576   -0.3845 H         1 RES1    0.0000
@<TRIPOS>BOND
     1    1    2 1
     2    3    1 ar
     3    4    3 1
     4    5    6 ar
     5    6    7 1
     6    8    3 ar
     7    9    8 1
     8   10    5 ar
     9   11    1 ar
    10   12   10 1
    11   13   12 ar
    12   14   13 1
    13   15   13 ar
    14   16   15 1
    15   17   15 ar
    16   18   17 1
    17   19   17 ar
    18   20   19 1
    19   21   12 ar
    20   22   21 1
    21   23   24 1
    22   25   23 ar
    23   26   25 1
    24   27   28 ar
    25   28   29 1
    26   30   25 ar
    27   31   30 1
    28   32   11 ar
    29   33   10 ar
    30   34   32 1
    31   35   34 ar
    32   36   35 1
    33   37   35 ar
    34   38   37 1
    35   39   37 ar
    36   40   39 1
    37   41   39 ar
    38   42   41 1
    39   43   34 ar
    40   44   43 1
    41    5   11 ar
    42    6    8 ar
    43   19   21 ar
    44   23   33 ar
    45   27   32 ar
    46   27   33 ar
    47   28   30 ar
    48   41   43 ar
@<TRIPOS>SUBSTRUCTURE
     1 RES1 1

@<TRIPOS>CRYSIN
  10.4702   13.3923   12.0158  90.0000  89.9310  90.0000  15 1

