# MOL2 file generated by ConQuest
# Please check atom types

@<TRIPOS>MOLECULE
DPNAPH01
    38    41     1
SMALL
NO_CHARGES
****
Generated from CSD

@<TRIPOS>ATOM
      1 C1        -1.4388   15.2731    2.0094 C.ar      1 RES1    0.0000
      2 C2        -2.5548   16.0000    2.3619 C.ar      1 RES1    0.0000
      3 C3        -2.5776   17.3957    2.3576 C.ar      1 RES1    0.0000
      4 C4        -1.4721   18.0726    1.9807 C.ar      1 RES1    0.0000
      5 C5         0.8267   18.1447    1.1714 C.ar      1 RES1    0.0000
      6 C6         1.9794   17.5399    0.7998 C.ar      1 RES1    0.0000
      7 C7         2.0438   16.1442    0.8015 C.ar      1 RES1    0.0000
      8 C8         0.9776   15.3552    1.1488 C.ar      1 RES1    0.0000
      9 C9        -0.2515   15.9651    1.5752 C.ar      1 RES1    0.0000
     10 C10       -0.3004   17.4037    1.5752 C.ar      1 RES1    0.0000
     11 C11       -1.5957   13.7892    2.1223 C.ar      1 RES1    0.0000
     12 C12       -2.5127   13.1344    1.3164 C.ar      1 RES1    0.0000
     13 C13       -2.7167   11.7707    1.4380 C.ar      1 RES1    0.0000
     14 C14       -2.0131   11.0478    2.3654 C.ar      1 RES1    0.0000
     15 C15       -1.1151   11.6866    3.1930 C.ar      1 RES1    0.0000
     16 C16       -0.9080   13.0503    3.0792 C.ar      1 RES1    0.0000
     17 C17        1.1941   13.8813    1.0351 C.ar      1 RES1    0.0000
     18 C18        0.5390   13.1144    0.0782 C.ar      1 RES1    0.0000
     19 C19        0.7952   11.7627   -0.0217 C.ar      1 RES1    0.0000
     20 C20        1.6966   11.1519    0.8093 C.ar      1 RES1    0.0000
     21 C21        2.3669   11.9029    1.7437 C.ar      1 RES1    0.0000
     22 C22        2.1324   13.2586    1.8574 C.ar      1 RES1    0.0000
     23 H1        -3.3886   15.4753    2.6528 H         1 RES1    0.0000
     24 H2        -3.3976   17.8803    2.6928 H         1 RES1    0.0000
     25 H3        -1.4840   19.0197    1.9555 H         1 RES1    0.0000
     26 H4         0.7122   19.1099    1.1367 H         1 RES1    0.0000
     27 H5         2.7713   18.0866    0.5280 H         1 RES1    0.0000
     28 H6         2.8978   15.7016    0.4707 H         1 RES1    0.0000
     29 H7        -2.9821   13.6871    0.6834 H         1 RES1    0.0000
     30 H8        -3.3347   11.3922    0.8406 H         1 RES1    0.0000
     31 H9        -2.1697   10.0706    2.4601 H         1 RES1    0.0000
     32 H10       -0.6149   11.1900    3.9484 H         1 RES1    0.0000
     33 H11       -0.2402   13.5149    3.6818 H         1 RES1    0.0000
     34 H12       -0.1716   13.6090   -0.5089 H         1 RES1    0.0000
     35 H13        0.3111   11.2621   -0.7042 H         1 RES1    0.0000
     36 H14        1.8818   10.2107    0.7424 H         1 RES1    0.0000
     37 H15        2.9886   11.4843    2.3741 H         1 RES1    0.0000
     38 H16        2.5883   13.8072    2.5643 H         1 RES1    0.0000
@<TRIPOS>BOND
     1    1    2 ar
     2    2    3 ar
     3    3    4 ar
     4    4   10 ar
     5    5    6 ar
     6    6    7 ar
     7    7    8 ar
     8    8    9 ar
     9    9    1 ar
    10   10    5 ar
    11   11    1 1
    12   12   11 ar
    13   13   12 ar
    14   14   13 ar
    15   15   14 ar
    16   16   11 ar
    17   17    8 1
    18   18   17 ar
    19   19   18 ar
    20   20   19 ar
    21   21   20 ar
    22   22   17 ar
    23   23    2 1
    24   24    3 1
    25   25    4 1
    26   26    5 1
    27   27    6 1
    28   28    7 1
    29   29   12 1
    30   30   13 1
    31   31   14 1
    32   32   15 1
    33   33   16 1
    34   34   18 1
    35   35   19 1
    36   36   20 1
    37   37   21 1
    38   38   22 1
    39    9   10 ar
    40   15   16 ar
    41   21   22 ar
@<TRIPOS>SUBSTRUCTURE
     1 RES1 1

@<TRIPOS>CRYSIN
   8.5850   20.0250    9.6490  90.0000 115.8490  90.0000 231 1

