# MOL2 file generated by ConQuest
# Please check atom types

@<TRIPOS>MOLECULE
DUPHAX
    62    73     1
SMALL
NO_CHARGES
****
Generated from CSD

@<TRIPOS>ATOM
      1 C1        19.0970   14.3543   -0.7672 C.ar      1 RES1    0.0000
      2 C2        20.3311   14.8424   -0.4415 C.ar      1 RES1    0.0000
      3 C3        21.0900   14.2435    0.5128 C.ar      1 RES1    0.0000
      4 C4        20.6148   13.1267    1.1959 C.ar      1 RES1    0.0000
      5 C5        21.3422   12.5193    2.2646 C.ar      1 RES1    0.0000
      6 C6        20.9211   11.3875    2.8428 C.ar      1 RES1    0.0000
      7 C7        19.6937   10.7418    2.4641 C.ar      1 RES1    0.0000
      8 C8        19.2636    9.5376    3.0373 C.ar      1 RES1    0.0000
      9 C9        20.1554    8.6296    3.7650 C.ar      1 RES1    0.0000
     10 C10       21.5584    8.6126    3.4997 C.ar      1 RES1    0.0000
     11 C11       22.4029    7.8133    4.2362 C.ar      1 RES1    0.0000
     12 C12       21.9097    6.9885    5.2109 C.ar      1 RES1    0.0000
     13 C13       20.5585    6.9033    5.4029 C.ar      1 RES1    0.0000
     14 C14       19.6510    7.6705    4.6575 C.ar      1 RES1    0.0000
     15 C15       18.1984    7.4468    4.7193 C.ar      1 RES1    0.0000
     16 C16       17.6377    6.5239    5.5440 C.ar      1 RES1    0.0000
     17 C17       16.2639    6.2106    5.5103 C.ar      1 RES1    0.0000
     18 C18       15.7100    5.2579    6.4395 C.ar      1 RES1    0.0000
     19 C19       14.3790    4.9787    6.4474 C.ar      1 RES1    0.0000
     20 C20       13.5413    5.6266    5.5267 C.ar      1 RES1    0.0000
     21 C21       14.0187    6.5346    4.6357 C.ar      1 RES1    0.0000
     22 C22       15.4172    6.8628    4.6144 C.ar      1 RES1    0.0000
     23 C23       15.9734    7.8432    3.7001 C.ar      1 RES1    0.0000
     24 C24       15.1785    8.4911    2.7423 C.ar      1 RES1    0.0000
     25 C25       15.6649    9.4779    1.9374 C.ar      1 RES1    0.0000
     26 C26       14.8362   10.1407    0.8994 C.ar      1 RES1    0.0000
     27 C27       13.5075    9.7635    0.6791 C.ar      1 RES1    0.0000
     28 C28       12.7306   10.3602   -0.2901 C.ar      1 RES1    0.0000
     29 C29       13.2508   11.3577   -1.0534 C.ar      1 RES1    0.0000
     30 C30       14.5704   11.8095   -0.8524 C.ar      1 RES1    0.0000
     31 C31       15.1470   12.8667   -1.6474 C.ar      1 RES1    0.0000
     32 C32       16.3923   13.2801   -1.4187 C.ar      1 RES1    0.0000
     33 C33       17.2368   12.6983   -0.3995 C.ar      1 RES1    0.0000
     34 C34       18.5430   13.2205   -0.1252 C.ar      1 RES1    0.0000
     35 C35       19.3267   12.5960    0.8613 C.ar      1 RES1    0.0000
     36 C36       18.8582   11.4195    1.5568 C.ar      1 RES1    0.0000
     37 C37       17.8809    9.1689    2.9344 C.ar      1 RES1    0.0000
     38 C38       17.3562    8.1266    3.7704 C.ar      1 RES1    0.0000
     39 C39       17.0454    9.8807    2.0651 C.ar      1 RES1    0.0000
     40 C40       17.5431   10.9570    1.2954 C.ar      1 RES1    0.0000
     41 C41       16.7256   11.6284    0.3173 C.ar      1 RES1    0.0000
     42 C42       15.3789   11.1829    0.1213 C.ar      1 RES1    0.0000
     43 H1        18.5340   14.8338   -1.5543 H         1 RES1    0.0000
     44 H2        20.7184   15.6651   -0.9653 H         1 RES1    0.0000
     45 H3        22.0471   14.6420    0.7573 H         1 RES1    0.0000
     46 H4        22.2498   12.9796    2.5988 H         1 RES1    0.0000
     47 H5        21.5066   10.9762    3.6185 H         1 RES1    0.0000
     48 H6        21.9345    9.2072    2.7275 H         1 RES1    0.0000
     49 H7        23.4433    7.8219    4.0293 H         1 RES1    0.0000
     50 H8        22.5650    6.4365    5.8014 H         1 RES1    0.0000
     51 H9        20.2004    6.2447    6.1430 H         1 RES1    0.0000
     52 H10       18.2412    6.0103    6.2618 H         1 RES1    0.0000
     53 H11       16.3495    4.7741    7.1231 H         1 RES1    0.0000
     54 H12       13.9849    4.2839    7.1330 H         1 RES1    0.0000
     55 H13       12.5211    5.4135    5.5242 H         1 RES1    0.0000
     56 H14       13.3544    6.9907    3.9501 H         1 RES1    0.0000
     57 H15       14.1426    8.2055    2.6433 H         1 RES1    0.0000
     58 H16       13.0841    9.0154    1.3019 H         1 RES1    0.0000
     59 H17       11.7329   10.0171   -0.4405 H         1 RES1    0.0000
     60 H18       12.6562   11.8074   -1.8167 H         1 RES1    0.0000
     61 H19       14.5704   13.3206   -2.4106 H         1 RES1    0.0000
     62 H20       16.7774   14.0666   -2.0196 H         1 RES1    0.0000
@<TRIPOS>BOND
     1    1    2 ar
     2    2    3 ar
     3    3    4 ar
     4    4    5 ar
     5    5    6 ar
     6    6    7 ar
     7    7    8 ar
     8    8    9 ar
     9    9   10 ar
    10   10   11 ar
    11   11   12 ar
    12   12   13 ar
    13   13   14 ar
    14   14    9 ar
    15   15   14 ar
    16   16   15 ar
    17   17   16 ar
    18   18   17 ar
    19   19   18 ar
    20   20   19 ar
    21   21   20 ar
    22   22   17 ar
    23   23   22 ar
    24   24   23 ar
    25   25   24 ar
    26   26   25 ar
    27   27   26 ar
    28   28   27 ar
    29   29   28 ar
    30   30   29 ar
    31   31   30 ar
    32   32   31 ar
    33   33   32 ar
    34   34    1 ar
    35   35    4 ar
    36   36    7 ar
    37   37    8 ar
    38   38   15 ar
    39   39   25 ar
    40   40   36 ar
    41   41   33 ar
    42   42   26 ar
    43   43    1 1
    44   44    2 1
    45   45    3 1
    46   46    5 1
    47   47    6 1
    48   48   10 1
    49   49   11 1
    50   50   12 1
    51   51   13 1
    52   52   16 1
    53   53   18 1
    54   54   19 1
    55   55   20 1
    56   56   21 1
    57   57   24 1
    58   58   27 1
    59   59   28 1
    60   60   29 1
    61   61   31 1
    62   62   32 1
    63   21   22 ar
    64   23   38 ar
    65   30   42 ar
    66   33   34 ar
    67   34   35 ar
    68   35   36 ar
    69   37   38 ar
    70   37   39 ar
    71   39   40 ar
    72   40   41 ar
    73   41   42 ar
@<TRIPOS>SUBSTRUCTURE
     1 RES1 1

@<TRIPOS>CRYSIN
  22.5200   21.3130    4.9500  90.0000  90.0000  90.0000  33 2

