# MOL2 file generated by ConQuest
# Please check atom types

@<TRIPOS>MOLECULE
DUWHOT
    66    69     1
SMALL
NO_CHARGES
****
Generated from CSD

@<TRIPOS>ATOM
      1 C1         1.4670    3.2887   -1.7209 C.ar      1 RES1    0.0000
      2 C2         0.8519    4.0234   -2.6800 C.ar      1 RES1    0.0000
      3 H1         1.2736    4.8050   -2.9870 H         1 RES1    0.0000
      4 C3        -0.4003    3.6627   -3.2408 C.ar      1 RES1    0.0000
      5 H2        -0.7924    4.2332   -3.8758 H         1 RES1    0.0000
      6 C4        -1.0559    2.5185   -2.8904 C.ar      1 RES1    0.0000
      7 C5        -0.4777    1.7020   -1.8453 C.ar      1 RES1    0.0000
      8 C6         0.7617    2.1122   -1.2235 C.ar      1 RES1    0.0000
      9 C7         1.2423    1.3787   -0.1465 C.ar      1 RES1    0.0000
     10 H3         2.0277    1.6646    0.2831 H         1 RES1    0.0000
     11 C8         0.5927    0.2200    0.3262 C.ar      1 RES1    0.0000
     12 C9        -1.0948    0.5375   -1.3941 C.ar      1 RES1    0.0000
     13 H4        -1.8793    0.2472   -1.8231 H         1 RES1    0.0000
     14 C10        2.8461    3.6316   -1.1956 C.3       1 RES1    0.0000
     15 H5         2.8089    3.5974   -0.2059 H         1 RES1    0.0000
     16 C11        3.3289    5.0275   -1.5937 C.3       1 RES1    0.0000
     17 H6         3.4282    5.0725   -2.5575 H         1 RES1    0.0000
     18 H7         4.1850    5.2062   -1.1718 H         1 RES1    0.0000
     19 H8         2.6806    5.6886   -1.3025 H         1 RES1    0.0000
     20 C12        3.8851    2.6098   -1.6554 C.3       1 RES1    0.0000
     21 H9         3.6018    1.7198   -1.3935 H         1 RES1    0.0000
     22 H10        4.7407    2.8113   -1.2451 H         1 RES1    0.0000
     23 H11        3.9730    2.6497   -2.6208 H         1 RES1    0.0000
     24 C13       -2.3277    2.0811   -3.5931 C.3       1 RES1    0.0000
     25 H12       -2.8935    1.6202   -2.9237 H         1 RES1    0.0000
     26 C14       -3.1466    3.2310   -4.1687 C.3       1 RES1    0.0000
     27 H13       -3.3267    3.8801   -3.4700 H         1 RES1    0.0000
     28 H14       -3.9851    2.8887   -4.5171 H         1 RES1    0.0000
     29 H15       -2.6493    3.6563   -4.8853 H         1 RES1    0.0000
     30 C15       -1.9980    1.0669   -4.6929 C.3       1 RES1    0.0000
     31 H16       -1.4626    1.4960   -5.3782 H         1 RES1    0.0000
     32 H17       -2.8216    0.7366   -5.0852 H         1 RES1    0.0000
     33 H18       -1.5021    0.3258   -4.3113 H         1 RES1    0.0000
     34 C1D       -1.4670   -3.2887    1.7209 C.ar      1 RES1    0.0000
     35 C2D       -0.8519   -4.0234    2.6800 C.ar      1 RES1    0.0000
     36 H1D       -1.2736   -4.8050    2.9870 H         1 RES1    0.0000
     37 C3D        0.4003   -3.6627    3.2408 C.ar      1 RES1    0.0000
     38 H2D        0.7924   -4.2332    3.8758 H         1 RES1    0.0000
     39 C4D        1.0559   -2.5185    2.8904 C.ar      1 RES1    0.0000
     40 C5D        0.4777   -1.7020    1.8453 C.ar      1 RES1    0.0000
     41 C6D       -0.7617   -2.1122    1.2235 C.ar      1 RES1    0.0000
     42 C7D       -1.2423   -1.3787    0.1465 C.ar      1 RES1    0.0000
     43 H3D       -2.0277   -1.6646   -0.2831 H         1 RES1    0.0000
     44 C8D       -0.5927   -0.2200   -0.3262 C.ar      1 RES1    0.0000
     45 C9D        1.0948   -0.5375    1.3941 C.ar      1 RES1    0.0000
     46 H4D        1.8793   -0.2472    1.8231 H         1 RES1    0.0000
     47 C10D      -2.8461   -3.6316    1.1956 C.3       1 RES1    0.0000
     48 H5D       -2.8089   -3.5974    0.2059 H         1 RES1    0.0000
     49 C11D      -3.3289   -5.0275    1.5937 C.3       1 RES1    0.0000
     50 H6D       -3.4282   -5.0725    2.5575 H         1 RES1    0.0000
     51 H7D       -4.1850   -5.2062    1.1718 H         1 RES1    0.0000
     52 H8D       -2.6806   -5.6886    1.3025 H         1 RES1    0.0000
     53 C12D      -3.8851   -2.6098    1.6554 C.3       1 RES1    0.0000
     54 H9D       -3.6018   -1.7198    1.3935 H         1 RES1    0.0000
     55 H10D      -4.7407   -2.8113    1.2451 H         1 RES1    0.0000
     56 H11D      -3.9730   -2.6497    2.6208 H         1 RES1    0.0000
     57 C13D       2.3277   -2.0811    3.5931 C.3       1 RES1    0.0000
     58 H12D       2.8935   -1.6202    2.9237 H         1 RES1    0.0000
     59 C14D       3.1466   -3.2310    4.1687 C.3       1 RES1    0.0000
     60 H13D       3.3267   -3.8801    3.4700 H         1 RES1    0.0000
     61 H14D       3.9851   -2.8887    4.5171 H         1 RES1    0.0000
     62 H15D       2.6493   -3.6563    4.8853 H         1 RES1    0.0000
     63 C15D       1.9980   -1.0669    4.6929 C.3       1 RES1    0.0000
     64 H16D       1.4626   -1.4960    5.3782 H         1 RES1    0.0000
     65 H17D       2.8216   -0.7366    5.0852 H         1 RES1    0.0000
     66 H18D       1.5021   -0.3258    4.3113 H         1 RES1    0.0000
@<TRIPOS>BOND
     1    1    2 ar
     2    2    3 1
     3    4    2 ar
     4    5    4 1
     5    6    4 ar
     6    7    6 ar
     7    8    1 ar
     8    9    8 ar
     9   10    9 1
    10   11    9 ar
    11   12    7 ar
    12   13   12 1
    13   14    1 1
    14   15   14 1
    15   16   14 1
    16   17   16 1
    17   18   16 1
    18   19   16 1
    19   20   14 1
    20   21   20 1
    21   22   20 1
    22   23   20 1
    23   24    6 1
    24   25   24 1
    25   26   24 1
    26   27   26 1
    27   28   26 1
    28   29   26 1
    29   30   24 1
    30   31   30 1
    31   32   30 1
    32   33   30 1
    33   34   35 ar
    34   35   36 1
    35   37   35 ar
    36   38   37 1
    37   39   37 ar
    38   40   39 ar
    39   41   34 ar
    40   42   41 ar
    41   43   42 1
    42   44   11 ar
    43   45   11 ar
    44   46   45 1
    45   47   34 1
    46   48   47 1
    47   49   47 1
    48   50   49 1
    49   51   49 1
    50   52   49 1
    51   53   47 1
    52   54   53 1
    53   55   53 1
    54   56   53 1
    55   57   39 1
    56   58   57 1
    57   59   57 1
    58   60   59 1
    59   61   59 1
    60   62   59 1
    61   63   57 1
    62   64   63 1
    63   65   63 1
    64   66   63 1
    65    7    8 ar
    66   12   44 ar
    67   40   41 ar
    68   40   45 ar
    69   42   44 ar
@<TRIPOS>SUBSTRUCTURE
     1 RES1 1

@<TRIPOS>CRYSIN
  18.2670    6.3390   19.7950  90.0000  90.3570  90.0000  15 1

