# MOL2 file generated by ConQuest
# Please check atom types

@<TRIPOS>MOLECULE
EAFMUT
    50    54     1
SMALL
NO_CHARGES
****
Generated from CSD

@<TRIPOS>ATOM
      1 C1         0.5647   -0.0015    8.6510 C.ar      1 RES1    0.0000
      2 C2        -0.6570    0.5251    8.2892 C.ar      1 RES1    0.0000
      3 C3        -1.2140    1.5641    9.0572 C.ar      1 RES1    0.0000
      4 C4        -0.5884    2.1056   10.1350 C.ar      1 RES1    0.0000
      5 C5         3.3853    2.2682   13.0677 C.ar      1 RES1    0.0000
      6 C6         4.6173    1.8025   13.3801 C.ar      1 RES1    0.0000
      7 C7         5.2454    0.7412   12.6577 C.ar      1 RES1    0.0000
      8 C8         4.5671    0.1560   11.6111 C.ar      1 RES1    0.0000
      9 C9         2.5584    0.1032   10.1402 C.ar      1 RES1    0.0000
     10 C10        1.3961    2.1605   11.5981 C.ar      1 RES1    0.0000
     11 C11        3.2548    0.6395   11.2271 C.ar      1 RES1    0.0000
     12 C12        2.6593    1.7038   11.9782 C.ar      1 RES1    0.0000
     13 C13        1.2798    0.5607    9.7718 C.ar      1 RES1    0.0000
     14 C14        0.6907    1.6243   10.5307 C.ar      1 RES1    0.0000
     15 C15        1.1549   -1.1579    7.8922 C.ar      1 RES1    0.0000
     16 C16        1.1097   -2.4361    8.4206 C.ar      1 RES1    0.0000
     17 C17        1.6009   -3.5100    7.7151 C.ar      1 RES1    0.0000
     18 C18        2.1634   -3.3280    6.4733 C.ar      1 RES1    0.0000
     19 C19        2.2192   -2.0573    5.9357 C.ar      1 RES1    0.0000
     20 C20        1.7290   -0.9863    6.6582 C.ar      1 RES1    0.0000
     21 C21        5.1556   -1.0168   10.8756 C.ar      1 RES1    0.0000
     22 C22        6.2637   -0.8734   10.0699 C.ar      1 RES1    0.0000
     23 C23        6.7974   -1.9867    9.4203 C.ar      1 RES1    0.0000
     24 C24        6.2051   -3.2307    9.5518 C.ar      1 RES1    0.0000
     25 C25        5.1152   -3.3689   10.3432 C.ar      1 RES1    0.0000
     26 C26        4.5869   -2.2756   11.0045 C.ar      1 RES1    0.0000
     27 C27        6.6191    0.2852   13.0924 C.3       1 RES1    0.0000
     28 C28       -1.4304    0.0163    7.0838 C.3       1 RES1    0.0000
     29 H1        -2.1466    1.9087    8.8125 H         1 RES1    0.0000
     30 H2        -0.9957    2.7851   10.7259 H         1 RES1    0.0000
     31 H3         2.8759    2.9782   13.6157 H         1 RES1    0.0000
     32 H4         5.0971    2.1910   14.0843 H         1 RES1    0.0000
     33 H5         2.9401   -0.5793    9.5935 H         1 RES1    0.0000
     34 H6         0.8918    2.8742   12.1969 H         1 RES1    0.0000
     35 H7         0.7375   -2.6143    9.3852 H         1 RES1    0.0000
     36 H8         1.4779   -4.4116    8.1746 H         1 RES1    0.0000
     37 H9         2.5807   -4.0551    6.0138 H         1 RES1    0.0000
     38 H10        2.7095   -1.8642    5.0375 H         1 RES1    0.0000
     39 H11        1.7682   -0.1782    6.3002 H         1 RES1    0.0000
     40 H12        6.6403   -0.0594   10.0751 H         1 RES1    0.0000
     41 H13        7.5700   -1.8493    8.9426 H         1 RES1    0.0000
     42 H14        6.5837   -4.0477    9.0468 H         1 RES1    0.0000
     43 H15        4.7078   -4.2928   10.5828 H         1 RES1    0.0000
     44 H16        3.7962   -2.4583   11.5590 H         1 RES1    0.0000
     45 H17        6.7906    0.8021   14.0322 H         1 RES1    0.0000
     46 H18        7.3453    0.5645   12.3531 H         1 RES1    0.0000
     47 H19        6.6026   -0.7947   13.2382 H         1 RES1    0.0000
     48 H20       -1.3326    0.7204    6.2611 H         1 RES1    0.0000
     49 H21       -2.4927   -0.0817    7.3546 H         1 RES1    0.0000
     50 H22       -1.0684   -0.8690    6.8339 H         1 RES1    0.0000
@<TRIPOS>BOND
     1    1    2 ar
     2    2    3 ar
     3    3    4 ar
     4    4   14 ar
     5    5    6 ar
     6    6    7 ar
     7    7    8 ar
     8    8   11 ar
     9    9   11 ar
    10   10   12 ar
    11   11   12 ar
    12   12    5 ar
    13   13    1 ar
    14   14   10 ar
    15   15    1 1
    16   16   15 ar
    17   17   16 ar
    18   18   17 ar
    19   19   18 ar
    20   20   15 ar
    21   21    8 1
    22   22   21 ar
    23   23   22 ar
    24   24   23 ar
    25   25   24 ar
    26   26   21 ar
    27   27    7 1
    28   28    2 1
    29   29    3 1
    30   30    4 1
    31   31    5 1
    32   32    6 1
    33   33    9 1
    34   34   10 1
    35   35   16 1
    36   36   17 1
    37   37   18 1
    38   38   19 1
    39   39   20 1
    40   40   22 1
    41   41   23 1
    42   42   24 1
    43   43   25 1
    44   44   26 1
    45   45   27 1
    46   46   27 1
    47   47   27 1
    48   48   28 1
    49   49   28 1
    50   50   28 1
    51    9   13 ar
    52   13   14 ar
    53   19   20 ar
    54   25   26 ar
@<TRIPOS>SUBSTRUCTURE
     1 RES1 1

@<TRIPOS>CRYSIN
  10.4380    7.4270   13.4160  90.0000 104.0100  90.0000   4 1

