# MOL2 file generated by ConQuest
# Please check atom types

@<TRIPOS>MOLECULE
EAFNAA
    56    60     1
SMALL
NO_CHARGES
****
Generated from CSD

@<TRIPOS>ATOM
      1 C1         4.8987    7.7576    0.7084 C.ar      1 RES1    0.0000
      2 C2         5.5608    6.6527    0.2163 C.ar      1 RES1    0.0000
      3 C3         6.4824    6.8540   -0.8590 C.ar      1 RES1    0.0000
      4 C4         6.7690    8.0381   -1.3803 C.ar      1 RES1    0.0000
      5 C5         6.0008   12.9436   -1.3877 C.ar      1 RES1    0.0000
      6 C6         5.3645   13.9756   -0.8658 C.ar      1 RES1    0.0000
      7 C7         4.4229   13.8964    0.1820 C.ar      1 RES1    0.0000
      8 C8         4.1505   12.6352    0.7121 C.ar      1 RES1    0.0000
      9 C9         4.5361   10.1985    0.6562 C.ar      1 RES1    0.0000
     10 C10        6.3706   10.4769   -1.3892 C.ar      1 RES1    0.0000
     11 C11        4.7998   11.4725    0.1655 C.ar      1 RES1    0.0000
     12 C12        5.7471   11.6203   -0.8926 C.ar      1 RES1    0.0000
     13 C13        5.1696    9.0573    0.1775 C.ar      1 RES1    0.0000
     14 C14        6.1169    9.2243   -0.8874 C.ar      1 RES1    0.0000
     15 C15        3.9270    7.6548    1.8605 C.ar      1 RES1    0.0000
     16 C16        4.3498    8.0038    3.1185 C.ar      1 RES1    0.0000
     17 C17        3.4640    8.0466    4.1752 C.ar      1 RES1    0.0000
     18 C18        2.1469    7.7576    3.9589 C.ar      1 RES1    0.0000
     19 C19        1.6998    7.4000    2.6950 C.ar      1 RES1    0.0000
     20 C20        2.5970    7.3486    1.6264 C.ar      1 RES1    0.0000
     21 C21        3.1975   12.4618    1.8314 C.ar      1 RES1    0.0000
     22 C22        3.6733   12.5110    3.1580 C.ar      1 RES1    0.0000
     23 C23        2.8091   12.3333    4.2117 C.ar      1 RES1    0.0000
     24 C24        1.4991   12.0978    3.9686 C.ar      1 RES1    0.0000
     25 C25        0.9961   12.0528    2.6733 C.ar      1 RES1    0.0000
     26 C26        1.8660   12.2220    1.6092 C.ar      1 RES1    0.0000
     27 C27        5.3315    5.2866    0.7658 C.3       1 RES1    0.0000
     28 C28        3.7664   15.1276    0.7039 C.3       1 RES1    0.0000
     29 C29        2.0953    7.0039    0.2528 C.3       1 RES1    0.0000
     30 C30        1.3300   12.1320    0.2192 C.3       1 RES1    0.0000
     31 H1         6.9510    6.1024   -1.2528 H         1 RES1    0.0000
     32 H2         7.4383    8.1366   -2.1029 H         1 RES1    0.0000
     33 H3         6.6644   13.0613   -2.1103 H         1 RES1    0.0000
     34 H4         5.5751   14.8599   -1.2006 H         1 RES1    0.0000
     35 H5         3.8840   10.1065    1.3870 H         1 RES1    0.0000
     36 H6         7.0370   10.5775   -2.1178 H         1 RES1    0.0000
     37 H7         5.2885    8.2436    3.2885 H         1 RES1    0.0000
     38 H8         3.7407    8.2864    5.0931 H         1 RES1    0.0000
     39 H9         1.5192    7.8154    4.7054 H         1 RES1    0.0000
     40 H10        0.7596    7.1944    2.6025 H         1 RES1    0.0000
     41 H11        4.6149   12.7187    3.3109 H         1 RES1    0.0000
     42 H12        3.1244   12.3333    5.1528 H         1 RES1    0.0000
     43 H13        0.8886   11.9907    4.7427 H         1 RES1    0.0000
     44 H14        0.0430   11.8837    2.5503 H         1 RES1    0.0000
     45 H15        4.5002    4.9676    1.5212 H         1 RES1    0.0000
     46 H16        6.1198    5.0104    1.2304 H         1 RES1    0.0000
     47 H17        5.1595    4.6892    0.0373 H         1 RES1    0.0000
     48 H18        3.2104   15.9734    0.1268 H         1 RES1    0.0000
     49 H19        4.4286   15.6522    1.2229 H         1 RES1    0.0000
     50 H20        3.0814   14.8599    1.3721 H         1 RES1    0.0000
     51 H21        1.1609    6.7234    0.1864 H         1 RES1    0.0000
     52 H22        2.6371    6.2951   -0.0969 H         1 RES1    0.0000
     53 H23        2.1928    7.7940   -0.3057 H         1 RES1    0.0000
     54 H24        0.3583   11.9051    0.1268 H         1 RES1    0.0000
     55 H25        1.8345   11.4340   -0.2610 H         1 RES1    0.0000
     56 H26        1.5049   12.9543   -0.2461 H         1 RES1    0.0000
@<TRIPOS>BOND
     1    1    2 ar
     2    2    3 ar
     3    3    4 ar
     4    4   14 ar
     5    5    6 ar
     6    6    7 ar
     7    7    8 ar
     8    8   11 ar
     9    9   11 ar
    10   10   12 ar
    11   11   12 ar
    12   12    5 ar
    13   13    1 ar
    14   14   10 ar
    15   15    1 1
    16   16   15 ar
    17   17   16 ar
    18   18   17 ar
    19   19   18 ar
    20   20   15 ar
    21   21    8 1
    22   22   21 ar
    23   23   22 ar
    24   24   23 ar
    25   25   24 ar
    26   26   21 ar
    27   27    2 1
    28   28    7 1
    29   29   20 1
    30   30   26 1
    31   31    3 1
    32   32    4 1
    33   33    5 1
    34   34    6 1
    35   35    9 1
    36   36   10 1
    37   37   16 1
    38   38   17 1
    39   39   18 1
    40   40   19 1
    41   41   22 1
    42   42   23 1
    43   43   24 1
    44   44   25 1
    45   45   27 1
    46   46   27 1
    47   47   27 1
    48   48   28 1
    49   49   28 1
    50   50   28 1
    51   51   29 1
    52   52   29 1
    53   53   29 1
    54   54   30 1
    55   55   30 1
    56   56   30 1
    57    9   13 ar
    58   13   14 ar
    59   19   20 ar
    60   25   26 ar
@<TRIPOS>SUBSTRUCTURE
     1 RES1 1

@<TRIPOS>CRYSIN
  14.3320   21.4120    7.4570  90.0000  90.0000  90.0000  33 1

