# MOL2 file generated by ConQuest
# Please check atom types

@<TRIPOS>MOLECULE
EDUZEI
    84    86     1
SMALL
NO_CHARGES
****
Generated from CSD

@<TRIPOS>ATOM
      1 C1         5.8847    4.2093    3.9922 C.ar      1 RES1    0.0000
      2 C2         5.7462    2.9547    4.5946 C.ar      1 RES1    0.0000
      3 C3         6.5739    2.5208    5.6929 C.ar      1 RES1    0.0000
      4 C4         6.3332    1.3017    6.2850 C.ar      1 RES1    0.0000
      5 C5         5.2680    0.4523    5.8239 C.ar      1 RES1    0.0000
      6 C6         4.4990    0.8127    4.7398 C.ar      1 RES1    0.0000
      7 C7         4.7235    2.0880    4.1065 C.ar      1 RES1    0.0000
      8 C8         3.9472    2.5208    3.0288 C.ar      1 RES1    0.0000
      9 C9         4.0820    3.7709    2.4341 C.ar      1 RES1    0.0000
     10 C10        3.2507    4.1852    1.3307 C.ar      1 RES1    0.0000
     11 C11        3.3963    5.4525    0.8054 C.ar      1 RES1    0.0000
     12 C12        4.3897    6.3582    1.3410 C.ar      1 RES1    0.0000
     13 C13        5.1986    5.9863    2.3827 C.ar      1 RES1    0.0000
     14 C14        5.0744    4.6639    2.9479 C.ar      1 RES1    0.0000
     15 C15        7.7171    3.4104    6.1373 C.3       1 RES1    0.0000
     16 C16        8.9609    3.2267    5.2844 C.3       1 RES1    0.0000
     17 C17        7.1750    0.8517    7.4719 C.3       1 RES1    0.0000
     18 C18        6.5835    1.3189    8.8026 C.3       1 RES1    0.0000
     19 C19        5.0078   -0.8873    6.5098 C.3       1 RES1    0.0000
     20 C20        5.7578   -2.0306    5.8637 C.3       1 RES1    0.0000
     21 C21        3.3835   -0.0712    4.2157 C.3       1 RES1    0.0000
     22 C22        2.0087    0.3777    4.7141 C.3       1 RES1    0.0000
     23 C23        2.2169    3.2199    0.8054 C.3       1 RES1    0.0000
     24 C24        0.9059    3.2417    1.6069 C.3       1 RES1    0.0000
     25 C25       -0.0717    2.1856    1.1445 C.3       1 RES1    0.0000
     26 C26        2.5416    5.8841   -0.3725 C.3       1 RES1    0.0000
     27 C27        3.1484    5.5489   -1.7289 C.3       1 RES1    0.0000
     28 C28        2.2793    5.9794   -2.8811 C.3       1 RES1    0.0000
     29 C29        4.4794    7.7495    0.7347 C.3       1 RES1    0.0000
     30 C30        3.4796    8.7309    1.3410 C.3       1 RES1    0.0000
     31 C31        3.3737   10.0235    0.5626 C.3       1 RES1    0.0000
     32 C32        6.2469    6.9127    2.9672 C.3       1 RES1    0.0000
     33 C33        7.6484    6.6590    2.4303 C.3       1 RES1    0.0000
     34 C34        8.7063    7.5027    3.1072 C.3       1 RES1    0.0000
     35 H1         6.5466    4.7753    4.3673 H         1 RES1    0.0000
     36 H2         3.2164    1.9170    2.6846 H         1 RES1    0.0000
     37 H3         7.4088    4.3620    6.1656 H         1 RES1    0.0000
     38 H4         7.9069    3.2600    7.1161 H         1 RES1    0.0000
     39 H5         8.8762    3.5700    4.3544 H         1 RES1    0.0000
     40 H6         9.7294    3.7995    5.6261 H         1 RES1    0.0000
     41 H7         9.2765    2.2499    5.4077 H         1 RES1    0.0000
     42 H8         8.0914    1.2512    7.3473 H         1 RES1    0.0000
     43 H9         7.2639   -0.1492    7.4372 H         1 RES1    0.0000
     44 H10        6.5029    2.3762    8.7602 H         1 RES1    0.0000
     45 H11        7.1762    1.0675    9.5052 H         1 RES1    0.0000
     46 H12        5.6794    0.8839    8.8245 H         1 RES1    0.0000
     47 H13        5.2270   -0.7806    7.4629 H         1 RES1    0.0000
     48 H14        4.0012   -1.0561    6.4867 H         1 RES1    0.0000
     49 H15        6.8546   -1.8252    5.8059 H         1 RES1    0.0000
     50 H16        5.5549   -2.7779    6.1784 H         1 RES1    0.0000
     51 H17        5.4925   -2.1695    4.9196 H         1 RES1    0.0000
     52 H18        3.4870   -0.9987    4.4957 H         1 RES1    0.0000
     53 H19        3.4999    0.0000    3.1984 H         1 RES1    0.0000
     54 H20        2.0410    0.2755    5.7802 H         1 RES1    0.0000
     55 H21        1.3711   -0.1607    4.3801 H         1 RES1    0.0000
     56 H22        1.7777    1.3316    4.3801 H         1 RES1    0.0000
     57 H23        2.6307    2.2958    0.8349 H         1 RES1    0.0000
     58 H24        1.9823    3.4207   -0.1670 H         1 RES1    0.0000
     59 H25        1.1430    3.0993    2.6332 H         1 RES1    0.0000
     60 H26        0.4298    4.2013    1.5029 H         1 RES1    0.0000
     61 H27        0.3735    1.2971    1.2203 H         1 RES1    0.0000
     62 H28       -0.9672    2.2154    1.7212 H         1 RES1    0.0000
     63 H29       -0.1405    2.1581    0.1156 H         1 RES1    0.0000
     64 H30        1.6329    5.4755   -0.2569 H         1 RES1    0.0000
     65 H31        2.2773    6.8644   -0.2826 H         1 RES1    0.0000
     66 H32        3.3050    4.5801   -1.7983 H         1 RES1    0.0000
     67 H33        4.0328    5.9920   -1.8240 H         1 RES1    0.0000
     68 H34        1.3862    5.5329   -2.8130 H         1 RES1    0.0000
     69 H35        2.6628    5.8084   -3.8021 H         1 RES1    0.0000
     70 H36        2.0205    6.9907   -2.8387 H         1 RES1    0.0000
     71 H37        4.3446    7.7139   -0.2441 H         1 RES1    0.0000
     72 H38        5.4014    8.1616    0.8349 H         1 RES1    0.0000
     73 H39        2.5725    8.3338    1.4515 H         1 RES1    0.0000
     74 H40        3.6990    8.8733    2.2864 H         1 RES1    0.0000
     75 H41        3.1782    9.8834   -0.4239 H         1 RES1    0.0000
     76 H42        2.6001   10.6525    0.8991 H         1 RES1    0.0000
     77 H43        4.1924   10.5148    0.6037 H         1 RES1    0.0000
     78 H44        5.9683    7.8746    2.9029 H         1 RES1    0.0000
     79 H45        6.2872    6.8185    4.0076 H         1 RES1    0.0000
     80 H46        7.6301    6.9333    1.4772 H         1 RES1    0.0000
     81 H47        7.8209    5.6477    2.5690 H         1 RES1    0.0000
     82 H48        8.5112    8.4141    2.9543 H         1 RES1    0.0000
     83 H49        9.5603    7.1973    2.8773 H         1 RES1    0.0000
     84 H50        8.7731    7.1859    4.1104 H         1 RES1    0.0000
@<TRIPOS>BOND
     1    1    2 ar
     2    2    3 ar
     3    3    4 ar
     4    4    5 ar
     5    5    6 ar
     6    6    7 ar
     7    7    2 ar
     8    8    7 ar
     9    9    8 ar
    10   10    9 ar
    11   11   10 ar
    12   12   11 ar
    13   13   12 ar
    14   14    1 ar
    15   15    3 1
    16   16   15 1
    17   17    4 1
    18   18   17 1
    19   19    5 1
    20   20   19 1
    21   21    6 1
    22   22   21 1
    23   23   10 1
    24   24   23 1
    25   25   24 1
    26   26   11 1
    27   27   26 1
    28   28   27 1
    29   29   12 1
    30   30   29 1
    31   31   30 1
    32   32   13 1
    33   33   32 1
    34   34   33 1
    35   35    1 1
    36   36    8 1
    37   37   15 1
    38   38   15 1
    39   39   16 1
    40   40   16 1
    41   41   16 1
    42   42   17 1
    43   43   17 1
    44   44   18 1
    45   45   18 1
    46   46   18 1
    47   47   19 1
    48   48   19 1
    49   49   20 1
    50   50   20 1
    51   51   20 1
    52   52   21 1
    53   53   21 1
    54   54   22 1
    55   55   22 1
    56   56   22 1
    57   57   23 1
    58   58   23 1
    59   59   24 1
    60   60   24 1
    61   61   25 1
    62   62   25 1
    63   63   25 1
    64   64   26 1
    65   65   26 1
    66   66   27 1
    67   67   27 1
    68   68   28 1
    69   69   28 1
    70   70   28 1
    71   71   29 1
    72   72   29 1
    73   73   30 1
    74   74   30 1
    75   75   31 1
    76   76   31 1
    77   77   31 1
    78   78   32 1
    79   79   32 1
    80   80   33 1
    81   81   33 1
    82   82   34 1
    83   83   34 1
    84   84   34 1
    85    9   14 ar
    86   13   14 ar
@<TRIPOS>SUBSTRUCTURE
     1 RES1 1

@<TRIPOS>CRYSIN
  20.3280   11.4790   13.0090  90.0000  99.1100  90.0000  14 2

