# MOL2 file generated by ConQuest
# Please check atom types

@<TRIPOS>MOLECULE
EHUCIU01
   106   109     1
SMALL
NO_CHARGES
****
Generated from CSD

@<TRIPOS>ATOM
      1 C1         3.4388    3.7440    4.0378 C.ar      1 RES1    0.0000
      2 H1         3.9705    4.0219    3.3015 H         1 RES1    0.0000
      3 C2         3.9517    2.8646    4.9296 C.ar      1 RES1    0.0000
      4 H2         4.8361    2.5406    4.8088 H         1 RES1    0.0000
      5 C3         3.1875    2.4136    6.0511 C.ar      1 RES1    0.0000
      6 C4         1.8734    2.9161    6.2366 C.ar      1 RES1    0.0000
      7 C5         1.0822    2.4987    7.3439 C.ar      1 RES1    0.0000
      8 C6         1.6285    1.5521    8.2514 C.ar      1 RES1    0.0000
      9 C7         2.9131    1.0599    8.0496 C.ar      1 RES1    0.0000
     10 H3         3.2642    0.4258    8.6634 H         1 RES1    0.0000
     11 C8         3.7007    1.4673    6.9759 C.ar      1 RES1    0.0000
     12 C9         0.8323    1.0429    9.3339 C.1       1 RES1    0.0000
     13 C10        0.1476    0.5698   10.1956 C.1       1 RES1    0.0000
     14 C11       -0.7455   -0.0045   11.2069 C.3       1 RES1    0.0000
     15 H4        -0.6423    0.5024   12.0513 H         1 RES1    0.0000
     16 H5        -0.4734   -0.9402   11.3818 H         1 RES1    0.0000
     17 C12       -2.2074    0.0146   10.7977 C.3       1 RES1    0.0000
     18 H6        -2.3116   -0.4912    9.9528 H         1 RES1    0.0000
     19 H7        -2.4818    0.9506   10.6258 H         1 RES1    0.0000
     20 C13       -3.1284   -0.5872   11.8555 C.3       1 RES1    0.0000
     21 H8        -2.8247   -1.5072   12.0582 H         1 RES1    0.0000
     22 H9        -3.0515   -0.0547   12.6862 H         1 RES1    0.0000
     23 C14       -4.5814   -0.6331   11.4365 C.3       1 RES1    0.0000
     24 H10       -4.6527   -1.1591   10.6005 H         1 RES1    0.0000
     25 H11       -4.8817    0.2887   11.2354 H         1 RES1    0.0000
     26 C15       -5.5260   -1.2372   12.4728 C.3       1 RES1    0.0000
     27 H12       -6.4119   -1.3786   12.0524 H         1 RES1    0.0000
     28 H13       -5.1778   -2.1228   12.7450 H         1 RES1    0.0000
     29 C16       -5.7041   -0.3850   13.7067 C.3       1 RES1    0.0000
     30 H14       -4.8378   -0.2652   14.1485 H         1 RES1    0.0000
     31 H15       -6.3270   -0.8265   14.3214 H         1 RES1    0.0000
     32 H16       -6.0632    0.4903   13.4502 H         1 RES1    0.0000
     33 C17        5.0017    0.8992    6.7941 C.1       1 RES1    0.0000
     34 C18        6.0789    0.3905    6.6344 C.1       1 RES1    0.0000
     35 C19        7.3990   -0.1891    6.4007 C.3       1 RES1    0.0000
     36 H17        7.3274   -1.1755    6.4370 H         1 RES1    0.0000
     37 H18        8.0085    0.0955    7.1273 H         1 RES1    0.0000
     38 C20        8.0080    0.2167    5.0537 C.3       1 RES1    0.0000
     39 H19        7.4277   -0.1099    4.3213 H         1 RES1    0.0000
     40 H20        8.0435    1.2041    4.9966 H         1 RES1    0.0000
     41 C21        9.4057   -0.3454    4.8718 C.3       1 RES1    0.0000
     42 H21        9.3507   -1.3343    4.8618 H         1 RES1    0.0000
     43 H22        9.9558   -0.0847    5.6523 H         1 RES1    0.0000
     44 C22       10.1096    0.1174    3.6016 C.3       1 RES1    0.0000
     45 H23        9.5850   -0.1773    2.8152 H         1 RES1    0.0000
     46 H24       10.1407    1.1063    3.5919 H         1 RES1    0.0000
     47 C23       11.5221   -0.4235    3.4840 C.3       1 RES1    0.0000
     48 H25       11.4849   -1.4130    3.4697 H         1 RES1    0.0000
     49 H26       12.0344   -0.1536    4.2867 H         1 RES1    0.0000
     50 C24       12.2651    0.0557    2.2448 C.3       1 RES1    0.0000
     51 H27       11.7818   -0.2318    1.4427 H         1 RES1    0.0000
     52 H28       13.1676   -0.3270    2.2367 H         1 RES1    0.0000
     53 H29       12.3255    1.0341    2.2575 H         1 RES1    0.0000
     54 C1A       -0.2388    3.0165    7.4857 C.ar      1 RES1    0.0000
     55 H1A       -0.7704    2.7387    8.2220 H         1 RES1    0.0000
     56 C2A       -0.7516    3.8959    6.5939 C.ar      1 RES1    0.0000
     57 H2A       -1.6360    4.2199    6.7147 H         1 RES1    0.0000
     58 C3A        0.0125    4.3470    5.4724 C.ar      1 RES1    0.0000
     59 C4A        1.3267    3.8445    5.2869 C.ar      1 RES1    0.0000
     60 C5A        2.1178    4.2619    4.1796 C.ar      1 RES1    0.0000
     61 C6A        1.5716    5.2085    3.2721 C.ar      1 RES1    0.0000
     62 C7A        0.2870    5.7006    3.4739 C.ar      1 RES1    0.0000
     63 H3A       -0.0641    6.3348    2.8601 H         1 RES1    0.0000
     64 C8A       -0.5006    5.2933    4.5476 C.ar      1 RES1    0.0000
     65 C9A        2.3678    5.7177    2.1896 C.1       1 RES1    0.0000
     66 C10A       3.0525    6.1907    1.3279 C.1       1 RES1    0.0000
     67 C11A       3.9456    6.7651    0.3166 C.3       1 RES1    0.0000
     68 H4A        3.8424    6.2582   -0.5278 H         1 RES1    0.0000
     69 H5A        3.6735    7.7008    0.1417 H         1 RES1    0.0000
     70 C12A       5.4075    6.7460    0.7257 C.3       1 RES1    0.0000
     71 H6A        5.5117    7.2517    1.5707 H         1 RES1    0.0000
     72 H7A        5.6818    5.8100    0.8977 H         1 RES1    0.0000
     73 C13A       6.3285    7.3478   -0.3320 C.3       1 RES1    0.0000
     74 H8A        6.0248    8.2678   -0.5347 H         1 RES1    0.0000
     75 H9A        6.2516    6.8153   -1.1627 H         1 RES1    0.0000
     76 C14A       7.7814    7.3937    0.0870 C.3       1 RES1    0.0000
     77 H10A       7.8528    7.9197    0.9230 H         1 RES1    0.0000
     78 H11A       8.0818    6.4719    0.2881 H         1 RES1    0.0000
     79 C15A       8.7261    7.9977   -0.9493 C.3       1 RES1    0.0000
     80 H12A       9.6119    8.1392   -0.5289 H         1 RES1    0.0000
     81 H13A       8.3779    8.8834   -1.2215 H         1 RES1    0.0000
     82 C16A       8.9042    7.1456   -2.1832 C.3       1 RES1    0.0000
     83 H14A       8.0379    7.0258   -2.6251 H         1 RES1    0.0000
     84 H15A       9.5271    7.5871   -2.7979 H         1 RES1    0.0000
     85 H16A       9.2633    6.2703   -1.9267 H         1 RES1    0.0000
     86 C17A      -1.8016    5.8613    4.7294 C.1       1 RES1    0.0000
     87 C18A      -2.8788    6.3701    4.8891 C.1       1 RES1    0.0000
     88 C19A      -4.1990    6.9497    5.1228 C.3       1 RES1    0.0000
     89 H17A      -4.1273    7.9361    5.0865 H         1 RES1    0.0000
     90 H18A      -4.8084    6.6651    4.3962 H         1 RES1    0.0000
     91 C20A      -4.8079    6.5439    6.4698 C.3       1 RES1    0.0000
     92 H19A      -4.2276    6.8705    7.2022 H         1 RES1    0.0000
     93 H20A      -4.8434    5.5564    6.5269 H         1 RES1    0.0000
     94 C21A      -6.2056    7.1060    6.6517 C.3       1 RES1    0.0000
     95 H21A      -6.1506    8.0949    6.6617 H         1 RES1    0.0000
     96 H22A      -6.7558    6.8452    5.8712 H         1 RES1    0.0000
     97 C22A      -6.9095    6.6432    7.9219 C.3       1 RES1    0.0000
     98 H23A      -6.3849    6.9379    8.7083 H         1 RES1    0.0000
     99 H24A      -6.9406    5.6543    7.9316 H         1 RES1    0.0000
    100 C23A      -8.3220    7.1841    8.0395 C.3       1 RES1    0.0000
    101 H25A      -8.2849    8.1736    8.0538 H         1 RES1    0.0000
    102 H26A      -8.8343    6.9142    7.2368 H         1 RES1    0.0000
    103 C24A      -9.0650    6.7049    9.2787 C.3       1 RES1    0.0000
    104 H27A      -8.5818    6.9923   10.0808 H         1 RES1    0.0000
    105 H28A      -9.9675    7.0876    9.2868 H         1 RES1    0.0000
    106 H29A      -9.1254    5.7265    9.2660 H         1 RES1    0.0000
@<TRIPOS>BOND
     1    1    2 1
     2    3    1 ar
     3    4    3 1
     4    5    3 ar
     5    6    5 ar
     6    7    6 ar
     7    8    7 ar
     8    9    8 ar
     9   10    9 1
    10   11    5 ar
    11   12    8 1
    12   13   12 3
    13   14   13 1
    14   15   14 1
    15   16   14 1
    16   17   14 1
    17   18   17 1
    18   19   17 1
    19   20   17 1
    20   21   20 1
    21   22   20 1
    22   23   20 1
    23   24   23 1
    24   25   23 1
    25   26   23 1
    26   27   26 1
    27   28   26 1
    28   29   26 1
    29   30   29 1
    30   31   29 1
    31   32   29 1
    32   33   11 1
    33   34   33 3
    34   35   34 1
    35   36   35 1
    36   37   35 1
    37   38   35 1
    38   39   38 1
    39   40   38 1
    40   41   38 1
    41   42   41 1
    42   43   41 1
    43   44   41 1
    44   45   44 1
    45   46   44 1
    46   47   44 1
    47   48   47 1
    48   49   47 1
    49   50   47 1
    50   51   50 1
    51   52   50 1
    52   53   50 1
    53   54    7 ar
    54   55   54 1
    55   56   54 ar
    56   57   56 1
    57   58   56 ar
    58   59    6 ar
    59   60    1 ar
    60   61   60 ar
    61   62   61 ar
    62   63   62 1
    63   64   58 ar
    64   65   61 1
    65   66   65 3
    66   67   66 1
    67   68   67 1
    68   69   67 1
    69   70   67 1
    70   71   70 1
    71   72   70 1
    72   73   70 1
    73   74   73 1
    74   75   73 1
    75   76   73 1
    76   77   76 1
    77   78   76 1
    78   79   76 1
    79   80   79 1
    80   81   79 1
    81   82   79 1
    82   83   82 1
    83   84   82 1
    84   85   82 1
    85   86   64 1
    86   87   86 3
    87   88   87 1
    88   89   88 1
    89   90   88 1
    90   91   88 1
    91   92   91 1
    92   93   91 1
    93   94   91 1
    94   95   94 1
    95   96   94 1
    96   97   94 1
    97   98   97 1
    98   99   97 1
    99  100   97 1
   100  101  100 1
   101  102  100 1
   102  103  100 1
   103  104  103 1
   104  105  103 1
   105  106  103 1
   106    9   11 ar
   107   58   59 ar
   108   59   60 ar
   109   62   64 ar
@<TRIPOS>SUBSTRUCTURE
     1 RES1 1

@<TRIPOS>CRYSIN
   8.4950    9.8390   12.6215 101.5140 109.3130  96.5400   2 1

