# MOL2 file generated by ConQuest
# Please check atom types

@<TRIPOS>MOLECULE
EZAYUA
    40    45     1
SMALL
NO_CHARGES
****
Generated from CSD

@<TRIPOS>ATOM
      1 C1         2.3743   -0.6739    3.1564 C.ar      1 RES1    0.0000
      2 C2         2.4048   -2.0668    3.2351 C.ar      1 RES1    0.0000
      3 H1         3.0360   -2.4783    3.7797 H         1 RES1    0.0000
      4 C3         1.5223   -2.8441    2.5252 C.ar      1 RES1    0.0000
      5 H2         1.5638   -3.7714    2.5832 H         1 RES1    0.0000
      6 C4         0.5766   -2.2429    1.7275 C.ar      1 RES1    0.0000
      7 H3        -0.0216   -2.7626    1.2403 H         1 RES1    0.0000
      8 C5         0.5185   -0.8639    1.6517 C.ar      1 RES1    0.0000
      9 H4        -0.1339   -0.4639    1.1226 H         1 RES1    0.0000
     10 C6         1.4188   -0.0578    2.3528 C.ar      1 RES1    0.0000
     11 C7         1.2311    1.4285    2.2582 C.ar      1 RES1    0.0000
     12 C8        -0.0078    1.8897    2.6413 C.ar      1 RES1    0.0000
     13 H5        -0.5838    1.3076    3.0826 H         1 RES1    0.0000
     14 C9        -0.4370    3.2018    2.3936 C.ar      1 RES1    0.0000
     15 H6        -1.2526    3.5026    2.7250 H         1 RES1    0.0000
     16 C10        0.3519    4.0214    1.6668 C.ar      1 RES1    0.0000
     17 H7         0.0498    4.8745    1.4515 H         1 RES1    0.0000
     18 C11        1.6309    3.6073    1.2253 C.ar      1 RES1    0.0000
     19 C12        2.1560    2.3290    1.6252 C.ar      1 RES1    0.0000
     20 C13        3.5300    2.0691    1.2824 C.ar      1 RES1    0.0000
     21 C14        4.1650    2.8850    0.3490 C.ar      1 RES1    0.0000
     22 C15        3.5778    4.0605   -0.1307 C.ar      1 RES1    0.0000
     23 H8         4.0084    4.5725   -0.7771 H         1 RES1    0.0000
     24 C16        2.3703    4.4458    0.3577 C.ar      1 RES1    0.0000
     25 H9         2.0236    5.2751    0.1177 H         1 RES1    0.0000
     26 C17        5.5269    2.3582    0.0133 C.3       1 RES1    0.0000
     27 H10        5.5584    2.0268   -0.8978 H         1 RES1    0.0000
     28 H11        6.2044    3.0439    0.1252 H         1 RES1    0.0000
     29 C18        5.7152    1.2515    0.9942 C.ar      1 RES1    0.0000
     30 C19        4.5507    1.0995    1.7750 C.ar      1 RES1    0.0000
     31 C20        4.6003    0.2669    2.8958 C.ar      1 RES1    0.0000
     32 C21        5.7555   -0.4754    3.1153 C.ar      1 RES1    0.0000
     33 H12        5.7897   -1.0513    3.8446 H         1 RES1    0.0000
     34 C22        6.8572   -0.3840    2.2811 C.ar      1 RES1    0.0000
     35 H13        7.6035   -0.9174    2.4338 H         1 RES1    0.0000
     36 C23        6.8446    0.4940    1.2329 C.ar      1 RES1    0.0000
     37 H14        7.5909    0.5812    0.6850 H         1 RES1    0.0000
     38 C24        3.4342    0.1390    3.8378 C.3       1 RES1    0.0000
     39 H15        3.7136   -0.2978    4.6578 H         1 RES1    0.0000
     40 H16        3.0878    1.0170    4.0618 H         1 RES1    0.0000
@<TRIPOS>BOND
     1    1    2 ar
     2    2    3 1
     3    4    2 ar
     4    5    4 1
     5    6    4 ar
     6    7    6 1
     7    8    6 ar
     8    9    8 1
     9   10    1 ar
    10   11   10 1
    11   12   11 ar
    12   13   12 1
    13   14   12 ar
    14   15   14 1
    15   16   14 ar
    16   17   16 1
    17   18   16 ar
    18   19   11 ar
    19   20   19 ar
    20   21   20 ar
    21   22   21 ar
    22   23   22 1
    23   24   18 ar
    24   25   24 1
    25   26   21 1
    26   27   26 1
    27   28   26 1
    28   29   26 1
    29   30   20 1
    30   31   30 ar
    31   32   31 ar
    32   33   32 1
    33   34   32 ar
    34   35   34 1
    35   36   29 ar
    36   37   36 1
    37   38    1 1
    38   39   38 1
    39   40   38 1
    40    8   10 ar
    41   18   19 ar
    42   22   24 ar
    43   29   30 ar
    44   31   38 1
    45   34   36 ar
@<TRIPOS>SUBSTRUCTURE
     1 RES1 1

@<TRIPOS>CRYSIN
  10.1508   10.3780   15.3210  90.0000  99.9930  90.0000  14 1

