# MOL2 file generated by ConQuest
# Please check atom types

@<TRIPOS>MOLECULE
FAZJIZ11
    52    58     1
SMALL
NO_CHARGES
****
Generated from CSD

@<TRIPOS>ATOM
      1 C1         2.7971    4.9946    3.1055 C.ar      1 RES1    0.0000
      2 C2         3.9132    5.0308    2.2202 C.ar      1 RES1    0.0000
      3 C3         4.3756    6.3016    1.7543 C.ar      1 RES1    0.0000
      4 H1         4.0032    7.0968    2.1164 H         1 RES1    0.0000
      5 C4         5.3395    6.3884    0.8005 C.ar      1 RES1    0.0000
      6 H2         5.6108    7.2370    0.4701 H         1 RES1    0.0000
      7 C5         5.9324    5.2112    0.3077 C.ar      1 RES1    0.0000
      8 H3         6.6018    5.2881   -0.3623 H         1 RES1    0.0000
      9 C6         5.5908    3.9615    0.7477 C.ar      1 RES1    0.0000
     10 C7         4.5192    3.8209    1.7174 C.ar      1 RES1    0.0000
     11 C8         3.9923    2.5865    2.1755 C.ar      1 RES1    0.0000
     12 C9         2.6994    2.5811    2.7738 C.ar      1 RES1    0.0000
     13 C10        2.0021    1.3409    2.9320 C.ar      1 RES1    0.0000
     14 H4         2.4235    0.5335    2.6621 H         1 RES1    0.0000
     15 C11        0.7511    1.2940    3.4591 C.ar      1 RES1    0.0000
     16 H5         0.3094    0.4590    3.5586 H         1 RES1    0.0000
     17 C12        0.1088    2.4831    3.8567 C.ar      1 RES1    0.0000
     18 H6        -0.7749    2.4321    4.2029 H         1 RES1    0.0000
     19 C13        0.7100    3.7085    3.7629 C.ar      1 RES1    0.0000
     20 C14        2.0547    3.7988    3.2163 C.ar      1 RES1    0.0000
     21 C15        2.5430    6.2348    3.9003 C.ar      1 RES1    0.0000
     22 C16        3.6248    6.7962    4.5955 C.ar      1 RES1    0.0000
     23 H7         4.4602    6.3431    4.5973 H         1 RES1    0.0000
     24 C17        3.5028    7.9964    5.2792 C.ar      1 RES1    0.0000
     25 H8         4.2455    8.3545    5.7507 H         1 RES1    0.0000
     26 C18        2.2931    8.6701    5.2705 C.ar      1 RES1    0.0000
     27 H9         2.2111    9.5113    5.7048 H         1 RES1    0.0000
     28 C19        1.2018    8.1087    4.6246 C.ar      1 RES1    0.0000
     29 H10        0.3682    8.5648    4.6363 H         1 RES1    0.0000
     30 C20        1.3029    6.8863    3.9558 C.ar      1 RES1    0.0000
     31 C21        0.0889    6.1992    3.4162 C.3       1 RES1    0.0000
     32 H11        0.2129    6.0068    2.4534 H         1 RES1    0.0000
     33 H12       -0.7012    6.7879    3.5151 H         1 RES1    0.0000
     34 C22       -0.1402    4.8929    4.1798 C.3       1 RES1    0.0000
     35 H13        0.0206    5.0646    5.1407 H         1 RES1    0.0000
     36 H14       -1.0927    4.6395    4.0814 H         1 RES1    0.0000
     37 C23        4.7231    1.2786    2.1265 C.ar      1 RES1    0.0000
     38 C24        4.8247    0.5329    3.3140 C.ar      1 RES1    0.0000
     39 H15        4.4663    0.8874    4.1181 H         1 RES1    0.0000
     40 C25        5.4396   -0.7118    3.3312 C.ar      1 RES1    0.0000
     41 H16        5.4975   -1.2018    4.1433 H         1 RES1    0.0000
     42 C26        5.9706   -1.2417    2.1618 C.ar      1 RES1    0.0000
     43 H17        6.3762   -2.1012    2.1645 H         1 RES1    0.0000
     44 C27        5.9023   -0.5043    0.9912 C.ar      1 RES1    0.0000
     45 H18        6.2777   -0.8600    0.1949 H         1 RES1    0.0000
     46 C28        5.2930    0.7519    0.9598 C.ar      1 RES1    0.0000
     47 C29        5.3913    1.6081   -0.2639 C.3       1 RES1    0.0000
     48 H19        4.4916    1.9215   -0.5343 H         1 RES1    0.0000
     49 H20        5.7786    1.0889   -1.0135 H         1 RES1    0.0000
     50 C30        6.2903    2.8071    0.0670 C.3       1 RES1    0.0000
     51 H21        7.0266    2.4967    0.6512 H         1 RES1    0.0000
     52 H22        6.6966    3.1365   -0.7727 H         1 RES1    0.0000
@<TRIPOS>BOND
     1    1    2 ar
     2    2    3 ar
     3    3    4 1
     4    5    3 ar
     5    6    5 1
     6    7    5 ar
     7    8    7 1
     8    9    7 ar
     9   10    2 ar
    10   11   10 ar
    11   12   11 ar
    12   13   12 ar
    13   14   13 1
    14   15   13 ar
    15   16   15 1
    16   17   15 ar
    17   18   17 1
    18   19   17 ar
    19   20    1 ar
    20   21    1 1
    21   22   21 ar
    22   23   22 1
    23   24   22 ar
    24   25   24 1
    25   26   24 ar
    26   27   26 1
    27   28   26 ar
    28   29   28 1
    29   30   21 ar
    30   31   30 1
    31   32   31 1
    32   33   31 1
    33   34   19 1
    34   35   34 1
    35   36   34 1
    36   37   11 1
    37   38   37 ar
    38   39   38 1
    39   40   38 ar
    40   41   40 1
    41   42   40 ar
    42   43   42 1
    43   44   42 ar
    44   45   44 1
    45   46   37 ar
    46   47   46 1
    47   48   47 1
    48   49   47 1
    49   50    9 1
    50   51   50 1
    51   52   50 1
    52    9   10 ar
    53   12   20 ar
    54   19   20 ar
    55   28   30 ar
    56   31   34 1
    57   44   46 ar
    58   47   50 1
@<TRIPOS>SUBSTRUCTURE
     1 RES1 1

@<TRIPOS>CRYSIN
   7.6472   10.9552   22.9991  90.0000  94.4658  90.0000  14 1

