# MOL2 file generated by ConQuest
# Please check atom types

@<TRIPOS>MOLECULE
FEKTUM
    48    50     1
SMALL
NO_CHARGES
****
Generated from CSD

@<TRIPOS>ATOM
      1 C1         4.7911    3.3587    4.4294 C.ar      1 RES1    0.0000
      2 C2         3.7438    3.6080    3.4840 C.ar      1 RES1    0.0000
      3 H1         3.2814    4.4375    3.5229 H         1 RES1    0.0000
      4 C3         3.3837    2.6998    2.5299 C.ar      1 RES1    0.0000
      5 C4         4.1125    1.4632    2.4709 C.ar      1 RES1    0.0000
      6 H2         3.8856    0.8240    1.8057 H         1 RES1    0.0000
      7 C5         5.1217    1.1826    3.3430 C.ar      1 RES1    0.0000
      8 H3         5.5803    0.3531    3.2744 H         1 RES1    0.0000
      9 C6         5.5020    2.1104    4.3565 C.ar      1 RES1    0.0000
     10 C7         5.1579    4.2834    5.4042 C.ar      1 RES1    0.0000
     11 H4         4.6915    5.1099    5.4555 H         1 RES1    0.0000
     12 C8         2.1922    2.9276    1.5808 C.3       1 RES1    0.0000
     13 C9         2.4374    2.3050    0.2022 C.3       1 RES1    0.0000
     14 H5         3.2187    2.7275   -0.2122 H         1 RES1    0.0000
     15 H6         1.6510    2.4456   -0.3648 H         1 RES1    0.0000
     16 H7         2.6000    1.3441    0.3018 H         1 RES1    0.0000
     17 C10        0.9623    2.2571    2.2111 C.3       1 RES1    0.0000
     18 H8         0.7946    2.6464    3.0952 H         1 RES1    0.0000
     19 H9         1.1258    1.2950    2.3038 H         1 RES1    0.0000
     20 H10        0.1818    2.4020    1.6372 H         1 RES1    0.0000
     21 C11        1.9008    4.4179    1.3826 C.3       1 RES1    0.0000
     22 H11        1.7392    4.8379    2.2537 H         1 RES1    0.0000
     23 H12        1.1077    4.5229    0.8159 H         1 RES1    0.0000
     24 H13        2.6695    4.8465    0.9514 H         1 RES1    0.0000
     25 C1B        6.9045    2.7815    6.2364 C.ar      1 RES1    0.0000
     26 C2B        7.9517    2.5322    7.1818 C.ar      1 RES1    0.0000
     27 H1B        8.4141    1.7027    7.1428 H         1 RES1    0.0000
     28 C3B        8.3118    3.4404    8.1358 C.ar      1 RES1    0.0000
     29 C4B        7.5830    4.6770    8.1948 C.ar      1 RES1    0.0000
     30 H2B        7.8100    5.3162    8.8600 H         1 RES1    0.0000
     31 C5B        6.5739    4.9576    7.3228 C.ar      1 RES1    0.0000
     32 H3B        6.1153    5.7871    7.3914 H         1 RES1    0.0000
     33 C6B        6.1935    4.0298    6.3092 C.ar      1 RES1    0.0000
     34 C7B        6.5376    1.8568    5.2615 C.ar      1 RES1    0.0000
     35 H4B        7.0041    1.0303    5.2102 H         1 RES1    0.0000
     36 C8B        9.5034    3.2126    9.0850 C.3       1 RES1    0.0000
     37 C9B        9.2582    3.8352   10.4635 C.3       1 RES1    0.0000
     38 H5B        8.4769    3.4127   10.8780 H         1 RES1    0.0000
     39 H6B       10.0446    3.6946   11.0305 H         1 RES1    0.0000
     40 H7B        9.0955    4.7961   10.3639 H         1 RES1    0.0000
     41 C10B      10.7333    3.8831    8.4546 C.3       1 RES1    0.0000
     42 H8B       10.9009    3.4938    7.5705 H         1 RES1    0.0000
     43 H9B       10.5698    4.8452    8.3619 H         1 RES1    0.0000
     44 H10B      11.5138    3.7382    9.0286 H         1 RES1    0.0000
     45 C11B       9.7948    1.7223    9.2831 C.3       1 RES1    0.0000
     46 H11B       9.9564    1.3023    8.4121 H         1 RES1    0.0000
     47 H12B      10.5879    1.6173    9.8498 H         1 RES1    0.0000
     48 H13B       9.0261    1.2937    9.7144 H         1 RES1    0.0000
@<TRIPOS>BOND
     1    1    2 ar
     2    2    3 1
     3    4    2 ar
     4    5    4 ar
     5    6    5 1
     6    7    5 ar
     7    8    7 1
     8    9    1 ar
     9   10    1 ar
    10   11   10 1
    11   12    4 1
    12   13   12 1
    13   14   13 1
    14   15   13 1
    15   16   13 1
    16   17   12 1
    17   18   17 1
    18   19   17 1
    19   20   17 1
    20   21   12 1
    21   22   21 1
    22   23   21 1
    23   24   21 1
    24   25   26 ar
    25   26   27 1
    26   28   26 ar
    27   29   28 ar
    28   30   29 1
    29   31   29 ar
    30   32   31 1
    31   33   10 ar
    32   34    9 ar
    33   35   34 1
    34   36   28 1
    35   37   36 1
    36   38   37 1
    37   39   37 1
    38   40   37 1
    39   41   36 1
    40   42   41 1
    41   43   41 1
    42   44   41 1
    43   45   36 1
    44   46   45 1
    45   47   45 1
    46   48   45 1
    47    7    9 ar
    48   25   33 ar
    49   25   34 ar
    50   31   33 ar
@<TRIPOS>SUBSTRUCTURE
     1 RES1 1

@<TRIPOS>CRYSIN
  12.7547    6.1402   10.7182  90.0000  95.6710  90.0000  14 1

