# MOL2 file generated by ConQuest
# Please check atom types

@<TRIPOS>MOLECULE
FILBIL
    66    74     1
SMALL
NO_CHARGES
****
Generated from CSD

@<TRIPOS>ATOM
      1 C1         4.5099    2.0780   10.3201 C.3       1 RES1    0.0000
      2 C2         4.4918    3.2919    9.3807 C.3       1 RES1    0.0000
      3 C3         5.5092    3.1026    8.2495 C.3       1 RES1    0.0000
      4 C4         6.8987    2.9591    8.8138 C.3       1 RES1    0.0000
      5 C5         6.9428    1.7517    9.7313 C.3       1 RES1    0.0000
      6 C6         6.5941    0.4913    8.9480 C.3       1 RES1    0.0000
      7 C7         5.2071    0.6472    8.3536 C.3       1 RES1    0.0000
      8 C8         4.1809    0.8359    9.4834 C.3       1 RES1    0.0000
      9 C9         5.9422    1.9352   10.8734 C.3       1 RES1    0.0000
     10 C10        5.1596    1.8611    7.4347 C.3       1 RES1    0.0000
     11 C11        2.6875    3.2611   11.6485 C.ar      1 RES1    0.0000
     12 C12        3.5207    2.1939   11.4732 C.ar      1 RES1    0.0000
     13 C13        3.4036    1.1189   12.3880 C.ar      1 RES1    0.0000
     14 C14        2.4839    1.1071   13.3904 C.ar      1 RES1    0.0000
     15 C15        1.5819    2.1861   13.5712 C.ar      1 RES1    0.0000
     16 C16        0.5903    2.1900   14.5586 C.ar      1 RES1    0.0000
     17 C17        1.6898    3.3037   12.6866 C.ar      1 RES1    0.0000
     18 H1         3.5319    3.3345    8.9836 H         1 RES1    0.0000
     19 H2         4.6957    4.0944    9.9011 H         1 RES1    0.0000
     20 H3         5.4267    3.8847    7.6415 H         1 RES1    0.0000
     21 H4         7.2315    3.6882    9.3122 H         1 RES1    0.0000
     22 H5         7.5870    2.8235    8.0523 H         1 RES1    0.0000
     23 H6         7.8482    1.6640   10.1202 H         1 RES1    0.0000
     24 H7         6.7113   -0.2489    9.5998 H         1 RES1    0.0000
     25 H8         7.2223    0.3931    8.2030 H         1 RES1    0.0000
     26 H9         4.8995   -0.1310    7.7922 H         1 RES1    0.0000
     27 H10        3.2200    0.8778    9.1068 H         1 RES1    0.0000
     28 H11        4.2153    0.0655   10.0380 H         1 RES1    0.0000
     29 H12        6.1177    2.7383   11.3664 H         1 RES1    0.0000
     30 H13        5.9608    1.1726   11.4760 H         1 RES1    0.0000
     31 H14        2.7248    4.0354   11.0788 H         1 RES1    0.0000
     32 H15        3.9806    0.3800   12.3387 H         1 RES1    0.0000
     33 H16        0.4598    1.3102   15.1187 H         1 RES1    0.0000
     34 C17B      -0.2926    3.2473   14.7024 C.ar      1 RES1    0.0000
     35 C16B       0.8068    4.3610   12.8303 C.ar      1 RES1    0.0000
     36 C11B      -1.2903    3.2899   15.7404 C.ar      1 RES1    0.0000
     37 C15B      -0.1847    4.3649   13.8177 C.ar      1 RES1    0.0000
     38 H16B       0.9374    5.2408   12.2702 H         1 RES1    0.0000
     39 C12B      -2.1236    4.3571   15.9157 C.ar      1 RES1    0.0000
     40 H14B      -1.3276    2.5156   16.3101 H         1 RES1    0.0000
     41 C14B      -1.0867    5.4439   13.9985 C.ar      1 RES1    0.0000
     42 C1B       -3.1127    4.4730   17.0688 C.3       1 RES1    0.0000
     43 C13B      -2.0064    5.4321   15.0009 C.ar      1 RES1    0.0000
     44 C2B       -3.0946    3.2591   18.0082 C.3       1 RES1    0.0000
     45 C8B       -2.7837    5.7151   17.9055 C.3       1 RES1    0.0000
     46 C9B       -4.5451    4.6158   16.5155 C.3       1 RES1    0.0000
     47 H15B      -2.5834    6.1710   15.0502 H         1 RES1    0.0000
     48 C3B       -4.1120    3.4484   19.1394 C.3       1 RES1    0.0000
     49 H1B       -2.1347    3.2165   18.4054 H         1 RES1    0.0000
     50 H2B       -3.2985    2.4566   17.4878 H         1 RES1    0.0000
     51 C7B       -3.8099    5.9038   19.0353 C.3       1 RES1    0.0000
     52 H10B      -1.8228    5.6732   18.2821 H         1 RES1    0.0000
     53 H11B      -2.8181    6.4855   17.3509 H         1 RES1    0.0000
     54 C5B       -5.5456    4.7993   17.6576 C.3       1 RES1    0.0000
     55 H12B      -4.7205    3.8127   16.0225 H         1 RES1    0.0000
     56 H13B      -4.5636    5.3784   15.9130 H         1 RES1    0.0000
     57 C4B       -5.5015    3.5919   18.5752 C.3       1 RES1    0.0000
     58 C10B      -3.7624    4.6899   19.9542 C.3       1 RES1    0.0000
     59 H3B       -4.0295    2.6663   19.7474 H         1 RES1    0.0000
     60 C6B       -5.1970    6.0597   18.4410 C.3       1 RES1    0.0000
     61 H9B       -3.5024    6.6820   19.5968 H         1 RES1    0.0000
     62 H6B       -6.4510    4.8870   17.2687 H         1 RES1    0.0000
     63 H4B       -5.8343    2.8628   18.0767 H         1 RES1    0.0000
     64 H5B       -6.1898    3.7275   19.3366 H         1 RES1    0.0000
     65 H7B       -5.3142    6.7999   17.7891 H         1 RES1    0.0000
     66 H8B       -5.8251    6.1579   19.1859 H         1 RES1    0.0000
@<TRIPOS>BOND
     1    1    2 1
     2    2    3 1
     3    3    4 1
     4    4    5 1
     5    5    6 1
     6    6    7 1
     7    7    8 1
     8    8    1 1
     9    9    1 1
    10   10    3 1
    11   11   12 ar
    12   12    1 1
    13   13   12 ar
    14   14   13 ar
    15   15   14 ar
    16   16   15 ar
    17   17   11 ar
    18   18    2 1
    19   19    2 1
    20   20    3 1
    21   21    4 1
    22   22    4 1
    23   23    5 1
    24   24    6 1
    25   25    6 1
    26   26    7 1
    27   27    8 1
    28   28    8 1
    29   29    9 1
    30   30    9 1
    31   31   11 1
    32   32   13 1
    33   33   16 1
    34   34   16 ar
    35   35   17 ar
    36   36   34 ar
    37   37   34 ar
    38   38   35 1
    39   39   36 ar
    40   40   36 1
    41   41   37 ar
    42   42   39 1
    43   43   39 ar
    44   44   42 1
    45   45   42 1
    46   46   42 1
    47   47   43 1
    48   48   44 1
    49   49   44 1
    50   50   44 1
    51   51   45 1
    52   52   45 1
    53   53   45 1
    54   54   46 1
    55   55   46 1
    56   56   46 1
    57   57   48 1
    58   58   48 1
    59   59   48 1
    60   60   51 1
    61   61   51 1
    62   62   54 1
    63   63   57 1
    64   64   57 1
    65   65   60 1
    66   66   60 1
    67    5    9 1
    68    7   10 1
    69   15   17 ar
    70   35   37 ar
    71   41   43 ar
    72   51   58 1
    73   54   57 1
    74   54   60 1
@<TRIPOS>SUBSTRUCTURE
     1 RES1 1

@<TRIPOS>CRYSIN
  13.5400    6.5510   14.9800  90.0000 113.9100  90.0000  14 2

