# MOL2 file generated by ConQuest
# Please check atom types

@<TRIPOS>MOLECULE
FIQTAD
    50    57     1
SMALL
NO_CHARGES
****
Generated from CSD

@<TRIPOS>ATOM
      1 C1         1.7027    8.9298    2.5897 C.3       1 RES1    0.0000
      2 C2         1.7409    8.6073    1.1099 C.2       1 RES1    0.0000
      3 H1         1.1739    9.0717    0.5375 H         1 RES1    0.0000
      4 C3         2.5567    7.6824    0.5933 C.2       1 RES1    0.0000
      5 H2         2.6263    7.6072   -0.3311 H         1 RES1    0.0000
      6 C4         3.3402    6.7883    1.4374 C.ar      1 RES1    0.0000
      7 C5         3.0972    6.8089    2.8497 C.ar      1 RES1    0.0000
      8 C6         2.2136    7.7489    3.4183 C.ar      1 RES1    0.0000
      9 C7         4.2519    5.8984    0.9134 C.ar      1 RES1    0.0000
     10 H3         4.4030    5.8843   -0.0041 H         1 RES1    0.0000
     11 C8         4.9618    5.0059    1.7498 C.ar      1 RES1    0.0000
     12 H4         5.6043    4.4411    1.3848 H         1 RES1    0.0000
     13 C9         4.7072    4.9694    3.0941 C.ar      1 RES1    0.0000
     14 H5         5.1663    4.3648    3.6314 H         1 RES1    0.0000
     15 C10        3.7480    5.8457    3.6827 C.ar      1 RES1    0.0000
     16 C11        3.4541    5.8266    5.0562 C.ar      1 RES1    0.0000
     17 H6         3.8586    5.1891    5.5992 H         1 RES1    0.0000
     18 C12        2.5734    6.7387    5.6204 C.ar      1 RES1    0.0000
     19 C13        1.9339    7.7047    4.7832 C.ar      1 RES1    0.0000
     20 C14        1.0755    8.7127    5.3860 C.ar      1 RES1    0.0000
     21 C15        1.0144    8.8173    6.8089 C.ar      1 RES1    0.0000
     22 C16        1.6697    7.8110    7.6112 C.ar      1 RES1    0.0000
     23 H7         1.6037    7.8566    8.5377 H         1 RES1    0.0000
     24 C17        2.3725    6.8108    7.0533 C.ar      1 RES1    0.0000
     25 H8         2.7373    6.1513    7.5981 H         1 RES1    0.0000
     26 C18        0.3289    9.8733    7.3848 C.ar      1 RES1    0.0000
     27 H9         0.2881    9.9404    8.3115 H         1 RES1    0.0000
     28 C19       -0.3040   10.8420    6.5965 C.ar      1 RES1    0.0000
     29 C20       -0.3215   10.6824    5.1763 C.ar      1 RES1    0.0000
     30 C21        0.3527    9.5938    4.5825 C.ar      1 RES1    0.0000
     31 C22        0.2716    9.3164    3.0807 C.3       1 RES1    0.0000
     32 C23       -0.2874   10.5050    2.3328 C.2       1 RES1    0.0000
     33 H10       -0.1877   10.5296    1.4084 H         1 RES1    0.0000
     34 C24       -0.9157   11.5205    2.9269 C.2       1 RES1    0.0000
     35 H11       -1.3281   12.1623    2.3949 H         1 RES1    0.0000
     36 C25       -0.9822   11.6651    4.3707 C.ar      1 RES1    0.0000
     37 C26       -1.5996   12.7416    4.9767 C.ar      1 RES1    0.0000
     38 H12       -2.0369   13.3739    4.4533 H         1 RES1    0.0000
     39 C27       -1.5759   12.8954    6.3811 C.ar      1 RES1    0.0000
     40 H13       -1.9946   13.6286    6.7710 H         1 RES1    0.0000
     41 C28       -0.9453   11.9793    7.1708 C.ar      1 RES1    0.0000
     42 H14       -0.9331   12.0976    8.0931 H         1 RES1    0.0000
     43 C29        2.6685   10.1249    2.8167 C.3       1 RES1    0.0000
     44 H15        2.6497   10.3802    3.7420 H         1 RES1    0.0000
     45 H16        2.3921   10.8673    2.2744 H         1 RES1    0.0000
     46 H17        3.5606    9.8661    2.5743 H         1 RES1    0.0000
     47 C30       -0.7008    8.1275    2.8330 C.3       1 RES1    0.0000
     48 H18       -0.3910    7.3556    3.3122 H         1 RES1    0.0000
     49 H19       -0.7321    7.9301    1.8940 H         1 RES1    0.0000
     50 H20       -1.5793    8.3635    3.1398 H         1 RES1    0.0000
@<TRIPOS>BOND
     1    1    2 1
     2    2    3 1
     3    4    2 2
     4    5    4 1
     5    6    4 1
     6    7    6 ar
     7    8    1 1
     8    9    6 ar
     9   10    9 1
    10   11    9 ar
    11   12   11 1
    12   13   11 ar
    13   14   13 1
    14   15    7 ar
    15   16   15 ar
    16   17   16 1
    17   18   16 ar
    18   19    8 ar
    19   20   19 ar
    20   21   20 ar
    21   22   21 ar
    22   23   22 1
    23   24   18 ar
    24   25   24 1
    25   26   21 ar
    26   27   26 1
    27   28   26 ar
    28   29   28 ar
    29   30   20 ar
    30   31    1 1
    31   32   31 1
    32   33   32 1
    33   34   32 2
    34   35   34 1
    35   36   29 ar
    36   37   36 ar
    37   38   37 1
    38   39   37 ar
    39   40   39 1
    40   41   28 ar
    41   42   41 1
    42   43    1 1
    43   44   43 1
    44   45   43 1
    45   46   43 1
    46   47   31 1
    47   48   47 1
    48   49   47 1
    49   50   47 1
    50    7    8 ar
    51   13   15 ar
    52   18   19 ar
    53   22   24 ar
    54   29   30 ar
    55   30   31 1
    56   34   36 1
    57   39   41 ar
@<TRIPOS>SUBSTRUCTURE
     1 RES1 1

@<TRIPOS>CRYSIN
   7.8230   17.3405   13.9697  90.0000  96.8240  90.0000  14 1

