# MOL2 file generated by ConQuest
# Please check atom types

@<TRIPOS>MOLECULE
GEPPOJ
    58    65     1
SMALL
NO_CHARGES
****
Generated from CSD

@<TRIPOS>ATOM
      1 C1         2.7004   -0.1666    6.8103 C.ar      1 RES1    0.0000
      2 H1         2.7945   -0.7797    6.0898 H         1 RES1    0.0000
      3 C2         3.7160    0.7464    7.0877 C.ar      1 RES1    0.0000
      4 H2         4.5069    0.7522    6.5621 H         1 RES1    0.0000
      5 C3         3.5709    1.6430    8.1286 C.ar      1 RES1    0.0000
      6 H3         4.2674    2.2641    8.3039 H         1 RES1    0.0000
      7 C4         2.4178    1.6600    8.9355 C.ar      1 RES1    0.0000
      8 C5         2.2963    2.6307   10.0229 C.ar      1 RES1    0.0000
      9 C6         1.1667    2.5159   10.7444 C.ar      1 RES1    0.0000
     10 C7         0.3544    3.0819   11.8625 C.ar      1 RES1    0.0000
     11 C8         0.2613    4.0891   12.8258 C.ar      1 RES1    0.0000
     12 H4         0.9561    4.7244   12.9538 H         1 RES1    0.0000
     13 C9        -0.8944    4.1124   13.5814 C.ar      1 RES1    0.0000
     14 H5        -0.9934    4.7863   14.2440 H         1 RES1    0.0000
     15 C10       -1.8503    2.1207   12.3975 C.ar      1 RES1    0.0000
     16 C11       -0.6601    2.1435   11.6463 C.ar      1 RES1    0.0000
     17 C12        0.1217    1.5452   10.4970 C.ar      1 RES1    0.0000
     18 C13        0.1550    0.6565    9.4839 C.ar      1 RES1    0.0000
     19 C14        1.3717    0.7125    8.6633 C.ar      1 RES1    0.0000
     20 C15        1.5526   -0.1777    7.5862 C.ar      1 RES1    0.0000
     21 H6         0.8677   -0.8041    7.3852 H         1 RES1    0.0000
     22 C16        3.3499    3.6622   10.2867 C.3       1 RES1    0.0000
     23 H7         3.0565    4.2510   11.0133 H         1 RES1    0.0000
     24 H8         3.4980    4.1928    9.4754 H         1 RES1    0.0000
     25 H9         4.1851    3.2178   10.5437 H         1 RES1    0.0000
     26 C17       -0.9328   -0.3317    9.1709 C.3       1 RES1    0.0000
     27 H10       -1.6623   -0.2296    9.8160 H         1 RES1    0.0000
     28 H11       -0.5730   -1.2415    9.2251 H         1 RES1    0.0000
     29 H12       -1.2721   -0.1677    8.2651 H         1 RES1    0.0000
     30 C1B       -6.4915    5.4565   18.9941 C.ar      1 RES1    0.0000
     31 H1B       -6.5857    6.0696   19.7146 H         1 RES1    0.0000
     32 C2B       -7.5072    4.5435   18.7167 C.ar      1 RES1    0.0000
     33 H2B       -8.2980    4.5377   19.2423 H         1 RES1    0.0000
     34 C3B       -7.3621    3.6469   17.6758 C.ar      1 RES1    0.0000
     35 H3B       -8.0585    3.0258   17.5005 H         1 RES1    0.0000
     36 C4B       -6.2090    3.6299   16.8688 C.ar      1 RES1    0.0000
     37 C5B       -6.0875    2.6592   15.7815 C.ar      1 RES1    0.0000
     38 C6B       -4.9578    2.7740   15.0600 C.ar      1 RES1    0.0000
     39 C7B       -4.1455    2.2080   13.9419 C.ar      1 RES1    0.0000
     40 C8B       -4.0524    1.2008   12.9786 C.ar      1 RES1    0.0000
     41 H4B       -4.7472    0.5655   12.8506 H         1 RES1    0.0000
     42 C9B       -2.8967    1.1775   12.2230 C.ar      1 RES1    0.0000
     43 H5B       -2.7978    0.5036   11.5604 H         1 RES1    0.0000
     44 C10B      -1.9408    3.1692   13.4069 C.ar      1 RES1    0.0000
     45 C11B      -3.1310    3.1464   14.1581 C.ar      1 RES1    0.0000
     46 C12B      -3.9128    3.7447   15.3074 C.ar      1 RES1    0.0000
     47 C13B      -3.9461    4.6334   16.3205 C.ar      1 RES1    0.0000
     48 C14B      -5.1629    4.5774   17.1411 C.ar      1 RES1    0.0000
     49 C15B      -5.3438    5.4676   18.2182 C.ar      1 RES1    0.0000
     50 H6B       -4.6589    6.0940   18.4192 H         1 RES1    0.0000
     51 C16B      -7.1410    1.6277   15.5177 C.3       1 RES1    0.0000
     52 H7B       -6.8477    1.0389   14.7911 H         1 RES1    0.0000
     53 H8B       -7.2891    1.0971   16.3290 H         1 RES1    0.0000
     54 H9B       -7.9762    2.0721   15.2607 H         1 RES1    0.0000
     55 C17B      -2.8584    5.6216   16.6335 C.3       1 RES1    0.0000
     56 H10B      -2.1288    5.5195   15.9884 H         1 RES1    0.0000
     57 H11B      -3.2182    6.5314   16.5793 H         1 RES1    0.0000
     58 H12B      -2.5191    5.4576   17.5392 H         1 RES1    0.0000
@<TRIPOS>BOND
     1    1    2 1
     2    3    1 ar
     3    4    3 1
     4    5    3 ar
     5    6    5 1
     6    7    5 ar
     7    8    7 ar
     8    9    8 ar
     9   10    9 1
    10   11   10 ar
    11   12   11 1
    12   13   11 ar
    13   14   13 1
    14   15   16 ar
    15   16   10 ar
    16   17    9 ar
    17   18   17 ar
    18   19    7 ar
    19   20    1 ar
    20   21   20 1
    21   22    8 1
    22   23   22 1
    23   24   22 1
    24   25   22 1
    25   26   18 1
    26   27   26 1
    27   28   26 1
    28   29   26 1
    29   30   31 1
    30   32   30 ar
    31   33   32 1
    32   34   32 ar
    33   35   34 1
    34   36   34 ar
    35   37   36 ar
    36   38   37 ar
    37   39   38 1
    38   40   39 ar
    39   41   40 1
    40   42   15 ar
    41   43   42 1
    42   44   13 ar
    43   45   39 ar
    44   46   38 ar
    45   47   46 ar
    46   48   36 ar
    47   49   30 ar
    48   50   49 1
    49   51   37 1
    50   52   51 1
    51   53   51 1
    52   54   51 1
    53   55   47 1
    54   56   55 1
    55   57   55 1
    56   58   55 1
    57   15   44 ar
    58   16   17 1
    59   18   19 ar
    60   19   20 ar
    61   40   42 ar
    62   44   45 ar
    63   45   46 1
    64   47   48 ar
    65   48   49 ar
@<TRIPOS>SUBSTRUCTURE
     1 RES1 1

@<TRIPOS>CRYSIN
   7.8079    5.2899   26.0814  90.0000  98.3580  90.0000 231 1

