# MOL2 file generated by ConQuest
# Please check atom types

@<TRIPOS>MOLECULE
GEPPUP
    58    65     1
SMALL
NO_CHARGES
****
Generated from CSD

@<TRIPOS>ATOM
      1 C1         7.5767    2.9847    6.7617 C.ar      1 RES1    0.0000
      2 H1         8.4431    3.1626    6.4144 H         1 RES1    0.0000
      3 C2         7.3878    1.9321    7.6554 C.ar      1 RES1    0.0000
      4 H2         8.1199    1.3785    7.9007 H         1 RES1    0.0000
      5 C3         6.1330    1.6948    8.1836 C.ar      1 RES1    0.0000
      6 H3         6.0161    0.9716    8.7882 H         1 RES1    0.0000
      7 C4         5.0234    2.4946    7.8515 C.ar      1 RES1    0.0000
      8 C5         3.7318    2.2639    8.5015 C.ar      1 RES1    0.0000
      9 C6         2.7624    3.1399    8.1470 C.ar      1 RES1    0.0000
     10 C7         1.3616    3.6476    8.3723 C.ar      1 RES1    0.0000
     11 C8         0.1841    3.5272    9.1168 C.ar      1 RES1    0.0000
     12 C9        -0.0439    2.5323   10.1355 C.ar      1 RES1    0.0000
     13 H4         0.6125    1.8815   10.3551 H         1 RES1    0.0000
     14 C10       -1.2463    2.5753   10.7637 C.ar      1 RES1    0.0000
     15 C11       -2.1657    1.9728   11.7795 C.ar      1 RES1    0.0000
     16 C12       -2.3277    1.0150   12.7286 C.ar      1 RES1    0.0000
     17 C13       -3.6437    0.9965   13.3478 C.ar      1 RES1    0.0000
     18 C14       -3.9578    0.0355   14.3374 C.ar      1 RES1    0.0000
     19 H5        -3.2871   -0.5757   14.6187 H         1 RES1    0.0000
     20 C15       -5.2167   -0.0367   14.9062 C.ar      1 RES1    0.0000
     21 H6        -5.4031   -0.6943   15.5660 H         1 RES1    0.0000
     22 C16       -6.2176    0.8609   14.5088 C.ar      1 RES1    0.0000
     23 H7        -7.0854    0.8051   14.8916 H         1 RES1    0.0000
     24 C17       -5.9426    1.8226   13.5643 C.ar      1 RES1    0.0000
     25 H8        -6.6283    2.4291   13.3103 H         1 RES1    0.0000
     26 C18       -4.6690    1.9344   12.9607 C.ar      1 RES1    0.0000
     27 C19       -4.4266    2.9602   11.9675 C.ar      1 RES1    0.0000
     28 C20       -3.1820    2.9328   11.4266 C.ar      1 RES1    0.0000
     29 C21       -2.2650    3.5461   10.4268 C.ar      1 RES1    0.0000
     30 C22       -2.0942    4.5018    9.4833 C.ar      1 RES1    0.0000
     31 H9        -2.7763    5.1326    9.2853 H         1 RES1    0.0000
     32 C23       -0.8280    4.5175    8.7926 C.ar      1 RES1    0.0000
     33 C24       -0.5942    5.5071    7.8111 C.ar      1 RES1    0.0000
     34 H10       -1.2861    6.1302    7.6222 H         1 RES1    0.0000
     35 C25        0.6043    5.6112    7.1077 C.ar      1 RES1    0.0000
     36 H11        0.7555    6.2905    6.4611 H         1 RES1    0.0000
     37 C26        1.5595    4.6578    7.4148 C.ar      1 RES1    0.0000
     38 C27        2.9537    4.1885    7.1719 C.ar      1 RES1    0.0000
     39 C28        4.1150    4.4363    6.5241 C.ar      1 RES1    0.0000
     40 C29        5.2138    3.5583    6.9042 C.ar      1 RES1    0.0000
     41 C30        6.5057    3.7702    6.3800 C.ar      1 RES1    0.0000
     42 H12        6.6428    4.4685    5.7505 H         1 RES1    0.0000
     43 C31        3.5547    1.1625    9.4989 C.3       1 RES1    0.0000
     44 H13        2.6140    1.1149    9.7695 H         1 RES1    0.0000
     45 H14        4.1121    1.3408   10.2849 H         1 RES1    0.0000
     46 H15        3.8219    0.3103    9.0953 H         1 RES1    0.0000
     47 C32       -1.2450    0.0468   13.1091 C.3       1 RES1    0.0000
     48 H16       -0.4441    0.2252   12.5734 H         1 RES1    0.0000
     49 H17       -1.5521   -0.8688   12.9425 H         1 RES1    0.0000
     50 H18       -1.0321    0.1520   14.0599 H         1 RES1    0.0000
     51 C33       -5.4613    3.9675   11.5678 C.3       1 RES1    0.0000
     52 H19       -5.0998    4.5456   10.8639 H         1 RES1    0.0000
     53 H20       -5.7044    4.5124   12.3453 H         1 RES1    0.0000
     54 H21       -6.2568    3.5033   11.2328 H         1 RES1    0.0000
     55 C34        4.2668    5.5414    5.5237 C.3       1 RES1    0.0000
     56 H22        3.4310    6.0502    5.4695 H         1 RES1    0.0000
     57 H23        4.4747    5.1601    4.6451 H         1 RES1    0.0000
     58 H24        4.9941    6.1363    5.8020 H         1 RES1    0.0000
@<TRIPOS>BOND
     1    1    2 1
     2    3    1 ar
     3    4    3 1
     4    5    3 ar
     5    6    5 1
     6    7    5 ar
     7    8    7 ar
     8    9    8 ar
     9   10    9 1
    10   11   10 ar
    11   12   11 ar
    12   13   12 1
    13   14   12 ar
    14   15   14 1
    15   16   15 ar
    16   17   16 ar
    17   18   17 ar
    18   19   18 1
    19   20   18 ar
    20   21   20 1
    21   22   20 ar
    22   23   22 1
    23   24   22 ar
    24   25   24 1
    25   26   17 ar
    26   27   26 ar
    27   28   15 ar
    28   29   14 ar
    29   30   29 ar
    30   31   30 1
    31   32   11 ar
    32   33   32 ar
    33   34   33 1
    34   35   33 ar
    35   36   35 1
    36   37   10 ar
    37   38    9 ar
    38   39   38 ar
    39   40    7 ar
    40   41    1 ar
    41   42   41 1
    42   43    8 1
    43   44   43 1
    44   45   43 1
    45   46   43 1
    46   47   16 1
    47   48   47 1
    48   49   47 1
    49   50   47 1
    50   51   27 1
    51   52   51 1
    52   53   51 1
    53   54   51 1
    54   55   39 1
    55   56   55 1
    56   57   55 1
    57   58   55 1
    58   24   26 ar
    59   27   28 ar
    60   28   29 1
    61   30   32 ar
    62   35   37 ar
    63   37   38 1
    64   39   40 ar
    65   40   41 ar
@<TRIPOS>SUBSTRUCTURE
     1 RES1 1

@<TRIPOS>CRYSIN
  19.9832    5.5314   22.3395  90.0000 116.4960  90.0000  14 1

