# MOL2 file generated by ConQuest
# Please check atom types

@<TRIPOS>MOLECULE
GICWUK
    58    64     1
SMALL
NO_CHARGES
****
Generated from CSD

@<TRIPOS>ATOM
      1 C1         3.7059    3.8345   -3.4939 C.3       1 RES1    0.0000
      2 C2         2.9411    4.4961   -2.3444 C.3       1 RES1    0.0000
      3 C3         1.6009    3.8041   -2.0791 C.3       1 RES1    0.0000
      4 C4         0.7874    4.4874   -1.0135 C.ar      1 RES1    0.0000
      5 C5         0.8865    4.1290    0.3333 C.ar      1 RES1    0.0000
      6 C6         1.7213    3.1012    0.9999 C.ar      1 RES1    0.0000
      7 C7         2.6705    2.1791    0.6076 C.ar      1 RES1    0.0000
      8 C8         3.2148    1.2975    1.5735 C.ar      1 RES1    0.0000
      9 C9         2.8519    1.3423    2.8976 C.ar      1 RES1    0.0000
     10 C10        1.9172    2.3026    3.3488 C.ar      1 RES1    0.0000
     11 C11        1.4460    2.4746    4.6774 C.ar      1 RES1    0.0000
     12 C12        0.5128    3.4308    4.9359 C.ar      1 RES1    0.0000
     13 C13       -0.0418    4.2850    3.9360 C.ar      1 RES1    0.0000
     14 C14        0.4093    4.1429    2.6323 C.ar      1 RES1    0.0000
     15 C15       -0.0962    5.5218   -1.3286 C.ar      1 RES1    0.0000
     16 C16        1.3829    3.1512    2.3761 C.ar      1 RES1    0.0000
     17 H1         3.1342    3.9905   -4.2625 H         1 RES1    0.0000
     18 H2         3.8213    2.8886   -3.3556 H         1 RES1    0.0000
     19 H3         4.5553    4.2222   -3.6277 H         1 RES1    0.0000
     20 H4         2.7885    5.4322   -2.5620 H         1 RES1    0.0000
     21 H5         3.4725    4.4951   -1.5418 H         1 RES1    0.0000
     22 H6         1.7720    2.8886   -1.8138 H         1 RES1    0.0000
     23 H7         1.1123    3.7588   -2.9021 H         1 RES1    0.0000
     24 H8         2.9787    2.1626   -0.3174 H         1 RES1    0.0000
     25 H9         3.8827    0.6333    1.2924 H         1 RES1    0.0000
     26 H10        3.2301    0.7106    3.5370 H         1 RES1    0.0000
     27 H11        1.8165    1.9206    5.3962 H         1 RES1    0.0000
     28 H12        0.2311    3.5425    5.8496 H         1 RES1    0.0000
     29 H13       -0.7154    4.9482    4.1492 H         1 RES1    0.0000
     30 C15D       0.0962    4.7762    1.3286 C.ar      1 RES1    0.0000
     31 C5D       -0.8865    6.1690   -0.3333 C.ar      1 RES1    0.0000
     32 C14D      -0.4093    6.1551   -2.6323 C.ar      1 RES1    0.0000
     33 C4D       -0.7874    5.8106    1.0135 C.ar      1 RES1    0.0000
     34 C6D       -1.7213    7.1968   -0.9999 C.ar      1 RES1    0.0000
     35 C13D       0.0418    6.0130   -3.9360 C.ar      1 RES1    0.0000
     36 C16D      -1.3829    7.1468   -2.3761 C.ar      1 RES1    0.0000
     37 C3D       -1.6009    6.4939    2.0791 C.3       1 RES1    0.0000
     38 C7D       -2.6705    8.1189   -0.6076 C.ar      1 RES1    0.0000
     39 C12D      -0.5128    6.8672   -4.9359 C.ar      1 RES1    0.0000
     40 H13D       0.7154    5.3498   -4.1492 H         1 RES1    0.0000
     41 C10D      -1.9172    7.9954   -3.3488 C.ar      1 RES1    0.0000
     42 C2D       -2.9411    5.8019    2.3444 C.3       1 RES1    0.0000
     43 H6D       -1.7720    7.4094    1.8138 H         1 RES1    0.0000
     44 H7D       -1.1123    6.5392    2.9021 H         1 RES1    0.0000
     45 C8D       -3.2148    9.0005   -1.5735 C.ar      1 RES1    0.0000
     46 H8D       -2.9787    8.1354    0.3174 H         1 RES1    0.0000
     47 C11D      -1.4460    7.8234   -4.6774 C.ar      1 RES1    0.0000
     48 H12D      -0.2311    6.7555   -5.8496 H         1 RES1    0.0000
     49 C9D       -2.8519    8.9557   -2.8976 C.ar      1 RES1    0.0000
     50 C1D       -3.7059    6.4635    3.4939 C.3       1 RES1    0.0000
     51 H4D       -2.7885    4.8658    2.5620 H         1 RES1    0.0000
     52 H5D       -3.4725    5.8029    1.5418 H         1 RES1    0.0000
     53 H9D       -3.8827    9.6647   -1.2924 H         1 RES1    0.0000
     54 H11D      -1.8165    8.3774   -5.3962 H         1 RES1    0.0000
     55 H10D      -3.2301    9.5874   -3.5370 H         1 RES1    0.0000
     56 H1D       -3.1342    6.3075    4.2625 H         1 RES1    0.0000
     57 H2D       -3.8213    7.4094    3.3556 H         1 RES1    0.0000
     58 H3D       -4.5553    6.0758    3.6277 H         1 RES1    0.0000
@<TRIPOS>BOND
     1    1    2 1
     2    2    3 1
     3    3    4 1
     4    4    5 ar
     5    5    6 1
     6    6    7 ar
     7    7    8 ar
     8    8    9 ar
     9    9   10 ar
    10   10   11 ar
    11   11   12 ar
    12   12   13 ar
    13   13   14 ar
    14   14   16 ar
    15   15    4 ar
    16   16    6 ar
    17   17    1 1
    18   18    1 1
    19   19    1 1
    20   20    2 1
    21   21    2 1
    22   22    3 1
    23   23    3 1
    24   24    7 1
    25   25    8 1
    26   26    9 1
    27   27   11 1
    28   28   12 1
    29   29   13 1
    30   30    5 ar
    31   31   15 ar
    32   32   15 1
    33   33   30 ar
    34   34   31 1
    35   35   32 ar
    36   36   32 ar
    37   37   33 1
    38   38   34 ar
    39   39   35 ar
    40   40   35 1
    41   41   36 ar
    42   42   37 1
    43   43   37 1
    44   44   37 1
    45   45   38 ar
    46   46   38 1
    47   47   39 ar
    48   48   39 1
    49   49   41 ar
    50   50   42 1
    51   51   42 1
    52   52   42 1
    53   53   45 1
    54   54   47 1
    55   55   49 1
    56   56   50 1
    57   57   50 1
    58   58   50 1
    59   10   16 ar
    60   14   30 1
    61   31   33 ar
    62   34   36 ar
    63   41   47 ar
    64   45   49 ar
@<TRIPOS>SUBSTRUCTURE
     1 RES1 1

@<TRIPOS>CRYSIN
  18.7270    5.1490   24.0780  90.0000 109.6700  90.0000  15 1

