# MOL2 file generated by ConQuest
# Please check atom types

@<TRIPOS>MOLECULE
GIDROC
    84    98     1
SMALL
NO_CHARGES
****
Generated from CSD

@<TRIPOS>ATOM
      1 C1         4.5310   20.2215    9.0153 C.ar      1 RES1    0.0000
      2 H1         4.8858   20.2812    9.8944 H         1 RES1    0.0000
      3 C2         4.0654   21.3979    8.3664 C.ar      1 RES1    0.0000
      4 C3         3.5066   21.3656    7.0328 C.ar      1 RES1    0.0000
      5 C4         3.3429   20.0368    6.4027 C.ar      1 RES1    0.0000
      6 C5         2.6701   19.7836    5.1985 C.ar      1 RES1    0.0000
      7 H2         2.3153   20.5193    4.7139 H         1 RES1    0.0000
      8 C6         2.4983   18.4948    4.6772 C.ar      1 RES1    0.0000
      9 C7         1.7132   18.1630    3.4650 C.ar      1 RES1    0.0000
     10 C8         1.1560   19.0913    2.5625 C.ar      1 RES1    0.0000
     11 H3         1.3021   20.0160    2.7247 H         1 RES1    0.0000
     12 C9         0.3982   18.7311    1.4391 C.ar      1 RES1    0.0000
     13 C10       -0.0931   19.6498    0.4072 C.ar      1 RES1    0.0000
     14 C11        0.0321   21.0444    0.4205 C.ar      1 RES1    0.0000
     15 H4         0.4094   21.4567    1.1895 H         1 RES1    0.0000
     16 C12       -0.3725   21.8708   -0.6542 C.ar      1 RES1    0.0000
     17 C13       -0.8783   21.2216   -1.8163 C.ar      1 RES1    0.0000
     18 C14       -1.2363   21.9489   -3.0058 C.ar      1 RES1    0.0000
     19 H5        -1.4739   21.4778   -3.7947 H         1 RES1    0.0000
     20 C15       -1.0469   17.6560   -0.8097 C.ar      1 RES1    0.0000
     21 H6        -1.5350   17.3124   -1.5486 H         1 RES1    0.0000
     22 C16       -0.7305   19.0548   -0.7429 C.ar      1 RES1    0.0000
     23 C17       -1.0725   19.8508   -1.8136 C.ar      1 RES1    0.0000
     24 H7        -1.4563   19.4433   -2.5812 H         1 RES1    0.0000
     25 C18        1.5044   16.7753    3.1820 C.ar      1 RES1    0.0000
     26 C19        2.1403   15.7418    3.9456 C.ar      1 RES1    0.0000
     27 H8         2.0118   14.8319    3.7013 H         1 RES1    0.0000
     28 C20        2.9110   16.0390    4.9996 C.ar      1 RES1    0.0000
     29 H9         3.3541   15.3473    5.4762 H         1 RES1    0.0000
     30 C21        3.0667   17.4059    5.4061 C.ar      1 RES1    0.0000
     31 C22        3.2273   22.6050    6.4320 C.ar      1 RES1    0.0000
     32 H10        2.8259   22.6050    5.5710 H         1 RES1    0.0000
     33 C23        4.4748   19.0307    8.4012 C.ar      1 RES1    0.0000
     34 H11        4.8441   18.2648    8.8230 H         1 RES1    0.0000
     35 C24        3.8615   18.9047    7.1129 C.ar      1 RES1    0.0000
     36 C25        3.7378   17.6418    6.5942 C.ar      1 RES1    0.0000
     37 H12        4.1248   16.9116    7.0615 H         1 RES1    0.0000
     38 C26        0.6952   16.4106    2.1260 C.ar      1 RES1    0.0000
     39 H13        0.5202   15.4889    1.9865 H         1 RES1    0.0000
     40 C27        0.1284   17.3344    1.2582 C.ar      1 RES1    0.0000
     41 C28       -0.6535   16.8407    0.1715 C.ar      1 RES1    0.0000
     42 H14       -0.8975   15.9230    0.1462 H         1 RES1    0.0000
     43 C29        4.2693   22.6050    8.9886 C.ar      1 RES1    0.0000
     44 H15        4.5663   22.6050    9.8910 H         1 RES1    0.0000
     45 C1F        4.5310   24.9885    9.0153 C.ar      1 RES1    0.0000
     46 H1F        4.8858   24.9288    9.8944 H         1 RES1    0.0000
     47 C2F        4.0654   23.8121    8.3664 C.ar      1 RES1    0.0000
     48 C3F        3.5066   23.8444    7.0328 C.ar      1 RES1    0.0000
     49 C4F        3.3429   25.1732    6.4027 C.ar      1 RES1    0.0000
     50 C5F        2.6701   25.4264    5.1985 C.ar      1 RES1    0.0000
     51 H2F        2.3153   24.6907    4.7139 H         1 RES1    0.0000
     52 C6F        2.4983   26.7152    4.6772 C.ar      1 RES1    0.0000
     53 C7F        1.7132   27.0470    3.4650 C.ar      1 RES1    0.0000
     54 C8F        1.1560   26.1187    2.5625 C.ar      1 RES1    0.0000
     55 H3F        1.3021   25.1940    2.7247 H         1 RES1    0.0000
     56 C9F        0.3982   26.4789    1.4391 C.ar      1 RES1    0.0000
     57 C10F      -0.0931   25.5602    0.4072 C.ar      1 RES1    0.0000
     58 C11F       0.0321   24.1656    0.4205 C.ar      1 RES1    0.0000
     59 H4F        0.4094   23.7533    1.1895 H         1 RES1    0.0000
     60 C12F      -0.3725   23.3392   -0.6542 C.ar      1 RES1    0.0000
     61 C13F      -0.8783   23.9884   -1.8163 C.ar      1 RES1    0.0000
     62 C14F      -1.2363   23.2611   -3.0058 C.ar      1 RES1    0.0000
     63 H5F       -1.4739   23.7322   -3.7947 H         1 RES1    0.0000
     64 C15F      -1.0469   27.5540   -0.8097 C.ar      1 RES1    0.0000
     65 H6F       -1.5350   27.8976   -1.5486 H         1 RES1    0.0000
     66 C16F      -0.7305   26.1552   -0.7429 C.ar      1 RES1    0.0000
     67 C17F      -1.0725   25.3592   -1.8136 C.ar      1 RES1    0.0000
     68 H7F       -1.4563   25.7667   -2.5812 H         1 RES1    0.0000
     69 C18F       1.5044   28.4347    3.1820 C.ar      1 RES1    0.0000
     70 C19F       2.1403   29.4682    3.9456 C.ar      1 RES1    0.0000
     71 H8F        2.0118   30.3781    3.7013 H         1 RES1    0.0000
     72 C20F       2.9110   29.1710    4.9996 C.ar      1 RES1    0.0000
     73 H9F        3.3541   29.8627    5.4762 H         1 RES1    0.0000
     74 C21F       3.0667   27.8041    5.4061 C.ar      1 RES1    0.0000
     75 C23F       4.4748   26.1793    8.4012 C.ar      1 RES1    0.0000
     76 H11F       4.8441   26.9452    8.8230 H         1 RES1    0.0000
     77 C24F       3.8615   26.3053    7.1129 C.ar      1 RES1    0.0000
     78 C25F       3.7378   27.5682    6.5942 C.ar      1 RES1    0.0000
     79 H12F       4.1248   28.2984    7.0615 H         1 RES1    0.0000
     80 C26F       0.6952   28.7994    2.1260 C.ar      1 RES1    0.0000
     81 H13F       0.5202   29.7211    1.9865 H         1 RES1    0.0000
     82 C27F       0.1284   27.8756    1.2582 C.ar      1 RES1    0.0000
     83 C28F      -0.6535   28.3693    0.1715 C.ar      1 RES1    0.0000
     84 H14F      -0.8975   29.2870    0.1462 H         1 RES1    0.0000
@<TRIPOS>BOND
     1    1    2 1
     2    3    1 ar
     3    4    3 ar
     4    5    4 ar
     5    6    5 ar
     6    7    6 1
     7    8    6 ar
     8    9    8 ar
     9   10    9 ar
    10   11   10 1
    11   12   10 ar
    12   13   12 ar
    13   14   13 ar
    14   15   14 1
    15   16   14 ar
    16   17   16 ar
    17   18   17 ar
    18   19   18 1
    19   20   21 1
    20   22   13 ar
    21   23   17 ar
    22   24   23 1
    23   25    9 ar
    24   26   25 ar
    25   27   26 1
    26   28   26 ar
    27   29   28 1
    28   30    8 ar
    29   31    4 ar
    30   32   31 1
    31   33    1 ar
    32   34   33 1
    33   35    5 ar
    34   36   30 ar
    35   37   36 1
    36   38   25 ar
    37   39   38 1
    38   40   12 ar
    39   41   20 ar
    40   42   41 1
    41   43    3 ar
    42   44   43 1
    43   45   46 1
    44   47   43 ar
    45   48   31 ar
    46   49   48 ar
    47   50   49 ar
    48   51   50 1
    49   52   50 ar
    50   53   52 ar
    51   54   53 ar
    52   55   54 1
    53   56   54 ar
    54   57   56 ar
    55   58   57 ar
    56   59   58 1
    57   60   16 ar
    58   61   60 ar
    59   62   18 ar
    60   63   62 1
    61   64   65 1
    62   66   57 ar
    63   67   61 ar
    64   68   67 1
    65   69   53 ar
    66   70   69 ar
    67   71   70 1
    68   72   70 ar
    69   73   72 1
    70   74   52 ar
    71   75   45 ar
    72   76   75 1
    73   77   49 ar
    74   78   74 ar
    75   79   78 1
    76   80   69 ar
    77   81   80 1
    78   82   56 ar
    79   83   64 ar
    80   84   83 1
    81   20   22 ar
    82   22   23 ar
    83   28   30 ar
    84   33   35 ar
    85   35   36 ar
    86   38   40 ar
    87   40   41 ar
    88   45   47 ar
    89   47   48 ar
    90   58   60 ar
    91   61   62 ar
    92   64   66 ar
    93   66   67 ar
    94   72   74 ar
    95   75   77 ar
    96   77   78 ar
    97   80   82 ar
    98   82   83 ar
@<TRIPOS>SUBSTRUCTURE
     1 RES1 1

@<TRIPOS>CRYSIN
  16.0560   30.1400    6.6750  90.0000  90.0000  90.0000  62 1

