# MOL2 file generated by ConQuest
# Please check atom types

@<TRIPOS>MOLECULE
GUQZUP01
    72    84     1
SMALL
NO_CHARGES
****
Generated from CSD

@<TRIPOS>ATOM
      1 C1         0.5499   -1.0241    3.2168 C.ar      1 RES1    0.0000
      2 H1         1.0396   -1.6854    3.6912 H         1 RES1    0.0000
      3 C2         1.0347    0.2528    3.1240 C.ar      1 RES1    0.0000
      4 H2         1.8675    0.4623    3.5291 H         1 RES1    0.0000
      5 C3         0.3265    1.2655    2.4412 C.ar      1 RES1    0.0000
      6 C4         0.8691    2.5905    2.2555 C.ar      1 RES1    0.0000
      7 C5         0.4334    3.3317    1.1525 C.ar      1 RES1    0.0000
      8 C6         1.2053    4.4505    0.6883 C.ar      1 RES1    0.0000
      9 C7         0.7766    5.1917   -0.4694 C.ar      1 RES1    0.0000
     10 C8         1.5339    6.2688   -0.9323 C.ar      1 RES1    0.0000
     11 C9         0.8905    7.2342   -1.7974 C.ar      1 RES1    0.0000
     12 C10        1.3561    8.5609   -1.9135 C.ar      1 RES1    0.0000
     13 H3         2.1728    8.8022   -1.4929 H         1 RES1    0.0000
     14 C11        0.6655    9.5076   -2.6122 C.ar      1 RES1    0.0000
     15 H4         1.0115   10.3898   -2.6883 H         1 RES1    0.0000
     16 C12        1.9724    2.8066    4.4952 C.ar      1 RES1    0.0000
     17 H5         1.4554    2.0793    4.8199 H         1 RES1    0.0000
     18 C13        1.8473    3.1915    3.1421 C.ar      1 RES1    0.0000
     19 C14        2.6030    4.3037    2.6860 C.ar      1 RES1    0.0000
     20 C15        2.3816    4.8060    1.3466 C.ar      1 RES1    0.0000
     21 C16        3.3371    5.6254    0.6370 C.ar      1 RES1    0.0000
     22 C17        2.9239    6.3512   -0.5133 C.ar      1 RES1    0.0000
     23 C18        3.9041    6.9847   -1.3022 C.ar      1 RES1    0.0000
     24 H6         3.6357    7.4634   -2.0782 H         1 RES1    0.0000
     25 C19        2.8218    3.4573    5.3495 C.ar      1 RES1    0.0000
     26 H7         2.9033    3.1638    6.2498 H         1 RES1    0.0000
     27 C20        3.5658    4.5475    4.9042 C.ar      1 RES1    0.0000
     28 H8         4.1527    4.9968    5.5005 H         1 RES1    0.0000
     29 C21        3.4510    4.9723    3.6042 C.ar      1 RES1    0.0000
     30 H9         3.9485    5.7274    3.3137 H         1 RES1    0.0000
     31 C22        4.7198    5.5716    0.9318 C.ar      1 RES1    0.0000
     32 H10        5.0143    5.0775    1.6873 H         1 RES1    0.0000
     33 C23        5.6453    6.2142    0.1527 C.ar      1 RES1    0.0000
     34 H11        6.5671    6.1750    0.3813 H         1 RES1    0.0000
     35 C24        5.2379    6.9285   -0.9758 C.ar      1 RES1    0.0000
     36 H12        5.8797    7.3728   -1.5157 H         1 RES1    0.0000
     37 C1D       -0.5499    9.1781   -3.2168 C.ar      1 RES1    0.0000
     38 H1D       -1.0396    9.8394   -3.6912 H         1 RES1    0.0000
     39 C2D       -1.0347    7.9012   -3.1240 C.ar      1 RES1    0.0000
     40 H2D       -1.8675    7.6917   -3.5291 H         1 RES1    0.0000
     41 C3D       -0.3265    6.8885   -2.4412 C.ar      1 RES1    0.0000
     42 C4D       -0.8691    5.5635   -2.2555 C.ar      1 RES1    0.0000
     43 C5D       -0.4334    4.8223   -1.1525 C.ar      1 RES1    0.0000
     44 C6D       -1.2053    3.7035   -0.6883 C.ar      1 RES1    0.0000
     45 C7D       -0.7766    2.9623    0.4694 C.ar      1 RES1    0.0000
     46 C8D       -1.5339    1.8852    0.9323 C.ar      1 RES1    0.0000
     47 C9D       -0.8905    0.9198    1.7974 C.ar      1 RES1    0.0000
     48 C10D      -1.3561   -0.4069    1.9135 C.ar      1 RES1    0.0000
     49 H3D       -2.1728   -0.6482    1.4929 H         1 RES1    0.0000
     50 C11D      -0.6655   -1.3536    2.6122 C.ar      1 RES1    0.0000
     51 H4D       -1.0115   -2.2358    2.6883 H         1 RES1    0.0000
     52 C12D      -1.9724    5.3474   -4.4952 C.ar      1 RES1    0.0000
     53 H5D       -1.4554    6.0747   -4.8199 H         1 RES1    0.0000
     54 C13D      -1.8473    4.9625   -3.1421 C.ar      1 RES1    0.0000
     55 C14D      -2.6030    3.8503   -2.6860 C.ar      1 RES1    0.0000
     56 C15D      -2.3816    3.3480   -1.3466 C.ar      1 RES1    0.0000
     57 C16D      -3.3371    2.5286   -0.6370 C.ar      1 RES1    0.0000
     58 C17D      -2.9239    1.8028    0.5133 C.ar      1 RES1    0.0000
     59 C18D      -3.9041    1.1693    1.3022 C.ar      1 RES1    0.0000
     60 H6D       -3.6357    0.6906    2.0782 H         1 RES1    0.0000
     61 C19D      -2.8218    4.6967   -5.3495 C.ar      1 RES1    0.0000
     62 H7D       -2.9033    4.9902   -6.2498 H         1 RES1    0.0000
     63 C20D      -3.5658    3.6065   -4.9042 C.ar      1 RES1    0.0000
     64 H8D       -4.1527    3.1572   -5.5005 H         1 RES1    0.0000
     65 C21D      -3.4510    3.1817   -3.6042 C.ar      1 RES1    0.0000
     66 H9D       -3.9485    2.4266   -3.3137 H         1 RES1    0.0000
     67 C22D      -4.7198    2.5824   -0.9318 C.ar      1 RES1    0.0000
     68 H10D      -5.0143    3.0765   -1.6873 H         1 RES1    0.0000
     69 C23D      -5.6453    1.9398   -0.1527 C.ar      1 RES1    0.0000
     70 H11D      -6.5671    1.9790   -0.3813 H         1 RES1    0.0000
     71 C24D      -5.2379    1.2255    0.9758 C.ar      1 RES1    0.0000
     72 H12D      -5.8797    0.7812    1.5157 H         1 RES1    0.0000
@<TRIPOS>BOND
     1    1    2 1
     2    3    1 ar
     3    4    3 1
     4    5    3 ar
     5    6    5 ar
     6    7    6 ar
     7    8    7 ar
     8    9    8 ar
     9   10    9 ar
    10   11   10 ar
    11   12   11 ar
    12   13   12 1
    13   14   12 ar
    14   15   14 1
    15   16   17 1
    16   18    6 ar
    17   19   18 ar
    18   20    8 ar
    19   21   20 ar
    20   22   10 ar
    21   23   22 ar
    22   24   23 1
    23   25   16 ar
    24   26   25 1
    25   27   25 ar
    26   28   27 1
    27   29   19 ar
    28   30   29 1
    29   31   21 ar
    30   32   31 1
    31   33   31 ar
    32   34   33 1
    33   35   23 ar
    34   36   35 1
    35   37   14 ar
    36   38   37 1
    37   39   37 ar
    38   40   39 1
    39   41   11 ar
    40   42   41 ar
    41   43    9 ar
    42   44   43 ar
    43   45    7 ar
    44   46   45 ar
    45   47    5 ar
    46   48   47 ar
    47   49   48 1
    48   50    1 ar
    49   51   50 1
    50   52   53 1
    51   54   42 ar
    52   55   54 ar
    53   56   44 ar
    54   57   56 ar
    55   58   46 ar
    56   59   58 ar
    57   60   59 1
    58   61   52 ar
    59   62   61 1
    60   63   61 ar
    61   64   63 1
    62   65   55 ar
    63   66   65 1
    64   67   57 ar
    65   68   67 1
    66   69   67 ar
    67   70   69 1
    68   71   59 ar
    69   72   71 1
    70   16   18 ar
    71   19   20 ar
    72   21   22 ar
    73   27   29 ar
    74   33   35 ar
    75   39   41 ar
    76   42   43 ar
    77   44   45 ar
    78   46   47 ar
    79   48   50 ar
    80   52   54 ar
    81   55   56 ar
    82   57   58 ar
    83   63   65 ar
    84   69   71 ar
@<TRIPOS>SUBSTRUCTURE
     1 RES1 1

@<TRIPOS>CRYSIN
  18.7310    8.1540   19.0660  90.0000  90.0000  90.0000  60 1

