# MOL2 file generated by ConQuest
# Please check atom types

@<TRIPOS>MOLECULE
HAGFUT
    44    48     1
SMALL
NO_CHARGES
****
Generated from CSD

@<TRIPOS>ATOM
      1 C1        16.9183    5.8320    5.9116 C.ar      1 RES1    0.0000
      2 C2        16.7815    6.8546    5.0035 C.ar      1 RES1    0.0000
      3 C3        15.4990    7.4140    4.7644 C.ar      1 RES1    0.0000
      4 H1        15.4180    8.1093    4.1518 H         1 RES1    0.0000
      5 C4        14.3875    6.9663    5.3978 C.ar      1 RES1    0.0000
      6 H2        13.5640    7.3672    5.2311 H         1 RES1    0.0000
      7 C5        14.4766    5.8943    6.3104 C.ar      1 RES1    0.0000
      8 C6        15.7563    5.3116    6.5759 C.ar      1 RES1    0.0000
      9 C7        13.3351    5.3505    6.9403 C.ar      1 RES1    0.0000
     10 H3        12.5038    5.7376    6.7886 H         1 RES1    0.0000
     11 C8        13.4244    4.2699    7.7679 C.ar      1 RES1    0.0000
     12 H4        12.6583    3.9243    8.1679 H         1 RES1    0.0000
     13 C9        14.6775    3.6793    8.0150 C.ar      1 RES1    0.0000
     14 H5        14.7379    2.9355    8.5691 H         1 RES1    0.0000
     15 C10       15.8140    4.1971    7.4403 C.ar      1 RES1    0.0000
     16 H6        16.6380    3.8057    7.6254 H         1 RES1    0.0000
     17 C11       18.2381    5.1401    6.1426 C.ar      1 RES1    0.0000
     18 C12       18.7339    4.2976    5.1989 C.ar      1 RES1    0.0000
     19 H7        18.2896    4.2257    4.3851 H         1 RES1    0.0000
     20 C13       19.8944    3.5304    5.4070 C.ar      1 RES1    0.0000
     21 H8        20.2111    2.9684    4.7380 H         1 RES1    0.0000
     22 C14       20.5510    3.6187    6.6024 C.ar      1 RES1    0.0000
     23 H9        21.2997    3.0896    6.7564 H         1 RES1    0.0000
     24 C15       20.1033    4.5036    7.6024 C.ar      1 RES1    0.0000
     25 C16       18.9422    5.2977    7.3691 C.ar      1 RES1    0.0000
     26 C17       20.7781    4.6413    8.8403 C.ar      1 RES1    0.0000
     27 H10       21.5181    4.1062    9.0139 H         1 RES1    0.0000
     28 C18       20.3712    5.5358    9.7794 C.ar      1 RES1    0.0000
     29 H11       20.8326    5.6138   10.5829 H         1 RES1    0.0000
     30 C19       19.2496    6.3394    9.5277 C.ar      1 RES1    0.0000
     31 H12       18.9822    6.9603   10.1656 H         1 RES1    0.0000
     32 C20       18.5419    6.2268    8.3610 C.ar      1 RES1    0.0000
     33 H13       17.7959    6.7637    8.2196 H         1 RES1    0.0000
     34 C21       17.9241    7.4192    4.2276 C.ar      1 RES1    0.0000
     35 C22       19.0269    7.9950    4.8541 C.ar      1 RES1    0.0000
     36 H14       19.0869    7.9829    5.7828 H         1 RES1    0.0000
     37 C23       20.0413    8.5865    4.1069 C.ar      1 RES1    0.0000
     38 H15       20.7687    8.9761    4.5345 H         1 RES1    0.0000
     39 C24       19.9655    8.5943    2.7357 C.ar      1 RES1    0.0000
     40 H16       20.6426    8.9917    2.2368 H         1 RES1    0.0000
     41 C25       18.8845    8.0132    2.0920 C.ar      1 RES1    0.0000
     42 H17       18.8437    8.0072    1.1632 H         1 RES1    0.0000
     43 C26       17.8637    7.4426    2.8357 C.ar      1 RES1    0.0000
     44 H18       17.1299    7.0702    2.4012 H         1 RES1    0.0000
@<TRIPOS>BOND
     1    1    2 ar
     2    2    3 ar
     3    3    4 1
     4    5    3 ar
     5    6    5 1
     6    7    5 ar
     7    8    1 ar
     8    9    7 ar
     9   10    9 1
    10   11    9 ar
    11   12   11 1
    12   13   11 ar
    13   14   13 1
    14   15    8 ar
    15   16   15 1
    16   17    1 1
    17   18   17 ar
    18   19   18 1
    19   20   18 ar
    20   21   20 1
    21   22   20 ar
    22   23   22 1
    23   24   22 ar
    24   25   17 ar
    25   26   24 ar
    26   27   26 1
    27   28   26 ar
    28   29   28 1
    29   30   28 ar
    30   31   30 1
    31   32   25 ar
    32   33   32 1
    33   34    2 1
    34   35   34 ar
    35   36   35 1
    36   37   35 ar
    37   38   37 1
    38   39   37 ar
    39   40   39 1
    40   41   39 ar
    41   42   41 1
    42   43   34 ar
    43   44   43 1
    44    7    8 ar
    45   13   15 ar
    46   24   25 ar
    47   30   32 ar
    48   41   43 ar
@<TRIPOS>SUBSTRUCTURE
     1 RES1 1

@<TRIPOS>CRYSIN
  17.7586    8.6592   11.4944  90.0000  90.0000  90.0000  33 1

