# MOL2 file generated by ConQuest
# Please check atom types

@<TRIPOS>MOLECULE
HAJJOT
    38    41     1
SMALL
NO_CHARGES
****
Generated from CSD

@<TRIPOS>ATOM
      1 C1         8.5370   -0.9683   -0.3312 C.ar      1 RES1    0.0000
      2 C2         8.3123    0.9193    1.2130 C.ar      1 RES1    0.0000
      3 C3         6.3243   -0.0039    0.1090 C.ar      1 RES1    0.0000
      4 C4         7.1433   -0.9700   -0.5558 C.ar      1 RES1    0.0000
      5 C5         9.0791   -0.0296    0.5407 C.ar      1 RES1    0.0000
      6 H1        10.0642   -0.0335    0.7202 H         1 RES1    0.0000
      7 C6         6.5086   -1.9077   -1.4360 C.ar      1 RES1    0.0000
      8 H2         7.0494   -2.5659   -1.8778 H         1 RES1    0.0000
      9 C7         6.9183    0.9449    0.9975 C.ar      1 RES1    0.0000
     10 C8         8.9827    1.8887    2.1662 C.3       1 RES1    0.0000
     11 H3         9.9078    1.7069    2.1936 H         1 RES1    0.0000
     12 H4         8.6512    1.8352    3.0515 H         1 RES1    0.0000
     13 H5         8.8592    2.8225    1.8544 H         1 RES1    0.0000
     14 C9         5.1731   -1.8971   -1.6429 C.ar      1 RES1    0.0000
     15 H6         4.7702   -2.5213   -2.2342 H         1 RES1    0.0000
     16 C10        9.4398   -1.9718   -1.0140 C.3       1 RES1    0.0000
     17 H7        10.3733   -1.8686   -0.6807 H         1 RES1    0.0000
     18 H8         9.4469   -1.8631   -1.9728 H         1 RES1    0.0000
     19 H9         9.1972   -2.8894   -0.8280 H         1 RES1    0.0000
     20 C1B        2.6930    0.9683    0.3312 C.ar      1 RES1    0.0000
     21 C2B        2.9177   -0.9193   -1.2130 C.ar      1 RES1    0.0000
     22 C3B        4.9057    0.0039   -0.1090 C.ar      1 RES1    0.0000
     23 C4B        4.0867    0.9700    0.5558 C.ar      1 RES1    0.0000
     24 C5B        2.1509    0.0296   -0.5407 C.ar      1 RES1    0.0000
     25 H1B        1.1658    0.0335   -0.7202 H         1 RES1    0.0000
     26 C6B        4.7214    1.9077    1.4360 C.ar      1 RES1    0.0000
     27 H2B        4.1806    2.5659    1.8778 H         1 RES1    0.0000
     28 C7B        4.3117   -0.9449   -0.9975 C.ar      1 RES1    0.0000
     29 C8B        2.2473   -1.8887   -2.1662 C.3       1 RES1    0.0000
     30 H3B        1.3222   -1.7069   -2.1936 H         1 RES1    0.0000
     31 H4B        2.5788   -1.8352   -3.0515 H         1 RES1    0.0000
     32 H5B        2.3708   -2.8225   -1.8544 H         1 RES1    0.0000
     33 C9B        6.0569    1.8971    1.6429 C.ar      1 RES1    0.0000
     34 H6B        6.4598    2.5213    2.2342 H         1 RES1    0.0000
     35 C10B       1.7902    1.9718    1.0140 C.3       1 RES1    0.0000
     36 H7B        0.8567    1.8686    0.6807 H         1 RES1    0.0000
     37 H8B        1.7831    1.8631    1.9728 H         1 RES1    0.0000
     38 H9B        2.0328    2.8894    0.8280 H         1 RES1    0.0000
@<TRIPOS>BOND
     1    1    4 ar
     2    2    5 ar
     3    3    4 ar
     4    4    7 ar
     5    5    1 ar
     6    6    5 1
     7    7    8 1
     8    9    2 ar
     9   10    2 1
    10   11   10 1
    11   12   10 1
    12   13   10 1
    13   14    7 ar
    14   15   14 1
    15   16    1 1
    16   17   16 1
    17   18   16 1
    18   19   16 1
    19   20   23 ar
    20   21   24 ar
    21   22    3 ar
    22   23   22 ar
    23   24   20 ar
    24   25   24 1
    25   26   23 ar
    26   27   26 1
    27   28   14 ar
    28   29   21 1
    29   30   29 1
    30   31   29 1
    31   32   29 1
    32   33    9 ar
    33   34   33 1
    34   35   20 1
    35   36   35 1
    36   37   35 1
    37   38   35 1
    38    3    9 ar
    39   21   28 ar
    40   22   28 ar
    41   26   33 ar
@<TRIPOS>SUBSTRUCTURE
     1 RES1 1

@<TRIPOS>CRYSIN
  11.2300    5.5780   11.2750  90.0000 108.8630  90.0000  14 1

