# MOL2 file generated by ConQuest
# Please check atom types

@<TRIPOS>MOLECULE
HBZCOR01
    60    72     1
SMALL
NO_CHARGES
****
Generated from CSD

@<TRIPOS>ATOM
      1 C1         3.0921    3.6688    1.7884 C.ar      1 RES1    0.0000
      2 C2         2.9221    3.6795    3.1554 C.ar      1 RES1    0.0000
      3 C3         2.0669    2.7914    3.7583 C.ar      1 RES1    0.0000
      4 C4         0.2824    0.8769    5.0274 C.ar      1 RES1    0.0000
      5 C5        -0.5615   -0.0256    5.6256 C.ar      1 RES1    0.0000
      6 C6        -1.2921   -0.9091    4.8603 C.ar      1 RES1    0.0000
      7 C7        -2.8732   -2.7335    3.2366 C.ar      1 RES1    0.0000
      8 C8        -3.5893   -3.6227    2.4630 C.ar      1 RES1    0.0000
      9 C9        -3.4318   -3.6381    1.0996 C.ar      1 RES1    0.0000
     10 C10        2.3916    2.7581    0.9861 C.ar      1 RES1    0.0000
     11 C11        1.3437    1.8572    3.0062 C.ar      1 RES1    0.0000
     12 C12        0.4356    0.9132    3.6389 C.ar      1 RES1    0.0000
     13 C13       -1.1909   -0.9096    3.4682 C.ar      1 RES1    0.0000
     14 C14       -1.9736   -1.8352    2.6552 C.ar      1 RES1    0.0000
     15 C15        2.5609    2.7510   -0.4632 C.ar      1 RES1    0.0000
     16 C16        1.5003    1.8454    1.5962 C.ar      1 RES1    0.0000
     17 C17       -0.3089    0.0031    2.8450 C.ar      1 RES1    0.0000
     18 C18       -1.8170   -1.8316    1.2452 C.ar      1 RES1    0.0000
     19 C19        0.7423    0.9112    0.7903 C.ar      1 RES1    0.0000
     20 C20       -0.1551    0.0067    1.4064 C.ar      1 RES1    0.0000
     21 C21       -0.9008   -0.9066    0.6196 C.ar      1 RES1    0.0000
     22 H1         3.7035    4.3102    1.3730 H         1 RES1    0.0000
     23 H2         3.3944    4.3358    3.7130 H         1 RES1    0.0000
     24 H3         1.9348    2.8206    4.7636 H         1 RES1    0.0000
     25 H4         0.8159    1.5203    5.5754 H         1 RES1    0.0000
     26 H5        -0.6666   -0.0307    6.6499 H         1 RES1    0.0000
     27 H6        -1.8949   -1.5152    5.3128 H         1 RES1    0.0000
     28 H7        -3.0180   -2.7182    4.2502 H         1 RES1    0.0000
     29 H8        -4.2151   -4.2027    2.9131 H         1 RES1    0.0000
     30 H9        -3.9182   -4.2948    0.5492 H         1 RES1    0.0000
     31 C15B      -2.5609   -2.7510    0.4632 C.ar      1 RES1    0.0000
     32 C9B        3.4318    3.6381   -1.0996 C.ar      1 RES1    0.0000
     33 C18B       1.8170    1.8316   -1.2452 C.ar      1 RES1    0.0000
     34 C21B       0.9008    0.9066   -0.6196 C.ar      1 RES1    0.0000
     35 C19B      -0.7423   -0.9112   -0.7903 C.ar      1 RES1    0.0000
     36 C10B      -2.3916   -2.7581   -0.9861 C.ar      1 RES1    0.0000
     37 C8B        3.5893    3.6227   -2.4630 C.ar      1 RES1    0.0000
     38 H9B        3.9182    4.2948   -0.5492 H         1 RES1    0.0000
     39 C14B       1.9736    1.8352   -2.6552 C.ar      1 RES1    0.0000
     40 C20B       0.1551   -0.0067   -1.4064 C.ar      1 RES1    0.0000
     41 C16B      -1.5003   -1.8454   -1.5962 C.ar      1 RES1    0.0000
     42 C1B       -3.0921   -3.6688   -1.7884 C.ar      1 RES1    0.0000
     43 C7B        2.8732    2.7335   -3.2366 C.ar      1 RES1    0.0000
     44 H8B        4.2151    4.2027   -2.9131 H         1 RES1    0.0000
     45 C13B       1.1909    0.9096   -3.4682 C.ar      1 RES1    0.0000
     46 C17B       0.3089   -0.0031   -2.8450 C.ar      1 RES1    0.0000
     47 C11B      -1.3437   -1.8572   -3.0062 C.ar      1 RES1    0.0000
     48 C2B       -2.9221   -3.6795   -3.1554 C.ar      1 RES1    0.0000
     49 H1B       -3.7035   -4.3102   -1.3730 H         1 RES1    0.0000
     50 H7B        3.0180    2.7182   -4.2502 H         1 RES1    0.0000
     51 C6B        1.2921    0.9091   -4.8603 C.ar      1 RES1    0.0000
     52 C12B      -0.4356   -0.9132   -3.6389 C.ar      1 RES1    0.0000
     53 C3B       -2.0669   -2.7914   -3.7583 C.ar      1 RES1    0.0000
     54 H2B       -3.3944   -4.3358   -3.7130 H         1 RES1    0.0000
     55 C5B        0.5615    0.0256   -5.6256 C.ar      1 RES1    0.0000
     56 H6B        1.8949    1.5152   -5.3128 H         1 RES1    0.0000
     57 C4B       -0.2824   -0.8769   -5.0274 C.ar      1 RES1    0.0000
     58 H3B       -1.9348   -2.8206   -4.7636 H         1 RES1    0.0000
     59 H5B        0.6666    0.0307   -6.6499 H         1 RES1    0.0000
     60 H4B       -0.8159   -1.5203   -5.5754 H         1 RES1    0.0000
@<TRIPOS>BOND
     1    1    2 ar
     2    2    3 ar
     3    3   11 ar
     4    4    5 ar
     5    5    6 ar
     6    6   13 ar
     7    7    8 ar
     8    8    9 ar
     9    9   30 1
    10   10    1 ar
    11   11   12 ar
    12   12    4 ar
    13   13   14 ar
    14   14    7 ar
    15   15   10 ar
    16   16   10 ar
    17   17   12 ar
    18   18   14 ar
    19   19   16 ar
    20   20   17 ar
    21   21   18 ar
    22   22    1 1
    23   23    2 1
    24   24    3 1
    25   25    4 1
    26   26    5 1
    27   27    6 1
    28   28    7 1
    29   29    8 1
    30   31    9 ar
    31   32   15 ar
    32   33   15 ar
    33   34   19 ar
    34   35   21 ar
    35   36   31 ar
    36   37   32 ar
    37   38   32 1
    38   39   33 ar
    39   40   34 ar
    40   41   35 ar
    41   42   36 ar
    42   43   37 ar
    43   44   37 1
    44   45   39 ar
    45   46   40 ar
    46   47   41 ar
    47   48   42 ar
    48   49   42 1
    49   50   43 1
    50   51   45 ar
    51   52   46 ar
    52   53   47 ar
    53   54   48 1
    54   55   51 ar
    55   56   51 1
    56   57   52 ar
    57   58   53 1
    58   59   55 1
    59   60   57 1
    60   11   16 ar
    61   13   17 ar
    62   18   31 ar
    63   19   20 ar
    64   20   21 ar
    65   33   34 ar
    66   35   40 ar
    67   36   41 ar
    68   39   43 ar
    69   45   46 ar
    70   47   52 ar
    71   48   53 ar
    72   55   57 ar
@<TRIPOS>SUBSTRUCTURE
     1 RES1 1

@<TRIPOS>CRYSIN
  18.4310    5.1190   12.9290  90.0000 112.5700  90.0000  14 2

