# MOL2 file generated by ConQuest
# Please check atom types

@<TRIPOS>MOLECULE
HEBGAX
    47    52     1
SMALL
NO_CHARGES
****
Generated from CSD

@<TRIPOS>ATOM
      1 C1         5.0286    3.0058    2.6962 C.2       1 RES1    0.0000
      2 C2         5.0937    3.5968    4.0566 C.ar      1 RES1    0.0000
      3 C3         6.1606    4.1538    4.7595 C.ar      1 RES1    0.0000
      4 C4         5.9244    4.7420    5.9958 C.ar      1 RES1    0.0000
      5 C5         4.6440    4.7664    6.5419 C.ar      1 RES1    0.0000
      6 C6         3.5691    4.2574    5.8360 C.ar      1 RES1    0.0000
      7 C7         3.7945    3.7043    4.5781 C.ar      1 RES1    0.0000
      8 C8         2.8540    3.2129    3.5729 C.ar      1 RES1    0.0000
      9 C9         1.4775    3.0580    3.6470 C.ar      1 RES1    0.0000
     10 C10        0.8062    2.5133    2.5621 C.ar      1 RES1    0.0000
     11 C11        1.5115    2.1280    1.4259 C.ar      1 RES1    0.0000
     12 C12        2.8901    2.2809    1.3432 C.ar      1 RES1    0.0000
     13 C13        3.5779    2.8374    2.4214 C.ar      1 RES1    0.0000
     14 C14        6.0583    2.6974    1.8677 C.2       1 RES1    0.0000
     15 C15        7.4950    2.5711    2.1669 C.ar      1 RES1    0.0000
     16 C16        8.1611    2.0326    3.3138 C.ar      1 RES1    0.0000
     17 C17        7.4900    1.4455    4.4161 C.ar      1 RES1    0.0000
     18 C18        8.1968    0.9241    5.4667 C.ar      1 RES1    0.0000
     19 C19        9.6042    0.9698    5.4843 C.ar      1 RES1    0.0000
     20 C20       10.2831    1.4963    4.4257 C.ar      1 RES1    0.0000
     21 C21        9.5887    2.0194    3.3003 C.ar      1 RES1    0.0000
     22 C22       10.2862    2.4850    2.1552 C.ar      1 RES1    0.0000
     23 C23        9.6240    2.9006    1.0289 C.ar      1 RES1    0.0000
     24 C24        8.2202    2.9191    1.0373 C.ar      1 RES1    0.0000
     25 C25        7.2865    3.2690   -0.0929 C.3       1 RES1    0.0000
     26 C26        5.9578    2.6059    0.3472 C.3       1 RES1    0.0000
     27 C27        5.8889    1.1666   -0.1691 C.3       1 RES1    0.0000
     28 H1         7.0798    4.1463    4.3832 H         1 RES1    0.0000
     29 H2         6.6668    5.1624    6.4843 H         1 RES1    0.0000
     30 H3         4.4909    5.1753    7.4385 H         1 RES1    0.0000
     31 H4         2.6544    4.3169    6.2057 H         1 RES1    0.0000
     32 H5         1.0108    3.3049    4.4814 H         1 RES1    0.0000
     33 H6        -0.1374    2.3982    2.5901 H         1 RES1    0.0000
     34 H7         1.0298    1.7511    0.6640 H         1 RES1    0.0000
     35 H8         3.3485    1.9843    0.5274 H         1 RES1    0.0000
     36 H9         6.5114    1.4152    4.4013 H         1 RES1    0.0000
     37 H10        7.7041    0.5113    6.1947 H         1 RES1    0.0000
     38 H11       10.0840    0.6266    6.2420 H         1 RES1    0.0000
     39 H12       11.2725    1.5129    4.4020 H         1 RES1    0.0000
     40 H13       11.2680    2.4597    2.1769 H         1 RES1    0.0000
     41 H14       10.1109    3.1562    0.2165 H         1 RES1    0.0000
     42 H15        7.1702    4.2394   -0.1446 H         1 RES1    0.0000
     43 H16        7.6030    2.9410   -0.9820 H         1 RES1    0.0000
     44 H17        5.1675    3.0992    0.0149 H         1 RES1    0.0000
     45 H18        6.7499    0.6934    0.0389 H         1 RES1    0.0000
     46 H19        5.1312    0.6544    0.2303 H         1 RES1    0.0000
     47 H20        5.7912    1.1758   -1.1631 H         1 RES1    0.0000
@<TRIPOS>BOND
     1    1    2 1
     2    2    3 ar
     3    3    4 ar
     4    4    5 ar
     5    5    6 ar
     6    6    7 ar
     7    7    2 ar
     8    8    7 1
     9    9    8 ar
    10   10    9 ar
    11   11   10 ar
    12   12   11 ar
    13   13    1 1
    14   14    1 2
    15   15   14 1
    16   16   15 ar
    17   17   16 ar
    18   18   17 ar
    19   19   18 ar
    20   20   19 ar
    21   21   16 ar
    22   22   21 ar
    23   23   22 ar
    24   24   15 ar
    25   25   24 1
    26   26   14 1
    27   27   26 1
    28   28    3 1
    29   29    4 1
    30   30    5 1
    31   31    6 1
    32   32    9 1
    33   33   10 1
    34   34   11 1
    35   35   12 1
    36   36   17 1
    37   37   18 1
    38   38   19 1
    39   39   20 1
    40   40   22 1
    41   41   23 1
    42   42   25 1
    43   43   25 1
    44   44   26 1
    45   45   27 1
    46   46   27 1
    47   47   27 1
    48    8   13 ar
    49   12   13 ar
    50   20   21 ar
    51   23   24 ar
    52   25   26 1
@<TRIPOS>SUBSTRUCTURE
     1 RES1 1

@<TRIPOS>CRYSIN
  32.4040   32.4040    8.9496  90.0000  90.0000 120.0000 233 1

