# MOL2 file generated by ConQuest
# Please check atom types

@<TRIPOS>MOLECULE
HEQFUE
    38    43     1
SMALL
NO_CHARGES
****
Generated from CSD

@<TRIPOS>ATOM
      1 C1        15.2813    7.5550    2.4442 C.ar      1 RES1    0.0000
      2 C2        14.7037    6.7929    1.4750 C.ar      1 RES1    0.0000
      3 C3        14.0206    7.5395    0.4722 C.ar      1 RES1    0.0000
      4 C4        13.3624    6.8782   -0.5973 C.ar      1 RES1    0.0000
      5 C5        12.7196    7.5659   -1.5842 C.ar      1 RES1    0.0000
      6 C6        12.6979    8.9785   -1.5607 C.ar      1 RES1    0.0000
      7 C7        13.3173    9.6615   -0.5484 C.ar      1 RES1    0.0000
      8 C8        13.9973    8.9894    0.4925 C.ar      1 RES1    0.0000
      9 C9        14.6603    9.7205    1.5169 C.ar      1 RES1    0.0000
     10 C10       15.2642    8.9444    2.4595 C.ar      1 RES1    0.0000
     11 C11       15.9706    8.2520    3.4883 C.2       1 RES1    0.0000
     12 C12       16.6956    8.2458    4.6225 C.2       1 RES1    0.0000
     13 C13       17.1412    7.0692    5.3702 C.ar      1 RES1    0.0000
     14 C14       16.9704    5.7047    5.1227 C.ar      1 RES1    0.0000
     15 C15       17.4641    4.7997    6.0557 C.ar      1 RES1    0.0000
     16 C16       18.1301    5.2313    7.2013 C.ar      1 RES1    0.0000
     17 C17       18.3040    6.5880    7.4584 C.ar      1 RES1    0.0000
     18 C18       17.8010    7.5007    6.5399 C.ar      1 RES1    0.0000
     19 C19       17.7917    8.9738    6.5545 C.ar      1 RES1    0.0000
     20 C20       18.2853    9.8819    7.4761 C.ar      1 RES1    0.0000
     21 C21       18.0944   11.2402    7.2381 C.ar      1 RES1    0.0000
     22 C22       17.4346   11.6826    6.0938 C.ar      1 RES1    0.0000
     23 C23       16.9424   10.7807    5.1588 C.ar      1 RES1    0.0000
     24 C24       17.1241    9.4178    5.3918 C.ar      1 RES1    0.0000
     25 H1        14.7488    5.8335    1.4725 H         1 RES1    0.0000
     26 H2        13.3779    5.9205   -0.6341 H         1 RES1    0.0000
     27 H3        12.2694    7.0987   -2.2913 H         1 RES1    0.0000
     28 H4        12.2523    9.4659   -2.2570 H         1 RES1    0.0000
     29 H5        13.2878   10.6224   -0.5414 H         1 RES1    0.0000
     30 H6        14.6820   10.6798    1.5442 H         1 RES1    0.0000
     31 H7        16.5170    5.4051    4.3312 H         1 RES1    0.0000
     32 H8        17.3507    3.8606    5.8964 H         1 RES1    0.0000
     33 H9        18.4670    4.5824    7.8246 H         1 RES1    0.0000
     34 H10       18.7573    6.8938    8.2473 H         1 RES1    0.0000
     35 H11       18.7433    9.5823    8.2644 H         1 RES1    0.0000
     36 H12       18.4251   11.8875    7.8646 H         1 RES1    0.0000
     37 H13       17.3212   12.6249    5.9471 H         1 RES1    0.0000
     38 H14       16.4782   11.0865    4.3763 H         1 RES1    0.0000
@<TRIPOS>BOND
     1    1    2 ar
     2    2    3 ar
     3    3    4 ar
     4    4    5 ar
     5    5    6 ar
     6    6    7 ar
     7    7    8 ar
     8    8    3 ar
     9    9    8 ar
    10   10    1 ar
    11   11    1 1
    12   12   11 2
    13   13   12 1
    14   14   13 ar
    15   15   14 ar
    16   16   15 ar
    17   17   16 ar
    18   18   13 ar
    19   19   18 1
    20   20   19 ar
    21   21   20 ar
    22   22   21 ar
    23   23   22 ar
    24   24   12 1
    25   25    2 1
    26   26    4 1
    27   27    5 1
    28   28    6 1
    29   29    7 1
    30   30    9 1
    31   31   14 1
    32   32   15 1
    33   33   16 1
    34   34   17 1
    35   35   20 1
    36   36   21 1
    37   37   22 1
    38   38   23 1
    39    9   10 ar
    40   10   11 1
    41   17   18 ar
    42   19   24 ar
    43   23   24 ar
@<TRIPOS>SUBSTRUCTURE
     1 RES1 1

@<TRIPOS>CRYSIN
  15.5250   15.5230    6.3470  90.0000  90.0000  90.0000  19 1

