# MOL2 file generated by ConQuest
# Please check atom types

@<TRIPOS>MOLECULE
HEXHEL03
    42    47     1
SMALL
NO_CHARGES
****
Generated from CSD

@<TRIPOS>ATOM
      1 C1         4.0876    6.1923   -0.7397 C.ar      1 RES1    0.0000
      2 C2         3.9579    6.6503   -2.0307 C.ar      1 RES1    0.0000
      3 C3         5.0702    6.6608   -2.8936 C.ar      1 RES1    0.0000
      4 C4         6.2647    6.1823   -2.4573 C.ar      1 RES1    0.0000
      5 C5         6.4208    5.6844   -1.1504 C.ar      1 RES1    0.0000
      6 C6         7.6578    5.0686   -0.7433 C.ar      1 RES1    0.0000
      7 C7         7.7266    4.3788    0.4135 C.ar      1 RES1    0.0000
      8 C8         6.6348    4.3400    1.3211 C.ar      1 RES1    0.0000
      9 C9         6.6465    3.4386    2.4306 C.ar      1 RES1    0.0000
     10 C10        5.5510    3.2848    3.1939 C.ar      1 RES1    0.0000
     11 C11        4.4356    4.1467    3.0585 C.ar      1 RES1    0.0000
     12 C12        3.2492    3.9511    3.8400 C.ar      1 RES1    0.0000
     13 C13        2.1999    4.7792    3.7257 C.ar      1 RES1    0.0000
     14 C14        2.3120    5.9841    2.9765 C.ar      1 RES1    0.0000
     15 C15        1.2406    6.9360    2.9503 C.ar      1 RES1    0.0000
     16 C16        1.3879    8.1461    2.3793 C.ar      1 RES1    0.0000
     17 C17        2.6718    8.5712    1.9274 C.ar      1 RES1    0.0000
     18 C18        2.8946    9.9182    1.5831 C.ar      1 RES1    0.0000
     19 C19        4.1520   10.3772    1.3033 C.ar      1 RES1    0.0000
     20 C20        5.2381    9.4952    1.3649 C.ar      1 RES1    0.0000
     21 C21        5.0446    8.1638    1.6515 C.ar      1 RES1    0.0000
     22 C22        3.7534    7.6511    1.9166 C.ar      1 RES1    0.0000
     23 C23        3.5160    6.2664    2.2938 C.ar      1 RES1    0.0000
     24 C24        4.4906    5.2118    2.1265 C.ar      1 RES1    0.0000
     25 C25        5.4967    5.1445    1.0874 C.ar      1 RES1    0.0000
     26 C26        5.3275    5.7174   -0.2460 C.ar      1 RES1    0.0000
     27 H1         3.3196    6.1158   -0.1832 H         1 RES1    0.0000
     28 H2         3.0704    6.9764   -2.3643 H         1 RES1    0.0000
     29 H3         4.9317    7.0677   -3.7934 H         1 RES1    0.0000
     30 H4         7.1008    6.1679   -3.0396 H         1 RES1    0.0000
     31 H5         8.4419    5.0856   -1.3959 H         1 RES1    0.0000
     32 H6         8.5884    3.8729    0.6927 H         1 RES1    0.0000
     33 H7         7.4599    2.9340    2.5301 H         1 RES1    0.0000
     34 H8         5.4813    2.5689    3.9086 H         1 RES1    0.0000
     35 H9         3.2390    3.1166    4.4512 H         1 RES1    0.0000
     36 H10        1.2677    4.5901    4.2227 H         1 RES1    0.0000
     37 H11        0.3884    6.6243    3.3485 H         1 RES1    0.0000
     38 H12        0.6009    8.8802    2.3294 H         1 RES1    0.0000
     39 H13        2.1324   10.5624    1.6018 H         1 RES1    0.0000
     40 H14        4.3162   11.3448    1.0871 H         1 RES1    0.0000
     41 H15        6.1702    9.8452    1.2424 H         1 RES1    0.0000
     42 H16        5.8404    7.5867    1.7013 H         1 RES1    0.0000
@<TRIPOS>BOND
     1    1    2 ar
     2    2    3 ar
     3    3    4 ar
     4    4    5 ar
     5    5    6 ar
     6    6    7 ar
     7    7    8 ar
     8    8    9 ar
     9    9   10 ar
    10   10   11 ar
    11   11   12 ar
    12   12   13 ar
    13   13   14 ar
    14   14   15 ar
    15   15   16 ar
    16   16   17 ar
    17   17   18 ar
    18   18   19 ar
    19   19   20 ar
    20   20   21 ar
    21   21   22 ar
    22   22   17 ar
    23   23   14 ar
    24   24   11 ar
    25   25    8 ar
    26   26    1 ar
    27   27    1 1
    28   28    2 1
    29   29    3 1
    30   30    4 1
    31   31    6 1
    32   32    7 1
    33   33    9 1
    34   34   10 1
    35   35   12 1
    36   36   13 1
    37   37   15 1
    38   38   16 1
    39   39   18 1
    40   40   19 1
    41   41   20 1
    42   42   21 1
    43    5   26 ar
    44   22   23 ar
    45   23   24 ar
    46   24   25 ar
    47   25   26 ar
@<TRIPOS>SUBSTRUCTURE
     1 RES1 1

@<TRIPOS>CRYSIN
   7.3280   13.0400   17.4490  90.0000  90.0000  90.0000  19 1

