# MOL2 file generated by ConQuest
# Please check atom types

@<TRIPOS>MOLECULE
HEXHEL05
    42    47     1
SMALL
NO_CHARGES
****
Generated from CSD

@<TRIPOS>ATOM
      1 C1         0.4911   10.3524    1.2938 C.ar      1 RES1    0.0000
      2 H1         0.6270   11.2424    1.0638 H         1 RES1    0.0000
      3 C2         1.5713    9.4659    1.3573 C.ar      1 RES1    0.0000
      4 H2         2.4335    9.7792    1.2068 H         1 RES1    0.0000
      5 C3        -0.7651    9.8983    1.5739 C.ar      1 RES1    0.0000
      6 H3        -1.4820   10.4901    1.5364 H         1 RES1    0.0000
      7 C4         1.3718    8.1381    1.6403 C.ar      1 RES1    0.0000
      8 H4         2.1018    7.5623    1.6550 H         1 RES1    0.0000
      9 C5        -0.9973    8.5537    1.9180 C.ar      1 RES1    0.0000
     10 C6         0.0831    7.6271    1.9087 C.ar      1 RES1    0.0000
     11 C7        -2.2823    8.1252    2.3702 C.ar      1 RES1    0.0000
     12 H5        -3.0160    8.6888    2.2793 H         1 RES1    0.0000
     13 C8        -2.4382    6.9140    2.9263 C.ar      1 RES1    0.0000
     14 H6        -3.2622    6.6856    3.2908 H         1 RES1    0.0000
     15 C9        -1.3669    5.9663    2.9715 C.ar      1 RES1    0.0000
     16 C10       -0.1641    6.2498    2.2915 C.ar      1 RES1    0.0000
     17 C11       -1.4820    4.7710    3.7270 C.ar      1 RES1    0.0000
     18 H7        -2.2888    4.5620    4.1401 H         1 RES1    0.0000
     19 C12       -0.4304    3.9373    3.8502 C.ar      1 RES1    0.0000
     20 H8        -0.4750    3.2282    4.4505 H         1 RES1    0.0000
     21 C13        0.7461    4.1265    3.0744 C.ar      1 RES1    0.0000
     22 C14        0.8037    5.1868    2.1365 C.ar      1 RES1    0.0000
     23 C15        1.8664    3.2646    3.2212 C.ar      1 RES1    0.0000
     24 H9         1.8431    2.5846    3.8541 H         1 RES1    0.0000
     25 C16        2.9655    3.4221    2.4509 C.ar      1 RES1    0.0000
     26 H10        3.7395    2.9459    2.6490 H         1 RES1    0.0000
     27 C17        2.9527    4.3056    1.3435 C.ar      1 RES1    0.0000
     28 C18        1.8105    5.1101    1.0978 C.ar      1 RES1    0.0000
     29 C19        4.0471    4.3368    0.4349 C.ar      1 RES1    0.0000
     30 H11        4.8320    3.8873    0.6522 H         1 RES1    0.0000
     31 C20        3.9731    5.0025   -0.7335 C.ar      1 RES1    0.0000
     32 H12        4.7246    5.0657   -1.2783 H         1 RES1    0.0000
     33 C21        2.7429    5.6137   -1.1424 C.ar      1 RES1    0.0000
     34 C22        1.6494    5.6683   -0.2372 C.ar      1 RES1    0.0000
     35 C23        2.5860    6.1011   -2.4591 C.ar      1 RES1    0.0000
     36 H13        3.3127    6.0887   -3.0397 H         1 RES1    0.0000
     37 C24        1.3943    6.5879   -2.8958 C.ar      1 RES1    0.0000
     38 H14        1.3140    6.9187   -3.7617 H         1 RES1    0.0000
     39 C25        0.2856    6.5893   -2.0331 C.ar      1 RES1    0.0000
     40 H15       -0.5386    6.8928   -2.3386 H         1 RES1    0.0000
     41 C26        0.4133    6.1441   -0.7398 C.ar      1 RES1    0.0000
     42 H16       -0.3296    6.1547   -0.1814 H         1 RES1    0.0000
@<TRIPOS>BOND
     1    1    2 1
     2    3    1 ar
     3    4    3 1
     4    5    1 ar
     5    6    5 1
     6    7    3 ar
     7    8    7 1
     8    9    5 ar
     9   10    7 ar
    10   11    9 ar
    11   12   11 1
    12   13   11 ar
    13   14   13 1
    14   15   13 ar
    15   16   10 ar
    16   17   15 ar
    17   18   17 1
    18   19   17 ar
    19   20   19 1
    20   21   19 ar
    21   22   16 ar
    22   23   21 ar
    23   24   23 1
    24   25   23 ar
    25   26   25 1
    26   27   25 ar
    27   28   22 ar
    28   29   27 ar
    29   30   29 1
    30   31   29 ar
    31   32   31 1
    32   33   31 ar
    33   34   28 ar
    34   35   33 ar
    35   36   35 1
    36   37   35 ar
    37   38   37 1
    38   39   37 ar
    39   40   39 1
    40   41   34 ar
    41   42   41 1
    42    9   10 ar
    43   15   16 ar
    44   21   22 ar
    45   27   28 ar
    46   33   34 ar
    47   39   41 ar
@<TRIPOS>SUBSTRUCTURE
     1 RES1 1

@<TRIPOS>CRYSIN
   7.3079   12.9491   17.4393  90.0000  90.0000  90.0000  19 1

