# MOL2 file generated by ConQuest
# Please check atom types

@<TRIPOS>MOLECULE
HEZKOO
    42    47     1
SMALL
NO_CHARGES
****
Generated from CSD

@<TRIPOS>ATOM
      1 C1         1.9420    4.9174   14.3229 C.ar      1 RES1    0.0000
      2 C2         3.3752    5.1115   14.5661 C.ar      1 RES1    0.0000
      3 C3         3.9716    4.7043   15.7789 C.ar      1 RES1    0.0000
      4 H1         3.4202    4.3710   16.4776 H         1 RES1    0.0000
      5 C4         5.3317    4.7779   15.9758 C.ar      1 RES1    0.0000
      6 H2         5.7109    4.4820   16.7946 H         1 RES1    0.0000
      7 C5         6.1526    5.2879   14.9700 C.ar      1 RES1    0.0000
      8 H3         7.0870    5.3783   15.1160 H         1 RES1    0.0000
      9 C6         5.6040    5.6591   13.7659 C.ar      1 RES1    0.0000
     10 H4         6.1704    5.9962   13.0824 H         1 RES1    0.0000
     11 C7         4.2196    5.5513   13.5222 C.ar      1 RES1    0.0000
     12 C8         3.6543    5.8115   12.1988 C.ar      1 RES1    0.0000
     13 C9         4.3816    6.4493   11.1757 C.ar      1 RES1    0.0000
     14 H5         5.2547    6.7741   11.3599 H         1 RES1    0.0000
     15 C10        3.8552    6.6122    9.9139 C.ar      1 RES1    0.0000
     16 H6         4.3655    7.0410    9.2367 H         1 RES1    0.0000
     17 C11        2.5732    6.1464    9.6326 C.ar      1 RES1    0.0000
     18 H7         2.2099    6.2459    8.7602 H         1 RES1    0.0000
     19 C12        1.8371    5.5430   10.6203 C.ar      1 RES1    0.0000
     20 H8         0.9588    5.2387   10.4229 H         1 RES1    0.0000
     21 C13        2.3481    5.3632   11.9177 C.ar      1 RES1    0.0000
     22 C14        1.5197    4.8031   12.9857 C.ar      1 RES1    0.0000
     23 C15        0.2886    4.1531   12.6983 C.ar      1 RES1    0.0000
     24 H9         0.0083    4.0600   11.7945 H         1 RES1    0.0000
     25 C16       -0.4917    3.6632   13.6969 C.ar      1 RES1    0.0000
     26 H10       -1.2455    3.1246   13.4852 H         1 RES1    0.0000
     27 C17       -0.1914    3.9482   15.0516 C.ar      1 RES1    0.0000
     28 C18       -1.0478    3.4718   16.0957 C.ar      1 RES1    0.0000
     29 H11       -1.7627    2.8846   15.8815 H         1 RES1    0.0000
     30 C19       -0.8570    3.8427   17.3814 C.ar      1 RES1    0.0000
     31 H12       -1.3776    3.4495   18.0706 H         1 RES1    0.0000
     32 C20        0.1306    4.8280   17.7036 C.ar      1 RES1    0.0000
     33 C21        0.1340    5.4492   18.9715 C.ar      1 RES1    0.0000
     34 H13       -0.4432    5.1220   19.6516 H         1 RES1    0.0000
     35 C22        0.9514    6.5133   19.2425 C.ar      1 RES1    0.0000
     36 H14        0.9448    6.9161   20.1021 H         1 RES1    0.0000
     37 C23        1.8000    7.0044   18.2389 C.ar      1 RES1    0.0000
     38 H15        2.3447    7.7634   18.4115 H         1 RES1    0.0000
     39 C24        1.8503    6.3978   17.0094 C.ar      1 RES1    0.0000
     40 H16        2.4402    6.7373   16.3481 H         1 RES1    0.0000
     41 C25        1.0392    5.2730   16.7053 C.ar      1 RES1    0.0000
     42 C26        0.9696    4.6925   15.3678 C.ar      1 RES1    0.0000
@<TRIPOS>BOND
     1    1    2 ar
     2    2    3 ar
     3    3    4 1
     4    5    3 ar
     5    6    5 1
     6    7    5 ar
     7    8    7 1
     8    9    7 ar
     9   10    9 1
    10   11    2 ar
    11   12   11 ar
    12   13   12 ar
    13   14   13 1
    14   15   13 ar
    15   16   15 1
    16   17   15 ar
    17   18   17 1
    18   19   17 ar
    19   20   19 1
    20   21   12 ar
    21   22    1 ar
    22   23   22 ar
    23   24   23 1
    24   25   23 ar
    25   26   25 1
    26   27   25 ar
    27   28   27 ar
    28   29   28 1
    29   30   28 ar
    30   31   30 1
    31   32   30 ar
    32   33   32 ar
    33   34   33 1
    34   35   33 ar
    35   36   35 1
    36   37   35 ar
    37   38   37 1
    38   39   37 ar
    39   40   39 1
    40   41   32 ar
    41   42    1 ar
    42    9   11 ar
    43   19   21 ar
    44   21   22 ar
    45   27   42 ar
    46   39   41 ar
    47   41   42 ar
@<TRIPOS>SUBSTRUCTURE
     1 RES1 1

@<TRIPOS>CRYSIN
  10.0094    8.1625   20.4952  90.0000 103.4070  90.0000 231 1

