# MOL2 file generated by ConQuest
# Please check atom types

@<TRIPOS>MOLECULE
HIGNIV01
    78    81     1
SMALL
NO_CHARGES
****
Generated from CSD

@<TRIPOS>ATOM
      1 C1        -1.6394    3.0026    3.3628 C.ar      1 RES1    0.0000
      2 C2        -0.7765    3.8049    2.6745 C.ar      1 RES1    0.0000
      3 C3         0.1914    4.6277    3.3526 C.ar      1 RES1    0.0000
      4 C4         0.3107    4.6479    4.6942 C.ar      1 RES1    0.0000
      5 C5        -0.5759    3.7997    5.4834 C.ar      1 RES1    0.0000
      6 C6        -1.5594    2.9794    4.8023 C.ar      1 RES1    0.0000
      7 C7        -2.4077    2.1956    5.5681 C.ar      1 RES1    0.0000
      8 C8        -2.3520    2.1565    6.9697 C.ar      1 RES1    0.0000
      9 C9        -0.5180    3.7632    6.8630 C.ar      1 RES1    0.0000
     10 C10       -2.6682    2.1327    2.6745 C.3       1 RES1    0.0000
     11 C11       -2.8415    2.3145    1.1706 C.3       1 RES1    0.0000
     12 C12       -3.9433    1.4165    0.6240 C.3       1 RES1    0.0000
     13 C13       -4.1958    1.6146   -0.8579 C.3       1 RES1    0.0000
     14 C14        1.3025    5.5315    5.4191 C.3       1 RES1    0.0000
     15 C15        2.1999    6.3893    4.5451 C.3       1 RES1    0.0000
     16 C16        3.1393    7.2598    5.3694 C.3       1 RES1    0.0000
     17 C17        4.0574    8.1018    4.4940 C.3       1 RES1    0.0000
     18 H1        -0.8012    3.8287    1.7099 H         1 RES1    0.0000
     19 H2         0.7693    5.1592    2.7768 H         1 RES1    0.0000
     20 H3        -3.0855    1.6576    5.1735 H         1 RES1    0.0000
     21 H4         0.1681    4.2674    7.3803 H         1 RES1    0.0000
     22 H5        -2.4204    1.1601    2.8498 H         1 RES1    0.0000
     23 H6        -3.5585    2.2725    3.0983 H         1 RES1    0.0000
     24 H7        -1.9757    2.1085    0.6284 H         1 RES1    0.0000
     25 H8        -3.1404    3.3250    0.9792 H         1 RES1    0.0000
     26 H9        -3.7501    0.5224    0.8330 H         1 RES1    0.0000
     27 H10       -4.7550    1.5766    1.1107 H         1 RES1    0.0000
     28 H11       -3.3400    1.3956   -1.5053 H         1 RES1    0.0000
     29 H12       -5.0097    1.0160   -1.1984 H         1 RES1    0.0000
     30 H13       -4.4792    2.5915   -0.9938 H         1 RES1    0.0000
     31 H14        1.8885    4.9366    5.9481 H         1 RES1    0.0000
     32 H15        0.7837    6.1379    6.0358 H         1 RES1    0.0000
     33 H16        2.7494    5.7565    4.0190 H         1 RES1    0.0000
     34 H17        1.6294    6.9460    3.9751 H         1 RES1    0.0000
     35 H18        3.6854    6.6438    5.9919 H         1 RES1    0.0000
     36 H19        2.5730    7.8179    5.9773 H         1 RES1    0.0000
     37 H20        4.6838    7.5579    3.9167 H         1 RES1    0.0000
     38 H21        3.5383    8.7336    3.9313 H         1 RES1    0.0000
     39 H22        4.5391    8.7654    4.9251 H         1 RES1    0.0000
     40 C1A       -2.0914    2.1143   11.2517 C.ar      1 RES1    0.0000
     41 C2A       -2.9543    1.3119   11.9401 C.ar      1 RES1    0.0000
     42 C3A       -3.9223    0.4892   11.2619 C.ar      1 RES1    0.0000
     43 C4A       -4.0415    0.4689    9.9203 C.ar      1 RES1    0.0000
     44 C5A       -3.1549    1.3171    9.1311 C.ar      1 RES1    0.0000
     45 C6A       -2.1714    2.1375    9.8122 C.ar      1 RES1    0.0000
     46 C7A       -1.3231    2.9212    9.0464 C.ar      1 RES1    0.0000
     47 C8A       -1.3788    2.9603    7.6449 C.ar      1 RES1    0.0000
     48 C9A       -3.2128    1.3536    7.7515 C.ar      1 RES1    0.0000
     49 C10A      -1.0626    2.9842   11.9401 C.3       1 RES1    0.0000
     50 C11A      -0.8893    2.8023   13.4439 C.3       1 RES1    0.0000
     51 C12A       0.2125    3.7004   13.9905 C.3       1 RES1    0.0000
     52 C13A       0.4650    3.5023   15.4724 C.3       1 RES1    0.0000
     53 C14A      -5.0333   -0.4146    9.1954 C.3       1 RES1    0.0000
     54 C15A      -5.9307   -1.2725   10.0694 C.3       1 RES1    0.0000
     55 C16A      -6.8701   -2.1430    9.2451 C.3       1 RES1    0.0000
     56 C17A      -7.7882   -2.9849   10.1205 C.3       1 RES1    0.0000
     57 H1A       -2.9296    1.2882   12.9046 H         1 RES1    0.0000
     58 H2A       -4.5001   -0.0424   11.8378 H         1 RES1    0.0000
     59 H3A       -0.6453    3.4593    9.4410 H         1 RES1    0.0000
     60 H4A       -3.8989    0.8495    7.2342 H         1 RES1    0.0000
     61 H5A       -1.3104    3.9567   11.7647 H         1 RES1    0.0000
     62 H6A       -0.1723    2.8443   11.5162 H         1 RES1    0.0000
     63 H7A       -1.7551    3.0084   13.9861 H         1 RES1    0.0000
     64 H8A       -0.5904    1.7918   13.6353 H         1 RES1    0.0000
     65 H9A        0.0192    4.5945   13.7815 H         1 RES1    0.0000
     66 H10A       1.0242    3.5402   13.5038 H         1 RES1    0.0000
     67 H11A      -0.3908    3.7213   16.1198 H         1 RES1    0.0000
     68 H12A       1.2789    4.1009   15.8129 H         1 RES1    0.0000
     69 H13A       0.7484    2.5253   15.6083 H         1 RES1    0.0000
     70 H14A      -5.6193    0.1803    8.6664 H         1 RES1    0.0000
     71 H15A      -4.5145   -1.0211    8.5787 H         1 RES1    0.0000
     72 H16A      -6.4802   -0.6397   10.5955 H         1 RES1    0.0000
     73 H17A      -5.3602   -1.8292   10.6394 H         1 RES1    0.0000
     74 H18A      -7.4162   -1.5270    8.6226 H         1 RES1    0.0000
     75 H19A      -6.3038   -2.7011    8.6372 H         1 RES1    0.0000
     76 H20A      -8.4146   -2.4410   10.6978 H         1 RES1    0.0000
     77 H21A      -7.2691   -3.6168   10.6832 H         1 RES1    0.0000
     78 H22A      -8.2699   -3.6486    9.6894 H         1 RES1    0.0000
@<TRIPOS>BOND
     1    1    2 ar
     2    2    3 ar
     3    3    4 ar
     4    4    5 ar
     5    5    6 ar
     6    6    1 ar
     7    7    6 ar
     8    8    7 ar
     9    9    5 ar
    10   10    1 1
    11   11   10 1
    12   12   11 1
    13   13   12 1
    14   14    4 1
    15   15   14 1
    16   16   15 1
    17   17   16 1
    18   18    2 1
    19   19    3 1
    20   20    7 1
    21   21    9 1
    22   22   10 1
    23   23   10 1
    24   24   11 1
    25   25   11 1
    26   26   12 1
    27   27   12 1
    28   28   13 1
    29   29   13 1
    30   30   13 1
    31   31   14 1
    32   32   14 1
    33   33   15 1
    34   34   15 1
    35   35   16 1
    36   36   16 1
    37   37   17 1
    38   38   17 1
    39   39   17 1
    40   40   41 ar
    41   41   42 ar
    42   42   43 ar
    43   43   44 ar
    44   44   45 ar
    45   45   40 ar
    46   46   45 ar
    47   47    8 ar
    48   48    8 ar
    49   49   40 1
    50   50   49 1
    51   51   50 1
    52   52   51 1
    53   53   43 1
    54   54   53 1
    55   55   54 1
    56   56   55 1
    57   57   41 1
    58   58   42 1
    59   59   46 1
    60   60   48 1
    61   61   49 1
    62   62   49 1
    63   63   50 1
    64   64   50 1
    65   65   51 1
    66   66   51 1
    67   67   52 1
    68   68   52 1
    69   69   52 1
    70   70   53 1
    71   71   53 1
    72   72   54 1
    73   73   54 1
    74   74   55 1
    75   75   55 1
    76   76   56 1
    77   77   56 1
    78   78   56 1
    79    9   47 ar
    80   44   48 ar
    81   46   47 ar
@<TRIPOS>SUBSTRUCTURE
     1 RES1 1

@<TRIPOS>CRYSIN
   5.3920    8.6600   15.1900 101.4100  98.8000  99.3500   2 1

