# MOL2 file generated by ConQuest
# Please check atom types

@<TRIPOS>MOLECULE
HIGNIV
    78    81     1
SMALL
NO_CHARGES
****
Generated from CSD

@<TRIPOS>ATOM
      1 C1        21.7478    2.3828   -2.0398 C.ar      1 RES1    0.0000
      2 C2        20.4717    1.9359   -1.8637 C.ar      1 RES1    0.0000
      3 C3        20.1368    0.9653   -0.8925 C.ar      1 RES1    0.0000
      4 C4        21.0519    0.4227   -0.0547 C.ar      1 RES1    0.0000
      5 C5        22.4310    0.8289   -0.1915 C.ar      1 RES1    0.0000
      6 C6        22.7836    1.8240   -1.1866 C.ar      1 RES1    0.0000
      7 C7        24.1083    2.2254   -1.2994 C.ar      1 RES1    0.0000
      8 C8        25.1150    1.6847   -0.4856 C.ar      1 RES1    0.0000
      9 C9        23.4426    0.2938    0.5984 C.ar      1 RES1    0.0000
     10 C10       22.0529    3.3927   -3.1153 C.3       1 RES1    0.0000
     11 C11       22.5762    2.7628   -4.4061 C.3       1 RES1    0.0000
     12 C12       22.7241    3.7647   -5.5415 C.3       1 RES1    0.0000
     13 C13       23.1787    3.1420   -6.8512 C.3       1 RES1    0.0000
     14 C14       20.6179   -0.5232    1.0242 C.3       1 RES1    0.0000
     15 C15       20.4606    0.1810    2.3800 C.3       1 RES1    0.0000
     16 C16       19.8684   -0.6791    3.4743 C.3       1 RES1    0.0000
     17 C17       19.6410    0.0744    4.7567 C.3       1 RES1    0.0000
     18 H1        19.7454    2.3268   -2.4963 H         1 RES1    0.0000
     19 H2        19.2137    0.6729   -0.8036 H         1 RES1    0.0000
     20 H3        24.3930    2.9761   -1.9663 H         1 RES1    0.0000
     21 H4        23.2118   -0.4170    1.3165 H         1 RES1    0.0000
     22 H5        22.7225    4.0661   -2.8212 H         1 RES1    0.0000
     23 H6        21.1193    3.9381   -3.3341 H         1 RES1    0.0000
     24 H7        23.4641    2.2984   -4.2232 H         1 RES1    0.0000
     25 H8        21.8609    2.0378   -4.7361 H         1 RES1    0.0000
     26 H9        23.3518    4.4689   -5.2491 H         1 RES1    0.0000
     27 H10       21.8364    4.2367   -5.6594 H         1 RES1    0.0000
     28 H11       24.0792    2.6823   -6.7195 H         1 RES1    0.0000
     29 H12       23.3178    3.8149   -7.5060 H         1 RES1    0.0000
     30 H13       22.5567    2.4122   -7.1641 H         1 RES1    0.0000
     31 H14       21.2004   -1.2748    1.1627 H         1 RES1    0.0000
     32 H15       19.6686   -0.8767    0.7694 H         1 RES1    0.0000
     33 H16       21.3653    0.4834    2.6844 H         1 RES1    0.0000
     34 H17       19.8831    0.9952    2.2740 H         1 RES1    0.0000
     35 H18       20.4653   -1.4644    3.6419 H         1 RES1    0.0000
     36 H19       19.0284   -1.0236    3.1289 H         1 RES1    0.0000
     37 H20       20.4577    0.4739    5.2149 H         1 RES1    0.0000
     38 H21       19.1126    0.9099    4.5823 H         1 RES1    0.0000
     39 H22       19.2429   -0.5023    5.4543 H         1 RES1    0.0000
     40 C1E       28.1572   -0.0133    2.0398 C.ar      1 RES1    0.0000
     41 C2E       29.4333    0.4336    1.8637 C.ar      1 RES1    0.0000
     42 C3E       29.7682    1.4042    0.8925 C.ar      1 RES1    0.0000
     43 C4E       28.8531    1.9468    0.0547 C.ar      1 RES1    0.0000
     44 C5E       27.4740    1.5406    0.1915 C.ar      1 RES1    0.0000
     45 C6E       27.1214    0.5455    1.1866 C.ar      1 RES1    0.0000
     46 C7E       25.7967    0.1441    1.2994 C.ar      1 RES1    0.0000
     47 C8E       24.7900    0.6848    0.4856 C.ar      1 RES1    0.0000
     48 C9E       26.4624    2.0757   -0.5984 C.ar      1 RES1    0.0000
     49 C10E      27.8521   -1.0232    3.1153 C.3       1 RES1    0.0000
     50 C11E      27.3288   -0.3933    4.4061 C.3       1 RES1    0.0000
     51 C12E      27.1809   -1.3952    5.5415 C.3       1 RES1    0.0000
     52 C13E      26.7263   -0.7725    6.8512 C.3       1 RES1    0.0000
     53 C14E      29.2871    2.8927   -1.0242 C.3       1 RES1    0.0000
     54 C15E      29.4444    2.1885   -2.3800 C.3       1 RES1    0.0000
     55 C16E      30.0366    3.0486   -3.4743 C.3       1 RES1    0.0000
     56 C17E      30.2640    2.2951   -4.7567 C.3       1 RES1    0.0000
     57 H1E       30.1596    0.0427    2.4963 H         1 RES1    0.0000
     58 H2E       30.6913    1.6966    0.8036 H         1 RES1    0.0000
     59 H3E       25.5120   -0.6066    1.9663 H         1 RES1    0.0000
     60 H4E       26.6932    2.7865   -1.3165 H         1 RES1    0.0000
     61 H5E       27.1825   -1.6966    2.8212 H         1 RES1    0.0000
     62 H6E       28.7857   -1.5686    3.3341 H         1 RES1    0.0000
     63 H7E       26.4409    0.0711    4.2232 H         1 RES1    0.0000
     64 H8E       28.0441    0.3317    4.7361 H         1 RES1    0.0000
     65 H9E       26.5532   -2.0994    5.2491 H         1 RES1    0.0000
     66 H10E      28.0686   -1.8672    5.6594 H         1 RES1    0.0000
     67 H11E      25.8258   -0.3128    6.7195 H         1 RES1    0.0000
     68 H12E      26.5872   -1.4454    7.5060 H         1 RES1    0.0000
     69 H13E      27.3483   -0.0427    7.1641 H         1 RES1    0.0000
     70 H14E      28.7046    3.6443   -1.1627 H         1 RES1    0.0000
     71 H15E      30.2364    3.2462   -0.7694 H         1 RES1    0.0000
     72 H16E      28.5397    1.8861   -2.6844 H         1 RES1    0.0000
     73 H17E      30.0219    1.3743   -2.2740 H         1 RES1    0.0000
     74 H18E      29.4397    3.8339   -3.6419 H         1 RES1    0.0000
     75 H19E      30.8766    3.3931   -3.1289 H         1 RES1    0.0000
     76 H20E      29.4473    1.8956   -5.2149 H         1 RES1    0.0000
     77 H21E      30.7924    1.4596   -4.5823 H         1 RES1    0.0000
     78 H22E      30.6621    2.8718   -5.4543 H         1 RES1    0.0000
@<TRIPOS>BOND
     1    1    2 ar
     2    2    3 ar
     3    3    4 ar
     4    4    5 ar
     5    5    6 ar
     6    6    1 ar
     7    7    6 ar
     8    8    7 ar
     9    9    5 ar
    10   10    1 1
    11   11   10 1
    12   12   11 1
    13   13   12 1
    14   14    4 1
    15   15   14 1
    16   16   15 1
    17   17   16 1
    18   18    2 1
    19   19    3 1
    20   20    7 1
    21   21    9 1
    22   22   10 1
    23   23   10 1
    24   24   11 1
    25   25   11 1
    26   26   12 1
    27   27   12 1
    28   28   13 1
    29   29   13 1
    30   30   13 1
    31   31   14 1
    32   32   14 1
    33   33   15 1
    34   34   15 1
    35   35   16 1
    36   36   16 1
    37   37   17 1
    38   38   17 1
    39   39   17 1
    40   40   41 ar
    41   41   42 ar
    42   42   43 ar
    43   43   44 ar
    44   44   45 ar
    45   45   40 ar
    46   46   45 ar
    47   47    8 ar
    48   48    8 ar
    49   49   40 1
    50   50   49 1
    51   51   50 1
    52   52   51 1
    53   53   43 1
    54   54   53 1
    55   55   54 1
    56   56   55 1
    57   57   41 1
    58   58   42 1
    59   59   46 1
    60   60   48 1
    61   61   49 1
    62   62   49 1
    63   63   50 1
    64   64   50 1
    65   65   51 1
    66   66   51 1
    67   67   52 1
    68   68   52 1
    69   69   52 1
    70   70   53 1
    71   71   53 1
    72   72   54 1
    73   73   54 1
    74   74   55 1
    75   75   55 1
    76   76   56 1
    77   77   56 1
    78   78   56 1
    79    9   47 ar
    80   44   48 ar
    81   46   47 ar
@<TRIPOS>SUBSTRUCTURE
     1 RES1 1

@<TRIPOS>CRYSIN
  33.2700    4.7390   21.5400  90.0000 127.4600  90.0000  15 1

