# MOL2 file generated by ConQuest
# Please check atom types

@<TRIPOS>MOLECULE
HPTHEL01
    32    38     1
SMALL
NO_CHARGES
****
Generated from CSD

@<TRIPOS>ATOM
      1 C1         3.4763    2.4158    0.6818 C.ar      1 RES1    0.0000
      2 C2         5.3147    2.2318    5.3737 C.ar      1 RES1    0.0000
      3 C3         4.5979    0.0460    4.5758 C.ar      1 RES1    0.0000
      4 C4         3.8025   -0.6212    3.8526 C.ar      1 RES1    0.0000
      5 C5         1.7185   -0.8283    2.3729 C.ar      1 RES1    0.0000
      6 C6         0.6784   -0.2876    1.8216 C.ar      1 RES1    0.0000
      7 C7        -0.9178    1.6106    1.5646 C.ar      1 RES1    0.0000
      8 C8        -1.2697    2.8760    1.8817 C.ar      1 RES1    0.0000
      9 C9        -0.4941    3.6353    2.7563 C.ar      1 RES1    0.0000
     10 C10        0.7321    3.1521    3.1977 C.ar      1 RES1    0.0000
     11 C11        1.2148    1.8636    2.7936 C.ar      1 RES1    0.0000
     12 C12        3.1000    1.8752   -0.5616 C.ar      1 RES1    0.0000
     13 C13        0.2990    1.0699    2.0102 C.ar      1 RES1    0.0000
     14 C14        2.4630    1.3460    3.1873 C.ar      1 RES1    0.0000
     15 C15        2.6968   -0.0920    3.1086 C.ar      1 RES1    0.0000
     16 C16        3.5515    2.1397    3.7116 C.ar      1 RES1    0.0000
     17 C17        4.4891    1.4495    4.5592 C.ar      1 RES1    0.0000
     18 C18        3.7771    3.5662    3.4940 C.ar      1 RES1    0.0000
     19 C19        4.5324    4.2910    4.5219 C.ar      1 RES1    0.0000
     20 C20        3.2935    4.2795    2.3687 C.ar      1 RES1    0.0000
     21 C21        3.1407    5.6945    2.5034 C.ar      1 RES1    0.0000
     22 C22        2.9611    3.6813    1.0859 C.ar      1 RES1    0.0000
     23 C23        2.2976    2.6229   -1.4279 C.ar      1 RES1    0.0000
     24 C24        2.1947    4.3945    0.0684 C.ar      1 RES1    0.0000
     25 C25        1.8688    3.8308   -1.1253 C.ar      1 RES1    0.0000
     26 C26        1.9053    5.7865    0.3938 C.ar      1 RES1    0.0000
     27 C27        2.4403    6.3617    1.4818 C.ar      1 RES1    0.0000
     28 C28        3.7565    6.3387    3.6205 C.ar      1 RES1    0.0000
     29 C29        4.4748    5.6715    4.4971 C.ar      1 RES1    0.0000
     30 C30        5.2690    3.5432    5.4193 C.ar      1 RES1    0.0000
     31 H1         4.2421    2.0707    1.4507 H         1 RES1    0.0000
     32 H2         1.4174    3.5317    4.0204 H         1 RES1    0.0000
@<TRIPOS>BOND
     1    1   12 ar
     2    2   17 ar
     3    3    4 ar
     4    4   15 ar
     5    5    6 ar
     6    6   13 ar
     7    7    8 ar
     8    8    9 ar
     9    9   10 ar
    10   10   11 ar
    11   11   13 ar
    12   12   23 ar
    13   13    7 ar
    14   14   11 ar
    15   15    5 ar
    16   16   14 ar
    17   17    3 ar
    18   18   16 ar
    19   19   18 ar
    20   20   18 ar
    21   21   20 ar
    22   22    1 ar
    23   23   25 ar
    24   24   22 ar
    25   25   24 ar
    26   26   24 ar
    27   27   21 ar
    28   28   21 ar
    29   29   19 ar
    30   30    2 ar
    31   31    1 1
    32   32   10 1
    33   14   15 ar
    34   16   17 ar
    35   19   30 ar
    36   20   22 ar
    37   26   27 ar
    38   28   29 ar
@<TRIPOS>SUBSTRUCTURE
     1 RES1 1

@<TRIPOS>CRYSIN
   8.1120   11.5040   21.5840  90.0000 106.2300  90.0000  14 1

