# MOL2 file generated by ConQuest
# Please check atom types

@<TRIPOS>MOLECULE
HURXID
    47    54     1
SMALL
NO_CHARGES
****
Generated from CSD

@<TRIPOS>ATOM
      1 C1         2.3644    9.8638    1.7731 C.3       1 RES1    0.0000
      2 H1         1.5539   10.1866    2.2169 H         1 RES1    0.0000
      3 H2         2.4505    8.8960    1.9131 H         1 RES1    0.0000
      4 H3         2.3093   10.0518    0.8125 H         1 RES1    0.0000
      5 C2         3.5662   10.5630    2.3507 C.ar      1 RES1    0.0000
      6 C3         4.7988    9.8958    2.5014 C.ar      1 RES1    0.0000
      7 H4         4.8902    8.9870    2.2369 H         1 RES1    0.0000
      8 C4         5.8742   10.5822    3.0402 C.ar      1 RES1    0.0000
      9 C5         7.2399   10.0272    3.3728 C.3       1 RES1    0.0000
     10 H5         7.7063    9.7148    2.5572 H         1 RES1    0.0000
     11 H6         7.1727    9.2768    4.0138 H         1 RES1    0.0000
     12 C6         7.9550   11.2076    3.9919 C.ar      1 RES1    0.0000
     13 C7         9.3247   11.2400    4.4214 C.ar      1 RES1    0.0000
     14 C8         9.7132   12.4409    4.9721 C.ar      1 RES1    0.0000
     15 C9        11.0776   12.8288    5.0855 C.ar      1 RES1    0.0000
     16 C10       11.1380   14.2417    5.0586 C.ar      1 RES1    0.0000
     17 C11       12.2403   14.9409    4.5876 C.ar      1 RES1    0.0000
     18 C12       13.4138   14.1197    4.3468 C.ar      1 RES1    0.0000
     19 H7        14.2418   14.5436    4.1576 H         1 RES1    0.0000
     20 C13       11.9674   16.2915    4.1542 C.ar      1 RES1    0.0000
     21 H8        12.6973   16.8653    3.9492 H         1 RES1    0.0000
     22 C14       10.4135   10.3106    4.1426 C.ar      1 RES1    0.0000
     23 H9        10.2105    9.4251    3.8639 H         1 RES1    0.0000
     24 C15       11.7362   10.6900    4.2761 C.ar      1 RES1    0.0000
     25 H10       12.4164   10.0451    4.1142 H         1 RES1    0.0000
     26 C16       12.1247   12.0258    4.6510 C.ar      1 RES1    0.0000
     27 C17       13.3613   12.7462    4.3838 C.ar      1 RES1    0.0000
     28 H11       14.1585   12.2522    4.2299 H         1 RES1    0.0000
     29 C18        7.1243   12.3476    3.9554 C.ar      1 RES1    0.0000
     30 C19        5.7989   11.9318    3.4370 C.ar      1 RES1    0.0000
     31 C20        3.4815   11.8843    2.7952 C.ar      1 RES1    0.0000
     32 H12        2.6494   12.3331    2.7018 H         1 RES1    0.0000
     33 C21        4.5568   12.5885    3.3740 C.ar      1 RES1    0.0000
     34 C22        4.2665   13.9455    3.9692 C.3       1 RES1    0.0000
     35 H13        4.9010   14.1292    4.6929 H         1 RES1    0.0000
     36 H14        3.3538   13.9573    4.3249 H         1 RES1    0.0000
     37 H15        4.3552   14.6312    3.2759 H         1 RES1    0.0000
     38 C23        7.6740   13.6655    4.2519 C.ar      1 RES1    0.0000
     39 C24        7.3151   14.9797    3.7693 C.ar      1 RES1    0.0000
     40 H16        6.4441   15.1097    3.4132 H         1 RES1    0.0000
     41 C25        8.1808   16.0593    3.8019 C.ar      1 RES1    0.0000
     42 H17        7.8810   16.9024    3.4789 H         1 RES1    0.0000
     43 C26        9.5237   15.9437    4.3103 C.ar      1 RES1    0.0000
     44 C27        9.8153   14.7357    4.9179 C.ar      1 RES1    0.0000
     45 C28        8.9174   13.6281    4.8814 C.ar      1 RES1    0.0000
     46 C29       10.6850   16.7761    4.0281 C.ar      1 RES1    0.0000
     47 H18       10.5533   17.6741    3.7504 H         1 RES1    0.0000
@<TRIPOS>BOND
     1    1    2 1
     2    3    1 1
     3    4    1 1
     4    5    1 1
     5    6    5 ar
     6    7    6 1
     7    8    6 ar
     8    9    8 1
     9   10    9 1
    10   11    9 1
    11   12    9 1
    12   13   12 ar
    13   14   13 ar
    14   15   14 ar
    15   16   15 ar
    16   17   16 ar
    17   18   17 ar
    18   19   18 1
    19   20   17 ar
    20   21   20 1
    21   22   13 ar
    22   23   22 1
    23   24   22 ar
    24   25   24 1
    25   26   15 ar
    26   27   18 ar
    27   28   27 1
    28   29   12 ar
    29   30    8 ar
    30   31    5 ar
    31   32   31 1
    32   33   30 ar
    33   34   33 1
    34   35   34 1
    35   36   34 1
    36   37   34 1
    37   38   29 ar
    38   39   38 ar
    39   40   39 1
    40   41   39 ar
    41   42   41 1
    42   43   41 ar
    43   44   16 ar
    44   45   14 ar
    45   46   20 ar
    46   47   46 1
    47   24   26 ar
    48   26   27 ar
    49   29   30 1
    50   31   33 ar
    51   38   45 ar
    52   43   44 ar
    53   43   46 ar
    54   44   45 ar
@<TRIPOS>SUBSTRUCTURE
     1 RES1 1

@<TRIPOS>CRYSIN
  13.4420   33.6970    3.8454  90.0000  90.0000  90.0000  33 1

