# MOL2 file generated by ConQuest
# Please check atom types

@<TRIPOS>MOLECULE
ICOGEM
    44    48     1
SMALL
NO_CHARGES
****
Generated from CSD

@<TRIPOS>ATOM
      1 C1         0.7467    4.3348    8.2357 C.3       1 RES1    0.0000
      2 H1         0.9362    4.9490    7.4834 H         1 RES1    0.0000
      3 H2         0.0447    4.7459    8.7996 H         1 RES1    0.0000
      4 C2         0.2277    2.9595    7.6717 C.3       1 RES1    0.0000
      5 H3        -0.4827    2.6147    8.2697 H         1 RES1    0.0000
      6 H4        -0.1759    3.1101    6.7801 H         1 RES1    0.0000
      7 C3         1.3134    1.9132    7.5472 C.ar      1 RES1    0.0000
      8 C4         2.3623    2.0282    6.5981 C.ar      1 RES1    0.0000
      9 C5         2.2347    2.9239    5.4873 C.ar      1 RES1    0.0000
     10 H5         1.4105    3.3766    5.3542 H         1 RES1    0.0000
     11 C6         3.2461    3.1418    4.6275 C.ar      1 RES1    0.0000
     12 H6         3.1448    3.7908    3.9401 H         1 RES1    0.0000
     13 C7         4.4689    2.4146    4.7307 C.ar      1 RES1    0.0000
     14 C8         5.4950    2.5731    3.7678 C.ar      1 RES1    0.0000
     15 H7         5.4019    3.2300    3.0878 H         1 RES1    0.0000
     16 C9         6.6175    1.7963    3.8050 C.ar      1 RES1    0.0000
     17 H8         7.3137    1.9321    3.1730 H         1 RES1    0.0000
     18 C10        6.7354    0.8035    4.7722 C.ar      1 RES1    0.0000
     19 H9         7.4964    0.2358    4.7743 H         1 RES1    0.0000
     20 C11        5.7592    0.6391    5.7245 C.ar      1 RES1    0.0000
     21 H10        5.8507   -0.0575    6.3640 H         1 RES1    0.0000
     22 C12        4.6289    1.4723    5.7799 C.ar      1 RES1    0.0000
     23 C13        3.6003    1.3614    6.8013 C.ar      1 RES1    0.0000
     24 C14        3.8065    0.6926    8.0441 C.ar      1 RES1    0.0000
     25 C15        2.6890    0.3834    8.7868 C.ar      1 RES1    0.0000
     26 H11        2.7662   -0.2437    9.4966 H         1 RES1    0.0000
     27 C16        1.4490    0.9631    8.5272 C.ar      1 RES1    0.0000
     28 H12        0.6908    0.6975    9.0326 H         1 RES1    0.0000
     29 C17        5.1596    0.6311    8.7507 C.3       1 RES1    0.0000
     30 H13        5.8673    0.9244    8.1250 H         1 RES1    0.0000
     31 H14        5.3497   -0.3052    9.0082 H         1 RES1    0.0000
     32 C18        5.1955    1.5407   10.0382 C.3       1 RES1    0.0000
     33 H15        4.9438    0.9977   10.8266 H         1 RES1    0.0000
     34 H16        6.1190    1.8696   10.1775 H         1 RES1    0.0000
     35 C19        4.2596    2.7207    9.9275 C.ar      1 RES1    0.0000
     36 C20        3.0912    2.7544   10.6904 C.ar      1 RES1    0.0000
     37 H17        3.0588    2.2848   11.5161 H         1 RES1    0.0000
     38 C21        1.9799    3.4599   10.2648 C.ar      1 RES1    0.0000
     39 H18        1.1979    3.4777   10.8032 H         1 RES1    0.0000
     40 C22        1.9999    4.1415    9.0539 C.ar      1 RES1    0.0000
     41 C23        3.2439    4.3357    8.4485 C.ar      1 RES1    0.0000
     42 H19        3.3291    4.9520    7.7313 H         1 RES1    0.0000
     43 C24        4.3571    3.6313    8.8901 C.ar      1 RES1    0.0000
     44 H20        5.1979    3.7769    8.4729 H         1 RES1    0.0000
@<TRIPOS>BOND
     1    1    2 1
     2    3    1 1
     3    4    1 1
     4    5    4 1
     5    6    4 1
     6    7    4 1
     7    8    7 ar
     8    9    8 ar
     9   10    9 1
    10   11    9 ar
    11   12   11 1
    12   13   11 ar
    13   14   13 ar
    14   15   14 1
    15   16   14 ar
    16   17   16 1
    17   18   16 ar
    18   19   18 1
    19   20   18 ar
    20   21   20 1
    21   22   13 ar
    22   23    8 ar
    23   24   23 ar
    24   25   24 ar
    25   26   25 1
    26   27    7 ar
    27   28   27 1
    28   29   24 1
    29   30   29 1
    30   31   29 1
    31   32   29 1
    32   33   32 1
    33   34   32 1
    34   35   32 1
    35   36   35 ar
    36   37   36 1
    37   38   36 ar
    38   39   38 1
    39   40    1 1
    40   41   40 ar
    41   42   41 1
    42   43   35 ar
    43   44   43 1
    44   20   22 ar
    45   22   23 ar
    46   25   27 ar
    47   38   40 ar
    48   41   43 ar
@<TRIPOS>SUBSTRUCTURE
     1 RES1 1

@<TRIPOS>CRYSIN
   7.8270    9.9080   11.0230  90.0000 105.1400  90.0000   4 1

