# MOL2 file generated by ConQuest
# Please check atom types

@<TRIPOS>MOLECULE
ICUQEF
    80    88     1
SMALL
NO_CHARGES
****
Generated from CSD

@<TRIPOS>ATOM
      1 C1         2.4892    5.7579    5.3186 C.ar      1 RES1    0.0000
      2 C2         2.3021    6.3727    4.0821 C.ar      1 RES1    0.0000
      3 H1         1.5625    6.9601    3.9790 H         1 RES1    0.0000
      4 C3         3.1383    6.1709    2.9909 C.ar      1 RES1    0.0000
      5 C4         4.2049    5.3139    3.1692 C.ar      1 RES1    0.0000
      6 H2         4.7842    5.1551    2.4334 H         1 RES1    0.0000
      7 C5         4.4742    4.6675    4.3793 C.ar      1 RES1    0.0000
      8 C6         5.6238    3.7789    4.5207 C.ar      1 RES1    0.0000
      9 C7         6.4829    3.4570    3.4902 C.ar      1 RES1    0.0000
     10 H3         6.3188    3.8240    2.6289 H         1 RES1    0.0000
     11 C8         7.5852    2.6121    3.6593 C.ar      1 RES1    0.0000
     12 C9         8.4774    2.2988    2.5985 C.ar      1 RES1    0.0000
     13 H4         8.3130    2.6525    1.7319 H         1 RES1    0.0000
     14 C10        9.5627    1.4996    2.7980 C.ar      1 RES1    0.0000
     15 H5        10.1468    1.3032    2.0754 H         1 RES1    0.0000
     16 C11        9.8195    0.9670    4.0728 C.ar      1 RES1    0.0000
     17 H6        10.5726    0.4018    4.1996 H         1 RES1    0.0000
     18 C12        9.0052    1.2489    5.1323 C.ar      1 RES1    0.0000
     19 H7         9.2072    0.8974    5.9910 H         1 RES1    0.0000
     20 C13        7.8525    2.0701    4.9540 C.ar      1 RES1    0.0000
     21 C14        6.9857    2.3924    6.0002 C.ar      1 RES1    0.0000
     22 H8         7.1551    2.0366    6.8642 H         1 RES1    0.0000
     23 C15        5.8901    3.2131    5.8166 C.ar      1 RES1    0.0000
     24 C16        4.9980    3.5099    6.8893 C.ar      1 RES1    0.0000
     25 H9         5.1971    3.1508    7.7453 H         1 RES1    0.0000
     26 C17        3.8820    4.2739    6.7638 C.ar      1 RES1    0.0000
     27 C18        3.6022    4.8963    5.4863 C.ar      1 RES1    0.0000
     28 C19        2.9292    6.9484    1.6870 C.3       1 RES1    0.0000
     29 C20        1.4391    7.1574    1.3990 C.3       1 RES1    0.0000
     30 H10        1.3339    7.6241    0.5430 H         1 RES1    0.0000
     31 H11        1.0407    7.6953    2.1150 H         1 RES1    0.0000
     32 H12        0.9898    6.2885    1.3541 H         1 RES1    0.0000
     33 C21        3.6101    8.3255    1.8389 C.3       1 RES1    0.0000
     34 H13        3.4722    8.8506    1.0225 H         1 RES1    0.0000
     35 H14        4.5703    8.1998    1.9882 H         1 RES1    0.0000
     36 H15        3.2196    8.8001    2.6025 H         1 RES1    0.0000
     37 C22        3.5386    6.2304    0.4782 C.3       1 RES1    0.0000
     38 H16        3.2987    6.7101   -0.3422 H         1 RES1    0.0000
     39 H17        3.1912    5.3145    0.4333 H         1 RES1    0.0000
     40 H18        4.5136    6.2057    0.5694 H         1 RES1    0.0000
     41 C1A        2.9616    4.5219    7.8920 C.ar      1 RES1    0.0000
     42 C2A        3.1486    3.9071    9.1285 C.ar      1 RES1    0.0000
     43 H1A        3.8882    3.3197    9.2315 H         1 RES1    0.0000
     44 C3A        2.3124    4.1089   10.2197 C.ar      1 RES1    0.0000
     45 C4A        1.2458    4.9659   10.0413 C.ar      1 RES1    0.0000
     46 H2A        0.6666    5.1247   10.7772 H         1 RES1    0.0000
     47 C5A        0.9766    5.6123    8.8313 C.ar      1 RES1    0.0000
     48 C6A       -0.1730    6.5009    8.6899 C.ar      1 RES1    0.0000
     49 C7A       -1.0321    6.8227    9.7203 C.ar      1 RES1    0.0000
     50 H3A       -0.8680    6.4558   10.5817 H         1 RES1    0.0000
     51 C8A       -2.1345    7.6677    9.5512 C.ar      1 RES1    0.0000
     52 C9A       -3.0267    7.9810   10.6120 C.ar      1 RES1    0.0000
     53 H4A       -2.8622    7.6273   11.4786 H         1 RES1    0.0000
     54 C10A      -4.1119    8.7802   10.4126 C.ar      1 RES1    0.0000
     55 H5A       -4.6961    8.9765   11.1352 H         1 RES1    0.0000
     56 C11A      -4.3688    9.3128    9.1377 C.ar      1 RES1    0.0000
     57 H6A       -5.1218    9.8780    9.0109 H         1 RES1    0.0000
     58 C12A      -3.5544    9.0308    8.0783 C.ar      1 RES1    0.0000
     59 H7A       -3.7564    9.3824    7.2196 H         1 RES1    0.0000
     60 C13A      -2.4017    8.2096    8.2566 C.ar      1 RES1    0.0000
     61 C14A      -1.5349    7.8874    7.2103 C.ar      1 RES1    0.0000
     62 H8A       -1.7043    8.2431    6.3463 H         1 RES1    0.0000
     63 C15A      -0.4393    7.0667    7.3939 C.ar      1 RES1    0.0000
     64 C16A       0.4528    6.7699    6.3212 C.ar      1 RES1    0.0000
     65 H9A        0.2537    7.1290    5.4652 H         1 RES1    0.0000
     66 C17A       1.5687    6.0059    6.4467 C.ar      1 RES1    0.0000
     67 C18A       1.8486    5.3835    7.7242 C.ar      1 RES1    0.0000
     68 C19A       2.5215    3.3314   11.5236 C.3       1 RES1    0.0000
     69 C20A       4.0117    3.1224   11.8116 C.3       1 RES1    0.0000
     70 H10A       4.1169    2.6557   12.6676 H         1 RES1    0.0000
     71 H11A       4.4101    2.5845   11.0955 H         1 RES1    0.0000
     72 H12A       4.4609    3.9913   11.8565 H         1 RES1    0.0000
     73 C21A       1.8407    1.9543   11.3716 C.3       1 RES1    0.0000
     74 H13A       1.9786    1.4292   12.1881 H         1 RES1    0.0000
     75 H14A       0.8804    2.0800   11.2224 H         1 RES1    0.0000
     76 H15A       2.2312    1.4797   10.6081 H         1 RES1    0.0000
     77 C22A       1.9122    4.0494   12.7323 C.3       1 RES1    0.0000
     78 H16A       2.1521    3.5697   13.5527 H         1 RES1    0.0000
     79 H17A       2.2595    4.9653   12.7772 H         1 RES1    0.0000
     80 H18A       0.9371    4.0741   12.6412 H         1 RES1    0.0000
@<TRIPOS>BOND
     1    1    2 ar
     2    2    3 1
     3    4    2 ar
     4    5    4 ar
     5    6    5 1
     6    7    5 ar
     7    8    7 ar
     8    9    8 ar
     9   10    9 1
    10   11    9 ar
    11   12   11 ar
    12   13   12 1
    13   14   12 ar
    14   15   14 1
    15   16   14 ar
    16   17   16 1
    17   18   16 ar
    18   19   18 1
    19   20   11 ar
    20   21   20 ar
    21   22   21 1
    22   23    8 ar
    23   24   23 ar
    24   25   24 1
    25   26   24 ar
    26   27    1 ar
    27   28    4 1
    28   29   28 1
    29   30   29 1
    30   31   29 1
    31   32   29 1
    32   33   28 1
    33   34   33 1
    34   35   33 1
    35   36   33 1
    36   37   28 1
    37   38   37 1
    38   39   37 1
    39   40   37 1
    40   41   26 ar
    41   42   41 ar
    42   43   42 1
    43   44   42 ar
    44   45   44 ar
    45   46   45 1
    46   47   45 ar
    47   48   47 ar
    48   49   48 ar
    49   50   49 1
    50   51   49 ar
    51   52   51 ar
    52   53   52 1
    53   54   52 ar
    54   55   54 1
    55   56   54 ar
    56   57   56 1
    57   58   56 ar
    58   59   58 1
    59   60   51 ar
    60   61   60 ar
    61   62   61 1
    62   63   48 ar
    63   64   63 ar
    64   65   64 1
    65   66    1 ar
    66   67   41 ar
    67   68   44 1
    68   69   68 1
    69   70   69 1
    70   71   69 1
    71   72   69 1
    72   73   68 1
    73   74   73 1
    74   75   73 1
    75   76   73 1
    76   77   68 1
    77   78   77 1
    78   79   77 1
    79   80   77 1
    80    7   27 ar
    81   18   20 ar
    82   21   23 ar
    83   26   27 ar
    84   47   67 ar
    85   58   60 ar
    86   61   63 ar
    87   64   66 ar
    88   66   67 ar
@<TRIPOS>SUBSTRUCTURE
     1 RES1 1

@<TRIPOS>CRYSIN
   6.0472    9.6750   13.4780  82.3670  79.5630  71.8790   2 1

