# MOL2 file generated by ConQuest
# Please check atom types

@<TRIPOS>MOLECULE
ICUQUV
    80    88     1
SMALL
NO_CHARGES
****
Generated from CSD

@<TRIPOS>ATOM
      1 C1        13.2581    4.8980   12.0816 C.ar      1 RES1    0.0000
      2 C2        12.7759    5.1452   13.3700 C.ar      1 RES1    0.0000
      3 H1        12.1787    4.5148   13.7572 H         1 RES1    0.0000
      4 C3        13.1121    6.2255   14.0884 C.ar      1 RES1    0.0000
      5 C4        14.1252    7.0874   13.5937 C.ar      1 RES1    0.0000
      6 H2        14.4393    7.7989   14.1400 H         1 RES1    0.0000
      7 C5        14.6715    6.9101   12.3096 C.ar      1 RES1    0.0000
      8 C6        15.6271    7.8413   11.7633 C.ar      1 RES1    0.0000
      9 C7        15.9854    9.0259   12.4516 C.ar      1 RES1    0.0000
     10 H3        15.6094    9.2050   13.3055 H         1 RES1    0.0000
     11 C8        16.8613    9.9040   11.9117 C.ar      1 RES1    0.0000
     12 H4        17.0405   10.7203   12.3634 H         1 RES1    0.0000
     13 C9        17.5160    9.6300   10.6814 C.ar      1 RES1    0.0000
     14 C10       18.4384   10.5674   10.1071 C.ar      1 RES1    0.0000
     15 H5        18.5910   11.4000   10.5373 H         1 RES1    0.0000
     16 C11       19.0998   10.2778    8.9456 C.ar      1 RES1    0.0000
     17 H6        19.7434   10.8776    8.5885 H         1 RES1    0.0000
     18 C12       18.7989    9.0621    8.2960 C.ar      1 RES1    0.0000
     19 H7        19.2457    8.8661    7.4808 H         1 RES1    0.0000
     20 C13       17.9341    8.1983    8.7606 C.ar      1 RES1    0.0000
     21 H8        17.7881    7.3870    8.2874 H         1 RES1    0.0000
     22 C14       17.2130    8.4430    9.9458 C.ar      1 RES1    0.0000
     23 C15       16.2000    7.5511   10.5050 C.ar      1 RES1    0.0000
     24 C16       15.7819    6.4183    9.7952 C.ar      1 RES1    0.0000
     25 H9        16.1889    6.2411    8.9563 H         1 RES1    0.0000
     26 C17       14.8219    5.5546   10.2383 C.ar      1 RES1    0.0000
     27 C18       14.2336    5.7730   11.5439 C.ar      1 RES1    0.0000
     28 C19       14.3641    4.4012    9.4468 C.ar      1 RES1    0.0000
     29 C20       14.8485    4.1678    8.1799 C.ar      1 RES1    0.0000
     30 H10       15.5165    4.7489    7.8400 H         1 RES1    0.0000
     31 C21       14.3928    3.0906    7.3432 C.ar      1 RES1    0.0000
     32 C22       13.5014    2.2281    7.9261 C.ar      1 RES1    0.0000
     33 H11       13.2095    1.4804    7.4185 H         1 RES1    0.0000
     34 C23       12.9993    2.3791    9.2102 C.ar      1 RES1    0.0000
     35 C24       11.9686    1.4798    9.7694 C.ar      1 RES1    0.0000
     36 C25       11.6257    0.2521    9.1005 C.ar      1 RES1    0.0000
     37 H12       12.0482    0.0406    8.2767 H         1 RES1    0.0000
     38 C26       10.7299   -0.5979    9.6059 C.ar      1 RES1    0.0000
     39 H13       10.5132   -1.3855    9.1220 H         1 RES1    0.0000
     40 C27       10.0885   -0.3476   10.8685 C.ar      1 RES1    0.0000
     41 C28        9.1175   -1.2289   11.3632 C.ar      1 RES1    0.0000
     42 H14        8.9140   -2.0246   10.8857 H         1 RES1    0.0000
     43 C29        8.4672   -0.9543   12.5182 C.ar      1 RES1    0.0000
     44 H15        7.8412   -1.5790   12.8645 H         1 RES1    0.0000
     45 C30        8.7060    0.2278   13.2065 C.ar      1 RES1    0.0000
     46 H16        8.2128    0.4375   13.9916 H         1 RES1    0.0000
     47 C31        9.7036    1.1246   12.7118 C.ar      1 RES1    0.0000
     48 H17        9.9115    1.9104   13.2044 H         1 RES1    0.0000
     49 C32       10.3760    0.8606   11.5159 C.ar      1 RES1    0.0000
     50 C33       11.3913    1.7637   10.9868 C.ar      1 RES1    0.0000
     51 C34       11.8425    2.8815   11.7246 C.ar      1 RES1    0.0000
     52 H18       11.4399    3.0513   12.5677 H         1 RES1    0.0000
     53 C35       12.8401    3.7484   11.2879 C.ar      1 RES1    0.0000
     54 C36       13.3842    3.5106    9.9909 C.ar      1 RES1    0.0000
     55 C37       12.7140    6.4221   15.6091 C.3       1 RES1    0.0000
     56 C38       11.5063    5.5546   15.8930 C.3       1 RES1    0.0000
     57 H19       10.8007    5.7530   15.2434 H         1 RES1    0.0000
     58 H20       11.7585    4.6103   15.8220 H         1 RES1    0.0000
     59 H21       11.1789    5.7374   16.7985 H         1 RES1    0.0000
     60 C39       13.7956    6.1787   16.5340 C.3       1 RES1    0.0000
     61 H22       14.5521    6.7610   16.3124 H         1 RES1    0.0000
     62 H23       13.4948    6.3697   17.4481 H         1 RES1    0.0000
     63 H24       14.0765    5.2419   16.4716 H         1 RES1    0.0000
     64 C40       12.2141    7.8888   15.7467 C.3       1 RES1    0.0000
     65 H25       11.4820    8.0417   15.1144 H         1 RES1    0.0000
     66 H26       11.8978    8.0385   16.6609 H         1 RES1    0.0000
     67 H27       12.9507    8.5016   15.5489 H         1 RES1    0.0000
     68 C41       14.9303    2.8977    5.9752 C.3       1 RES1    0.0000
     69 C42       15.2997    1.4417    5.6676 C.3       1 RES1    0.0000
     70 H28       15.6470    1.3799    4.7535 H         1 RES1    0.0000
     71 H29       15.9854    1.1390    6.3000 H         1 RES1    0.0000
     72 H30       14.5034    0.8781    5.7537 H         1 RES1    0.0000
     73 C43       13.7226    3.2766    4.9922 C.3       1 RES1    0.0000
     74 H31       14.0124    3.1699    4.0631 H         1 RES1    0.0000
     75 H32       12.9617    2.6849    5.1665 H         1 RES1    0.0000
     76 H33       13.4550    4.2065    5.1471 H         1 RES1    0.0000
     77 C44       16.1026    3.8071    5.5364 C.3       1 RES1    0.0000
     78 H34       16.3658    3.5818    4.6201 H         1 RES1    0.0000
     79 H35       15.8217    4.7445    5.5751 H         1 RES1    0.0000
     80 H36       16.8657    3.6679    6.1365 H         1 RES1    0.0000
@<TRIPOS>BOND
     1    1    2 ar
     2    2    3 1
     3    4    2 ar
     4    5    4 ar
     5    6    5 1
     6    7    5 ar
     7    8    7 ar
     8    9    8 ar
     9   10    9 1
    10   11    9 ar
    11   12   11 1
    12   13   11 ar
    13   14   13 ar
    14   15   14 1
    15   16   14 ar
    16   17   16 1
    17   18   16 ar
    18   19   18 1
    19   20   18 ar
    20   21   20 1
    21   22   13 ar
    22   23    8 ar
    23   24   23 ar
    24   25   24 1
    25   26   24 ar
    26   27    1 ar
    27   28   26 ar
    28   29   28 ar
    29   30   29 1
    30   31   29 ar
    31   32   31 ar
    32   33   32 1
    33   34   32 ar
    34   35   34 ar
    35   36   35 ar
    36   37   36 1
    37   38   36 ar
    38   39   38 1
    39   40   38 ar
    40   41   40 ar
    41   42   41 1
    42   43   41 ar
    43   44   43 1
    44   45   43 ar
    45   46   45 1
    46   47   45 ar
    47   48   47 1
    48   49   40 ar
    49   50   35 ar
    50   51   50 ar
    51   52   51 1
    52   53    1 ar
    53   54   28 ar
    54   55    4 1
    55   56   55 1
    56   57   56 1
    57   58   56 1
    58   59   56 1
    59   60   55 1
    60   61   60 1
    61   62   60 1
    62   63   60 1
    63   64   55 1
    64   65   64 1
    65   66   64 1
    66   67   64 1
    67   68   31 1
    68   69   68 1
    69   70   69 1
    70   71   69 1
    71   72   69 1
    72   73   68 1
    73   74   73 1
    74   75   73 1
    75   76   73 1
    76   77   68 1
    77   78   77 1
    78   79   77 1
    79   80   77 1
    80    7   27 ar
    81   20   22 ar
    82   22   23 ar
    83   26   27 ar
    84   34   54 ar
    85   47   49 ar
    86   49   50 ar
    87   51   53 ar
    88   53   54 ar
@<TRIPOS>SUBSTRUCTURE
     1 RES1 1

@<TRIPOS>CRYSIN
  22.1190    6.2411   21.5090  90.0000  90.0000  90.0000  29 1

