# MOL2 file generated by ConQuest
# Please check atom types

@<TRIPOS>MOLECULE
IDAKEE
    62    68     1
SMALL
NO_CHARGES
****
Generated from CSD

@<TRIPOS>ATOM
      1 C1         9.3389    9.0390    8.7457 C.ar      1 RES1    0.0000
      2 H1         9.2599    9.8626    8.2786 H         1 RES1    0.0000
      3 C2         9.0480    7.8234    8.0765 C.ar      1 RES1    0.0000
      4 C3         8.5823    7.8486    6.7282 C.ar      1 RES1    0.0000
      5 H2         8.5243    8.6813    6.2756 H         1 RES1    0.0000
      6 C4         8.2235    6.7233    6.0806 C.ar      1 RES1    0.0000
      7 H3         8.0094    6.7575    5.1558 H         1 RES1    0.0000
      8 C5         8.1629    5.4797    6.7773 C.ar      1 RES1    0.0000
      9 C6         7.5988    4.3419    6.1718 C.ar      1 RES1    0.0000
     10 H4         7.3943    4.3756    5.2447 H         1 RES1    0.0000
     11 C7         7.3313    3.1839    6.8629 C.ar      1 RES1    0.0000
     12 C8         7.6062    3.1892    8.2498 C.ar      1 RES1    0.0000
     13 H5         7.3709    2.4307    8.7721 H         1 RES1    0.0000
     14 C9         8.2013    4.2604    8.8586 C.ar      1 RES1    0.0000
     15 H6         8.3731    4.2220    9.7917 H         1 RES1    0.0000
     16 C10        8.5681    5.4243    8.1399 C.ar      1 RES1    0.0000
     17 C11        9.1923    6.5866    8.7538 C.ar      1 RES1    0.0000
     18 C12        6.7067    2.0090    6.2102 C.ar      1 RES1    0.0000
     19 C13        6.9598    1.6928    4.8774 C.ar      1 RES1    0.0000
     20 H7         7.5787    2.2200    4.3879 H         1 RES1    0.0000
     21 C14        6.3345    0.6329    4.2480 C.ar      1 RES1    0.0000
     22 H8         6.5354    0.4379    3.3407 H         1 RES1    0.0000
     23 C15        5.4062   -0.1559    4.9408 C.ar      1 RES1    0.0000
     24 C16        5.1869    0.1326    6.2836 C.ar      1 RES1    0.0000
     25 H9         4.5986   -0.4177    6.7879 H         1 RES1    0.0000
     26 C17        5.8033    1.1979    6.8957 C.ar      1 RES1    0.0000
     27 H10        5.6092    1.3856    7.8063 H         1 RES1    0.0000
     28 C18        4.6820   -1.2951    4.2582 C.3       1 RES1    0.0000
     29 H11        4.3003   -0.9789    3.4134 H         1 RES1    0.0000
     30 H12        3.9640   -1.6211    4.8401 H         1 RES1    0.0000
     31 H13        5.3141   -2.0231    4.0798 H         1 RES1    0.0000
     32 C1B        9.7291    9.0390   10.0436 C.ar      1 RES1    0.0000
     33 H1B        9.8081    9.8626   10.5107 H         1 RES1    0.0000
     34 C2B       10.0200    7.8234   10.7128 C.ar      1 RES1    0.0000
     35 C3B       10.4857    7.8486   12.0611 C.ar      1 RES1    0.0000
     36 H2B       10.5437    8.6813   12.5137 H         1 RES1    0.0000
     37 C4B       10.8445    6.7233   12.7087 C.ar      1 RES1    0.0000
     38 H3B       11.0586    6.7575   13.6335 H         1 RES1    0.0000
     39 C5B       10.9051    5.4797   12.0120 C.ar      1 RES1    0.0000
     40 C6B       11.4692    4.3419   12.6175 C.ar      1 RES1    0.0000
     41 H4B       11.6737    4.3756   13.5446 H         1 RES1    0.0000
     42 C7B       11.7367    3.1839   11.9264 C.ar      1 RES1    0.0000
     43 C8B       11.4618    3.1892   10.5395 C.ar      1 RES1    0.0000
     44 H5B       11.6971    2.4307   10.0172 H         1 RES1    0.0000
     45 C9B       10.8667    4.2604    9.9306 C.ar      1 RES1    0.0000
     46 H6B       10.6949    4.2220    8.9976 H         1 RES1    0.0000
     47 C10B      10.4999    5.4243   10.6494 C.ar      1 RES1    0.0000
     48 C11B       9.8757    6.5866   10.0355 C.ar      1 RES1    0.0000
     49 C12B      12.3613    2.0090   12.5791 C.ar      1 RES1    0.0000
     50 C13B      12.1083    1.6928   13.9118 C.ar      1 RES1    0.0000
     51 H7B       11.4893    2.2200   14.4014 H         1 RES1    0.0000
     52 C14B      12.7335    0.6329   14.5413 C.ar      1 RES1    0.0000
     53 H8B       12.5327    0.4379   15.4486 H         1 RES1    0.0000
     54 C15B      13.6618   -0.1559   13.8485 C.ar      1 RES1    0.0000
     55 C16B      13.8811    0.1326   12.5057 C.ar      1 RES1    0.0000
     56 H9B       14.4694   -0.4177   12.0013 H         1 RES1    0.0000
     57 C17B      13.2647    1.1979   11.8936 C.ar      1 RES1    0.0000
     58 H10B      13.4588    1.3856   10.9830 H         1 RES1    0.0000
     59 C18B      14.3860   -1.2951   14.5311 C.3       1 RES1    0.0000
     60 H11B      14.7677   -0.9789   15.3759 H         1 RES1    0.0000
     61 H12B      15.1040   -1.6211   13.9492 H         1 RES1    0.0000
     62 H13B      13.7539   -2.0231   14.7095 H         1 RES1    0.0000
@<TRIPOS>BOND
     1    1    2 1
     2    3    1 ar
     3    4    3 ar
     4    5    4 1
     5    6    4 ar
     6    7    6 1
     7    8    6 ar
     8    9    8 ar
     9   10    9 1
    10   11    9 ar
    11   12   11 ar
    12   13   12 1
    13   14   12 ar
    14   15   14 1
    15   16    8 ar
    16   17    3 ar
    17   18   11 1
    18   19   18 ar
    19   20   19 1
    20   21   19 ar
    21   22   21 1
    22   23   21 ar
    23   24   23 ar
    24   25   24 1
    25   26   18 ar
    26   27   26 1
    27   28   23 1
    28   29   28 1
    29   30   28 1
    30   31   28 1
    31   32    1 ar
    32   33   32 1
    33   34   32 ar
    34   35   34 ar
    35   36   35 1
    36   37   35 ar
    37   38   37 1
    38   39   37 ar
    39   40   39 ar
    40   41   40 1
    41   42   40 ar
    42   43   42 ar
    43   44   43 1
    44   45   43 ar
    45   46   45 1
    46   47   39 ar
    47   48   17 ar
    48   49   42 1
    49   50   49 ar
    50   51   50 1
    51   52   50 ar
    52   53   52 1
    53   54   52 ar
    54   55   54 ar
    55   56   55 1
    56   57   49 ar
    57   58   57 1
    58   59   54 1
    59   60   59 1
    60   61   59 1
    61   62   59 1
    62   14   16 ar
    63   16   17 ar
    64   24   26 ar
    65   34   48 ar
    66   45   47 ar
    67   47   48 ar
    68   55   57 ar
@<TRIPOS>SUBSTRUCTURE
     1 RES1 1

@<TRIPOS>CRYSIN
  20.7869    9.2002   12.5785  90.0000  95.2270  90.0000  15 1

