# MOL2 file generated by ConQuest
# Please check atom types

@<TRIPOS>MOLECULE
IDAQOW
    37    40     1
SMALL
NO_CHARGES
****
Generated from CSD

@<TRIPOS>ATOM
      1 C1         2.8637    5.7254    2.1289 C.3       1 RES1    0.0000
      2 H1         3.3304    5.4115    2.9310 H         1 RES1    0.0000
      3 H2         3.1826    6.6220    1.8946 H         1 RES1    0.0000
      4 H3         3.0419    5.1108    1.3858 H         1 RES1    0.0000
      5 C2         1.3835    5.7735    2.3963 C.ar      1 RES1    0.0000
      6 C3         0.6146    6.7450    1.6922 C.ar      1 RES1    0.0000
      7 H4         1.0543    7.3394    1.0954 H         1 RES1    0.0000
      8 C4        -0.7233    6.8433    1.8508 C.ar      1 RES1    0.0000
      9 H5        -1.2037    7.5050    1.3671 H         1 RES1    0.0000
     10 C5        -1.4236    5.9742    2.7293 C.ar      1 RES1    0.0000
     11 C6        -2.8053    6.0616    2.9036 C.ar      1 RES1    0.0000
     12 H6        -3.2908    6.7214    2.4231 H         1 RES1    0.0000
     13 C7        -3.4949    5.2042    3.7661 C.ar      1 RES1    0.0000
     14 C8        -4.9003    5.2958    3.9746 C.ar      1 RES1    0.0000
     15 H7        -5.3980    5.9620    3.5146 H         1 RES1    0.0000
     16 C9        -5.5426    4.4471    4.8193 C.ar      1 RES1    0.0000
     17 H8        -6.4814    4.5247    4.9437 H         1 RES1    0.0000
     18 C10       -4.8190    3.4452    5.5166 C.ar      1 RES1    0.0000
     19 H9        -5.2748    2.8529    6.1031 H         1 RES1    0.0000
     20 C11       -3.4729    3.3291    5.3474 C.ar      1 RES1    0.0000
     21 H10       -3.0015    2.6542    5.8206 H         1 RES1    0.0000
     22 C12       -2.7567    4.2010    4.4743 C.ar      1 RES1    0.0000
     23 C13       -1.3693    4.1125    4.3032 C.ar      1 RES1    0.0000
     24 H11       -0.8877    3.4403    4.7715 H         1 RES1    0.0000
     25 C14       -0.6726    4.9885    3.4590 C.ar      1 RES1    0.0000
     26 C15        0.7560    4.9183    3.2715 C.ar      1 RES1    0.0000
     27 C16        1.5491    3.9085    4.0410 C.ar      1 RES1    0.0000
     28 C17        2.0499    2.7747    3.4192 C.ar      1 RES1    0.0000
     29 H12        1.8665    2.6198    2.4999 H         1 RES1    0.0000
     30 C18        2.8224    1.8620    4.1367 C.ar      1 RES1    0.0000
     31 H13        3.1632    1.0894    3.7026 H         1 RES1    0.0000
     32 C19        3.0920    2.0717    5.4644 C.ar      1 RES1    0.0000
     33 H14        3.6215    1.4475    5.9466 H         1 RES1    0.0000
     34 C20        2.5929    3.1931    6.0992 C.ar      1 RES1    0.0000
     35 H15        2.7766    3.3410    7.0194 H         1 RES1    0.0000
     36 C21        1.8218    4.1041    5.3877 C.ar      1 RES1    0.0000
     37 H16        1.4766    4.8713    5.8285 H         1 RES1    0.0000
@<TRIPOS>BOND
     1    1    2 1
     2    3    1 1
     3    4    1 1
     4    5    1 1
     5    6    5 ar
     6    7    6 1
     7    8    6 ar
     8    9    8 1
     9   10    8 ar
    10   11   10 ar
    11   12   11 1
    12   13   11 ar
    13   14   13 ar
    14   15   14 1
    15   16   14 ar
    16   17   16 1
    17   18   16 ar
    18   19   18 1
    19   20   18 ar
    20   21   20 1
    21   22   13 ar
    22   23   22 ar
    23   24   23 1
    24   25   10 ar
    25   26    5 ar
    26   27   26 1
    27   28   27 ar
    28   29   28 1
    29   30   28 ar
    30   31   30 1
    31   32   30 ar
    32   33   32 1
    33   34   32 ar
    34   35   34 1
    35   36   27 ar
    36   37   36 1
    37   20   22 ar
    38   23   25 ar
    39   25   26 ar
    40   34   36 ar
@<TRIPOS>SUBSTRUCTURE
     1 RES1 1

@<TRIPOS>CRYSIN
  11.3684   12.7420   11.3304  90.0000 119.6980  90.0000  14 1

