# MOL2 file generated by ConQuest
# Please check atom types

@<TRIPOS>MOLECULE
IDEFED
    56    61     1
SMALL
NO_CHARGES
****
Generated from CSD

@<TRIPOS>ATOM
      1 C1         2.0148    7.6605    9.5764 C.ar      1 RES1    0.0000
      2 C2         1.9402    6.3786    8.9629 C.ar      1 RES1    0.0000
      3 C3         1.1637    5.3660    9.5796 C.ar      1 RES1    0.0000
      4 C4         0.4804    5.5900   10.7858 C.ar      1 RES1    0.0000
      5 C5         0.6110    6.8133   11.4358 C.ar      1 RES1    0.0000
      6 C6         1.3829    7.8196   10.8378 C.ar      1 RES1    0.0000
      7 C7         1.7187    9.1629   11.3609 C.ar      1 RES1    0.0000
      8 C8         1.3875    9.7346   12.6036 C.ar      1 RES1    0.0000
      9 C9         1.8003   11.0423   12.8792 C.ar      1 RES1    0.0000
     10 C10        2.5209   11.7437   11.9131 C.ar      1 RES1    0.0000
     11 C11        2.8870   11.1650   10.6839 C.ar      1 RES1    0.0000
     12 C12        2.5046    9.8359   10.3969 C.ar      1 RES1    0.0000
     13 C13        2.7658    8.9113    9.2302 C.2       1 RES1    0.0000
     14 C14        3.6379    9.1247    8.1736 C.2       1 RES1    0.0000
     15 C15        4.0577    8.2055    7.0640 C.ar      1 RES1    0.0000
     16 C16        3.3091    7.4178    6.1053 C.ar      1 RES1    0.0000
     17 C17        1.8889    7.4427    6.0085 C.ar      1 RES1    0.0000
     18 C18        1.2243    6.6906    5.0550 C.ar      1 RES1    0.0000
     19 C19        1.9635    5.8878    4.1482 C.ar      1 RES1    0.0000
     20 C20        3.3371    5.8923    4.1877 C.ar      1 RES1    0.0000
     21 C21        4.0577    6.6639    5.1392 C.ar      1 RES1    0.0000
     22 C22        5.4919    6.7182    5.1298 C.ar      1 RES1    0.0000
     23 C23        6.1798    7.5485    5.9940 C.ar      1 RES1    0.0000
     24 C24        5.4499    8.3273    6.9122 C.ar      1 RES1    0.0000
     25 C25        5.9723    9.4447    7.8096 C.3       1 RES1    0.0000
     26 C26        4.6782   10.2680    8.1435 C.3       1 RES1    0.0000
     27 C27        4.3795   11.4432    7.1410 C.3       1 RES1    0.0000
     28 C28        4.6966   11.1081    5.6747 C.3       1 RES1    0.0000
     29 C29        5.2470   12.6478    7.5590 C.3       1 RES1    0.0000
     30 C30        2.8917   11.8433    7.1732 C.3       1 RES1    0.0000
     31 H1         2.4055    6.2046    8.1525 H         1 RES1    0.0000
     32 H2         1.1042    4.5127    9.1659 H         1 RES1    0.0000
     33 H3        -0.0669    4.9088   11.1575 H         1 RES1    0.0000
     34 H4         0.1817    6.9642   12.2700 H         1 RES1    0.0000
     35 H5         0.8899    9.2400   13.2450 H         1 RES1    0.0000
     36 H6         1.5937   11.4475   13.7134 H         1 RES1    0.0000
     37 H7         2.7739   12.6424   12.0905 H         1 RES1    0.0000
     38 H8         3.3884   11.6658   10.0504 H         1 RES1    0.0000
     39 H9         1.3892    7.9832    6.6090 H         1 RES1    0.0000
     40 H10        0.2756    6.7124    5.0074 H         1 RES1    0.0000
     41 H11        1.5095    5.3476    3.5128 H         1 RES1    0.0000
     42 H12        3.8180    5.3635    3.5618 H         1 RES1    0.0000
     43 H13        5.9758    6.1745    4.5192 H         1 RES1    0.0000
     44 H14        7.1282    7.5935    5.9688 H         1 RES1    0.0000
     45 H15        6.6385   10.0025    7.3342 H         1 RES1    0.0000
     46 H16        6.3855    9.0786    8.6319 H         1 RES1    0.0000
     47 H17        4.7664   10.6465    9.0650 H         1 RES1    0.0000
     48 H18        4.1043   10.3906    5.3682 H         1 RES1    0.0000
     49 H19        5.6297   10.8142    5.6012 H         1 RES1    0.0000
     50 H20        4.5612   11.9042    5.1209 H         1 RES1    0.0000
     51 H21        6.1938   12.4176    7.4636 H         1 RES1    0.0000
     52 H22        5.0581   12.8761    8.4936 H         1 RES1    0.0000
     53 H23        5.0364   13.4147    6.9868 H         1 RES1    0.0000
     54 H24        2.7464   12.6061    6.5754 H         1 RES1    0.0000
     55 H25        2.6398   12.0907    8.0867 H         1 RES1    0.0000
     56 H26        2.3444   11.0865    6.8761 H         1 RES1    0.0000
@<TRIPOS>BOND
     1    1    2 ar
     2    2    3 ar
     3    3    4 ar
     4    4    5 ar
     5    5    6 ar
     6    6    1 ar
     7    7    6 1
     8    8    7 ar
     9    9    8 ar
    10   10    9 ar
    11   11   10 ar
    12   12    7 ar
    13   13    1 1
    14   14   13 2
    15   15   14 1
    16   16   15 ar
    17   17   16 ar
    18   18   17 ar
    19   19   18 ar
    20   20   19 ar
    21   21   16 ar
    22   22   21 ar
    23   23   22 ar
    24   24   15 ar
    25   25   24 1
    26   26   14 1
    27   27   26 1
    28   28   27 1
    29   29   27 1
    30   30   27 1
    31   31    2 1
    32   32    3 1
    33   33    4 1
    34   34    5 1
    35   35    8 1
    36   36    9 1
    37   37   10 1
    38   38   11 1
    39   39   17 1
    40   40   18 1
    41   41   19 1
    42   42   20 1
    43   43   22 1
    44   44   23 1
    45   45   25 1
    46   46   25 1
    47   47   26 1
    48   48   28 1
    49   49   28 1
    50   50   28 1
    51   51   29 1
    52   52   29 1
    53   53   29 1
    54   54   30 1
    55   55   30 1
    56   56   30 1
    57   11   12 ar
    58   12   13 1
    59   20   21 ar
    60   23   24 ar
    61   25   26 1
@<TRIPOS>SUBSTRUCTURE
     1 RES1 1

@<TRIPOS>CRYSIN
  23.3200    8.8900   10.3990  90.0000  90.0000  90.0000  29 1

