# MOL2 file generated by ConQuest
# Please check atom types

@<TRIPOS>MOLECULE
IGAPOY
    50    55     1
SMALL
NO_CHARGES
****
Generated from CSD

@<TRIPOS>ATOM
      1 C1         1.1725    5.6282    3.1026 C.3       1 RES1    0.0000
      2 H1         1.5349    6.0383    2.2896 H         1 RES1    0.0000
      3 H2         0.5589    6.2557    3.5391 H         1 RES1    0.0000
      4 H3         0.6894    4.8088    2.8680 H         1 RES1    0.0000
      5 C2         2.3014    5.2943    4.0428 C.ar      1 RES1    0.0000
      6 C3         2.0510    4.9597    5.3714 C.ar      1 RES1    0.0000
      7 H4         1.1533    4.8881    5.6740 H         1 RES1    0.0000
      8 C4         3.0806    4.7308    6.2515 C.ar      1 RES1    0.0000
      9 H5         2.8815    4.5480    7.1622 H         1 RES1    0.0000
     10 C5         4.4243    4.7605    5.8333 C.ar      1 RES1    0.0000
     11 C6         4.6956    4.9959    4.4724 C.ar      1 RES1    0.0000
     12 C7         3.6180    5.3121    3.6173 C.ar      1 RES1    0.0000
     13 H6         3.8037    5.5460    2.7155 H         1 RES1    0.0000
     14 C8         6.0904    4.9617    4.0099 C.ar      1 RES1    0.0000
     15 C9         6.4427    4.7224    2.6636 C.ar      1 RES1    0.0000
     16 C10        7.7843    4.8243    2.3009 C.ar      1 RES1    0.0000
     17 H7         8.0283    4.6660    1.3965 H         1 RES1    0.0000
     18 C11        8.7661    5.1455    3.2060 C.ar      1 RES1    0.0000
     19 H8         9.6594    5.2658    2.9060 H         1 RES1    0.0000
     20 C12        8.4678    5.2977    4.5632 C.ar      1 RES1    0.0000
     21 C13        7.1283    5.1358    4.9826 C.ar      1 RES1    0.0000
     22 C14        6.8430    5.0126    6.4053 C.ar      1 RES1    0.0000
     23 C15        7.8855    5.1254    7.3851 C.ar      1 RES1    0.0000
     24 C16        9.2016    5.6181    6.9328 C.ar      1 RES1    0.0000
     25 C17        9.4983    5.6309    5.5451 C.ar      1 RES1    0.0000
     26 C18       10.7824    6.0302    5.1333 C.ar      1 RES1    0.0000
     27 H9        10.9865    6.0395    4.2055 H         1 RES1    0.0000
     28 C19       11.7510    6.4074    6.0330 C.ar      1 RES1    0.0000
     29 H10       12.6187    6.6387    5.7227 H         1 RES1    0.0000
     30 C20       11.4685    6.4528    7.3990 C.ar      1 RES1    0.0000
     31 C21       10.1999    6.0901    7.8110 C.ar      1 RES1    0.0000
     32 H11        9.9891    6.1625    8.7344 H         1 RES1    0.0000
     33 C22       12.5326    6.8328    8.3949 C.3       1 RES1    0.0000
     34 H12       13.0685    6.0429    8.6175 H         1 RES1    0.0000
     35 H13       12.1100    7.1804    9.2079 H         1 RES1    0.0000
     36 H14       13.1117    7.5218    8.0074 H         1 RES1    0.0000
     37 C23        5.4908    4.2671    1.5805 C.3       1 RES1    0.0000
     38 H15        5.1303    5.0494    1.1127 H         1 RES1    0.0000
     39 H16        4.7554    3.7603    1.9838 H         1 RES1    0.0000
     40 H17        5.9696    3.6973    0.9432 H         1 RES1    0.0000
     41 C24        5.5225    4.6580    6.7930 C.ar      1 RES1    0.0000
     42 C25        5.3055    4.2773    8.1109 C.ar      1 RES1    0.0000
     43 H18        4.4361    4.0058    8.3811 H         1 RES1    0.0000
     44 C26        6.3239    4.2863    9.0290 C.ar      1 RES1    0.0000
     45 H19        6.1450    3.9804    9.9104 H         1 RES1    0.0000
     46 C27        7.6105    4.7256    8.7227 C.ar      1 RES1    0.0000
     47 C28        8.5834    4.6962    9.8830 C.3       1 RES1    0.0000
     48 H20        8.6979    5.6032   10.2363 H         1 RES1    0.0000
     49 H21        9.4486    4.3539    9.5753 H         1 RES1    0.0000
     50 H22        8.2333    4.1128   10.5882 H         1 RES1    0.0000
@<TRIPOS>BOND
     1    1    2 1
     2    3    1 1
     3    4    1 1
     4    5    1 1
     5    6    5 ar
     6    7    6 1
     7    8    6 ar
     8    9    8 1
     9   10    8 ar
    10   11   10 ar
    11   12    5 ar
    12   13   12 1
    13   14   11 ar
    14   15   14 ar
    15   16   15 ar
    16   17   16 1
    17   18   16 ar
    18   19   18 1
    19   20   18 ar
    20   21   14 ar
    21   22   21 ar
    22   23   22 ar
    23   24   23 ar
    24   25   20 ar
    25   26   25 ar
    26   27   26 1
    27   28   26 ar
    28   29   28 1
    29   30   28 ar
    30   31   24 ar
    31   32   31 1
    32   33   30 1
    33   34   33 1
    34   35   33 1
    35   36   33 1
    36   37   15 1
    37   38   37 1
    38   39   37 1
    39   40   37 1
    40   41   10 ar
    41   42   41 ar
    42   43   42 1
    43   44   42 ar
    44   45   44 1
    45   46   23 ar
    46   47   46 1
    47   48   47 1
    48   49   47 1
    49   50   47 1
    50   11   12 ar
    51   20   21 ar
    52   22   41 ar
    53   24   25 ar
    54   30   31 ar
    55   44   46 ar
@<TRIPOS>SUBSTRUCTURE
     1 RES1 1

@<TRIPOS>CRYSIN
  13.3756    7.5284   18.9851  90.0000 110.6450  90.0000  14 1

