# MOL2 file generated by ConQuest
# Please check atom types

@<TRIPOS>MOLECULE
IJOYAJ
    40    45     1
SMALL
NO_CHARGES
****
Generated from CSD

@<TRIPOS>ATOM
      1 C1         9.3925    4.8997    1.7380 C.ar      1 RES1    0.0000
      2 C2         9.9427    5.8689    0.8917 C.ar      1 RES1    0.0000
      3 H1        10.5911    5.6192    0.2735 H         1 RES1    0.0000
      4 C3         9.5476    7.1719    0.9562 C.ar      1 RES1    0.0000
      5 H2         9.9271    7.7971    0.3821 H         1 RES1    0.0000
      6 C4         8.5861    7.5738    1.8697 C.ar      1 RES1    0.0000
      7 H3         8.3272    8.4659    1.9138 H         1 RES1    0.0000
      8 C5         8.0221    6.6554    2.7023 C.ar      1 RES1    0.0000
      9 H4         7.3801    6.9274    3.3172 H         1 RES1    0.0000
     10 C6         8.3991    5.2985    2.6440 C.ar      1 RES1    0.0000
     11 C7         7.7875    4.3334    3.4977 C.ar      1 RES1    0.0000
     12 H5         7.1239    4.6135    4.0861 H         1 RES1    0.0000
     13 C8         8.1337    3.0283    3.4835 C.ar      1 RES1    0.0000
     14 C9         9.1833    2.5873    2.6012 C.ar      1 RES1    0.0000
     15 C10        9.8159    3.5094    1.7373 C.ar      1 RES1    0.0000
     16 C11       10.8777    3.0486    0.9399 C.ar      1 RES1    0.0000
     17 H6        11.3153    3.6464    0.3773 H         1 RES1    0.0000
     18 C12       11.2808    1.7506    0.9705 C.ar      1 RES1    0.0000
     19 H7        11.9905    1.4756    0.4364 H         1 RES1    0.0000
     20 C13       10.6433    0.8342    1.7903 C.ar      1 RES1    0.0000
     21 H8        10.9142   -0.0548    1.7970 H         1 RES1    0.0000
     22 C14        9.6144    1.2483    2.5883 C.ar      1 RES1    0.0000
     23 H9         9.1895    0.6292    3.1367 H         1 RES1    0.0000
     24 C15        7.4343    2.0581    4.3738 C.3       1 RES1    0.0000
     25 C16        7.0844    2.4509    5.7732 C.3       1 RES1    0.0000
     26 H10        6.2147    2.1890    6.1112 H         1 RES1    0.0000
     27 H11        7.4024    3.3104    6.0928 H         1 RES1    0.0000
     28 C17        8.1048    1.3650    5.5513 C.3       1 RES1    0.0000
     29 H12        9.0514    1.5263    5.7481 H         1 RES1    0.0000
     30 C18        7.5644   -0.0122    5.5526 C.2       1 RES1    0.0000
     31 H13        7.8302   -0.6759    6.1485 H         1 RES1    0.0000
     32 C19        6.6651   -0.1857    4.6120 C.2       1 RES1    0.0000
     33 H14        6.1791   -0.9702    4.4940 H         1 RES1    0.0000
     34 C20        6.5153    1.0118    3.7644 C.3       1 RES1    0.0000
     35 C21        5.1895    1.3924    3.1679 C.3       1 RES1    0.0000
     36 H15        4.4343    0.8048    3.3308 H         1 RES1    0.0000
     37 H16        4.9691    2.3362    3.1197 H         1 RES1    0.0000
     38 C22        6.2843    0.8900    2.2931 C.3       1 RES1    0.0000
     39 H17        6.7272    1.5284    1.7129 H         1 RES1    0.0000
     40 H18        6.1924   -0.0020    1.9239 H         1 RES1    0.0000
@<TRIPOS>BOND
     1    1    2 ar
     2    2    3 1
     3    4    2 ar
     4    5    4 1
     5    6    4 ar
     6    7    6 1
     7    8    6 ar
     8    9    8 1
     9   10    1 ar
    10   11   10 ar
    11   12   11 1
    12   13   11 ar
    13   14   13 ar
    14   15    1 ar
    15   16   15 ar
    16   17   16 1
    17   18   16 ar
    18   19   18 1
    19   20   18 ar
    20   21   20 1
    21   22   14 ar
    22   23   22 1
    23   24   13 1
    24   25   24 1
    25   26   25 1
    26   27   25 1
    27   28   24 1
    28   29   28 1
    29   30   28 1
    30   31   30 1
    31   32   30 2
    32   33   32 1
    33   34   24 1
    34   35   34 1
    35   36   35 1
    36   37   35 1
    37   38   34 1
    38   39   38 1
    39   40   38 1
    40    8   10 ar
    41   14   15 ar
    42   20   22 ar
    43   25   28 1
    44   32   34 1
    45   35   38 1
@<TRIPOS>SUBSTRUCTURE
     1 RES1 1

@<TRIPOS>CRYSIN
  22.2830   10.1485    6.7864  90.0000  90.0000  90.0000  33 1

