# MOL2 file generated by ConQuest
# Please check atom types

@<TRIPOS>MOLECULE
IJUBOG
    42    47     1
SMALL
NO_CHARGES
****
Generated from CSD

@<TRIPOS>ATOM
      1 C1         3.5578    3.5363    1.6236 C.3       1 RES1    0.0000
      2 C2         2.4812    4.5174    2.1873 C.3       1 RES1    0.0000
      3 H1         2.0649    5.0642    1.5029 H         1 RES1    0.0000
      4 H2         1.8083    4.0786    2.7316 H         1 RES1    0.0000
      5 C3         3.5331    5.2690    3.0097 C.3       1 RES1    0.0000
      6 H3         3.4925    6.2343    2.9190 H         1 RES1    0.0000
      7 H4         3.5727    5.0035    3.9406 H         1 RES1    0.0000
      8 C4         4.5558    4.6198    2.1458 C.2       1 RES1    0.0000
      9 C5         5.6676    4.8921    1.5561 C.2       1 RES1    0.0000
     10 H5         6.2007    5.5998    1.8362 H         1 RES1    0.0000
     11 C6         6.0677    4.0415    0.4162 C.2       1 RES1    0.0000
     12 H6         6.9604    4.0100    0.1578 H         1 RES1    0.0000
     13 C7         5.1698    3.3248   -0.2426 C.2       1 RES1    0.0000
     14 H7         5.4520    2.8049   -0.9605 H         1 RES1    0.0000
     15 C8         3.7229    3.3169    0.1223 C.3       1 RES1    0.0000
     16 H8         3.3277    2.4674   -0.1282 H         1 RES1    0.0000
     17 H9         3.2608    4.0190   -0.3609 H         1 RES1    0.0000
     18 C9         3.6359    2.2233    2.3908 C.ar      1 RES1    0.0000
     19 C10        4.7741    1.8981    3.1048 C.ar      1 RES1    0.0000
     20 H10        5.4891    2.4933    3.1044 H         1 RES1    0.0000
     21 C11        4.8872    0.7212    3.8195 C.ar      1 RES1    0.0000
     22 H11        5.6654    0.5491    4.2976 H         1 RES1    0.0000
     23 C12        3.8544   -0.2070    3.8353 C.ar      1 RES1    0.0000
     24 C13        2.6826    0.0731    3.0969 C.ar      1 RES1    0.0000
     25 C14        2.5662    1.2961    2.3604 C.ar      1 RES1    0.0000
     26 C15        1.3563    1.5223    1.6419 C.ar      1 RES1    0.0000
     27 H12        1.2536    2.3200    1.1735 H         1 RES1    0.0000
     28 C16        0.3568    0.6199    1.6179 C.ar      1 RES1    0.0000
     29 H13       -0.4132    0.8067    1.1301 H         1 RES1    0.0000
     30 C17        0.4537   -0.6199    2.3267 C.ar      1 RES1    0.0000
     31 C18        1.6238   -0.8652    3.0744 C.ar      1 RES1    0.0000
     32 C19        1.7514   -2.0961    3.8087 C.ar      1 RES1    0.0000
     33 C20        0.7058   -3.0007    3.7552 C.ar      1 RES1    0.0000
     34 H14        0.7721   -3.7996    4.2266 H         1 RES1    0.0000
     35 C21       -0.4130   -2.7498    3.0314 C.ar      1 RES1    0.0000
     36 H15       -1.0959   -3.3810    3.0176 H         1 RES1    0.0000
     37 C22       -0.5630   -1.5741    2.3115 C.ar      1 RES1    0.0000
     38 H16       -1.3388   -1.4222    1.8224 H         1 RES1    0.0000
     39 C23        3.9361   -1.4323    4.5641 C.ar      1 RES1    0.0000
     40 H17        4.7030   -1.6112    5.0589 H         1 RES1    0.0000
     41 C24        2.9460   -2.3290    4.5560 C.ar      1 RES1    0.0000
     42 H18        3.0350   -3.1155    5.0451 H         1 RES1    0.0000
@<TRIPOS>BOND
     1    1    2 1
     2    2    3 1
     3    4    2 1
     4    5    2 1
     5    6    5 1
     6    7    5 1
     7    8    1 1
     8    9    8 2
     9   10    9 1
    10   11    9 1
    11   12   11 1
    12   13   11 2
    13   14   13 1
    14   15    1 1
    15   16   15 1
    16   17   15 1
    17   18    1 1
    18   19   18 ar
    19   20   19 1
    20   21   19 ar
    21   22   21 1
    22   23   21 ar
    23   24   23 ar
    24   25   18 ar
    25   26   25 ar
    26   27   26 1
    27   28   26 ar
    28   29   28 1
    29   30   28 ar
    30   31   24 ar
    31   32   31 ar
    32   33   32 ar
    33   34   33 1
    34   35   33 ar
    35   36   35 1
    36   37   30 ar
    37   38   37 1
    38   39   23 ar
    39   40   39 1
    40   41   32 ar
    41   42   41 1
    42    5    8 1
    43   13   15 1
    44   24   25 ar
    45   30   31 ar
    46   35   37 ar
    47   39   41 ar
@<TRIPOS>SUBSTRUCTURE
     1 RES1 1

@<TRIPOS>CRYSIN
   7.4014   11.2513   19.7260  90.0000  91.0210  90.0000 231 1

