# MOL2 file generated by ConQuest
# Please check atom types

@<TRIPOS>MOLECULE
IQABAE
    64    72     1
SMALL
NO_CHARGES
****
Generated from CSD

@<TRIPOS>ATOM
      1 C1         8.8973    2.8403    4.9624 C.ar      1 RES1    0.0000
      2 H1         9.3799    3.3367    4.3284 H         1 RES1    0.0000
      3 C2         9.5712    2.0483    5.8452 C.ar      1 RES1    0.0000
      4 H2        10.5114    2.0180    5.8252 H         1 RES1    0.0000
      5 C3         8.8768    1.2872    6.7731 C.ar      1 RES1    0.0000
      6 H3         9.3464    0.7395    7.3760 H         1 RES1    0.0000
      7 C4         7.5147    1.3333    6.8126 C.ar      1 RES1    0.0000
      8 H4         7.0529    0.8101    7.4427 H         1 RES1    0.0000
      9 C5         6.7874    2.1521    5.9250 C.ar      1 RES1    0.0000
     10 C6         7.4823    2.9284    4.9859 C.ar      1 RES1    0.0000
     11 C7         6.7652    3.8009    4.0878 C.ar      1 RES1    0.0000
     12 C8         5.3744    3.9613    4.2117 C.ar      1 RES1    0.0000
     13 C9         4.6442    3.1185    5.1235 C.ar      1 RES1    0.0000
     14 C10        5.3440    2.2069    5.9497 C.ar      1 RES1    0.0000
     15 C11        4.6210    1.3274    6.7696 C.ar      1 RES1    0.0000
     16 H5         5.0886    0.7174    7.3093 H         1 RES1    0.0000
     17 C12        3.2722    1.3327    6.8049 C.ar      1 RES1    0.0000
     18 H6         2.8219    0.7320    7.3696 H         1 RES1    0.0000
     19 C13        2.5254    2.2274    6.0060 C.ar      1 RES1    0.0000
     20 C14        3.1953    3.1325    5.1584 C.ar      1 RES1    0.0000
     21 C15        2.4450    3.9922    4.2756 C.ar      1 RES1    0.0000
     22 C16        1.0506    3.8365    4.1974 C.ar      1 RES1    0.0000
     23 C17        0.3625    2.9552    5.1041 C.ar      1 RES1    0.0000
     24 C18        1.0839    2.1813    6.0247 C.ar      1 RES1    0.0000
     25 C19        0.3674    1.3683    6.9333 C.ar      1 RES1    0.0000
     26 H7         0.8417    0.8550    7.5603 H         1 RES1    0.0000
     27 C20       -1.0016    1.3094    6.9222 C.ar      1 RES1    0.0000
     28 H8        -1.4554    0.7687    7.5413 H         1 RES1    0.0000
     29 C21       -1.7175    2.0588    5.9831 C.ar      1 RES1    0.0000
     30 H9        -2.6567    2.0209    5.9682 H         1 RES1    0.0000
     31 C22       -1.0524    2.8427    5.0901 C.ar      1 RES1    0.0000
     32 H10       -1.5437    3.3215    4.4459 H         1 RES1    0.0000
     33 C23        7.6253    4.4261    3.0368 C.ar      1 RES1    0.0000
     34 C24        8.4361    5.5203    3.3356 C.ar      1 RES1    0.0000
     35 H11        8.4137    5.8947    4.1981 H         1 RES1    0.0000
     36 C25        9.2694    6.0580    2.3793 C.ar      1 RES1    0.0000
     37 H12        9.8048    6.8022    2.5900 H         1 RES1    0.0000
     38 C26        9.3203    5.5098    1.1193 C.ar      1 RES1    0.0000
     39 H13        9.8852    5.8790    0.4672 H         1 RES1    0.0000
     40 C27        8.5354    4.4139    0.8196 C.ar      1 RES1    0.0000
     41 H14        8.5693    4.0354   -0.0413 H         1 RES1    0.0000
     42 C28        7.7082    3.8767    1.7707 C.ar      1 RES1    0.0000
     43 H15        7.1890    3.1226    1.5604 H         1 RES1    0.0000
     44 C29        4.6125    4.9901    3.4668 C.ar      1 RES1    0.0000
     45 C30        5.2316    6.0434    2.7874 C.ar      1 RES1    0.0000
     46 H16        6.1725    6.0697    2.7807 H         1 RES1    0.0000
     47 C31        4.5633    7.0355    2.1334 C.ar      1 RES1    0.0000
     48 H17        5.0353    7.6846    1.6430 H         1 RES1    0.0000
     49 C32        3.2209    7.0722    2.1995 C.ar      1 RES1    0.0000
     50 H18        2.7391    7.7523    1.7638 H         1 RES1    0.0000
     51 C33        2.5675    6.1070    2.9078 C.ar      1 RES1    0.0000
     52 H19        1.6335    6.1811    2.9968 H         1 RES1    0.0000
     53 C34        3.2005    5.0117    3.5119 C.ar      1 RES1    0.0000
     54 C35        0.1743    4.4856    3.1646 C.ar      1 RES1    0.0000
     55 C36        0.1136    3.9671    1.9039 C.ar      1 RES1    0.0000
     56 H20        0.6541    3.2328    1.6748 H         1 RES1    0.0000
     57 C37       -0.7388    4.5159    0.9581 C.ar      1 RES1    0.0000
     58 H21       -0.7627    4.1543    0.0922 H         1 RES1    0.0000
     59 C38       -1.5421    5.5728    1.2696 C.ar      1 RES1    0.0000
     60 H22       -2.1220    5.9379    0.6261 H         1 RES1    0.0000
     61 C39       -1.4958    6.0948    2.5309 C.ar      1 RES1    0.0000
     62 H23       -2.0410    6.8267    2.7585 H         1 RES1    0.0000
     63 C40       -0.6487    5.5471    3.4738 C.ar      1 RES1    0.0000
     64 H24       -0.6336    5.9046    4.3442 H         1 RES1    0.0000
@<TRIPOS>BOND
     1    1    2 1
     2    3    1 ar
     3    4    3 1
     4    5    3 ar
     5    6    5 1
     6    7    5 ar
     7    8    7 1
     8    9    7 ar
     9   10    1 ar
    10   11   10 ar
    11   12   11 ar
    12   13   12 ar
    13   14    9 ar
    14   15   14 ar
    15   16   15 1
    16   17   15 ar
    17   18   17 1
    18   19   17 ar
    19   20   13 ar
    20   21   20 ar
    21   22   21 ar
    22   23   22 ar
    23   24   19 ar
    24   25   24 ar
    25   26   25 1
    26   27   25 ar
    27   28   27 1
    28   29   27 ar
    29   30   29 1
    30   31   23 ar
    31   32   31 1
    32   33   11 1
    33   34   33 ar
    34   35   34 1
    35   36   34 ar
    36   37   36 1
    37   38   36 ar
    38   39   38 1
    39   40   38 ar
    40   41   40 1
    41   42   33 ar
    42   43   42 1
    43   44   12 ar
    44   45   44 ar
    45   46   45 1
    46   47   45 ar
    47   48   47 1
    48   49   47 ar
    49   50   49 1
    50   51   49 ar
    51   52   51 1
    52   53   21 ar
    53   54   22 1
    54   55   54 ar
    55   56   55 1
    56   57   55 ar
    57   58   57 1
    58   59   57 ar
    59   60   59 1
    60   61   59 ar
    61   62   61 1
    62   63   54 ar
    63   64   63 1
    64    9   10 ar
    65   13   14 ar
    66   19   20 ar
    67   23   24 ar
    68   29   31 ar
    69   40   42 ar
    70   44   53 ar
    71   51   53 ar
    72   61   63 ar
@<TRIPOS>SUBSTRUCTURE
     1 RES1 1

@<TRIPOS>CRYSIN
  27.0830    5.8323   34.2300  90.0000 111.8120  90.0000  15 1

