# MOL2 file generated by ConQuest
# Please check atom types

@<TRIPOS>MOLECULE
IQITEI
    92    98     1
SMALL
NO_CHARGES
****
Generated from CSD

@<TRIPOS>ATOM
      1 C1         7.8907    4.1051    3.5765 C.ar      1 RES1    0.0000
      2 C2         7.4529    2.8889    4.0037 C.ar      1 RES1    0.0000
      3 H1         6.7608    2.4622    3.5300 H         1 RES1    0.0000
      4 C3         8.0092    2.2396    5.1480 C.ar      1 RES1    0.0000
      5 H2         7.6563    1.4104    5.4171 H         1 RES1    0.0000
      6 C4         9.0316    2.7800    5.8603 C.ar      1 RES1    0.0000
      7 C5         9.5991    4.0386    5.4060 C.ar      1 RES1    0.0000
      8 C6         9.0006    4.7157    4.2753 C.ar      1 RES1    0.0000
      9 C7         9.5458    5.9161    3.8497 C.ar      1 RES1    0.0000
     10 H3         9.1380    6.3637    3.1308 H         1 RES1    0.0000
     11 C8        10.6852    6.4984    4.4454 C.ar      1 RES1    0.0000
     12 C9        11.2261    7.7105    3.9612 C.ar      1 RES1    0.0000
     13 C10       11.3191    5.7944    5.5390 C.ar      1 RES1    0.0000
     14 C11       10.7306    4.5864    5.9898 C.ar      1 RES1    0.0000
     15 H4        11.1241    4.1375    6.7161 H         1 RES1    0.0000
     16 C12       10.5105    8.4320    2.8664 C.ar      1 RES1    0.0000
     17 C13       10.9591    8.3819    1.5648 C.ar      1 RES1    0.0000
     18 H5        11.7505    7.9147    1.3643 H         1 RES1    0.0000
     19 C14       10.2556    9.0119    0.5429 C.ar      1 RES1    0.0000
     20 H6        10.5729    8.9687   -0.3408 H         1 RES1    0.0000
     21 C15        9.1001    9.6982    0.8244 C.ar      1 RES1    0.0000
     22 H7         8.6289   10.1327    0.1357 H         1 RES1    0.0000
     23 C16        8.6344    9.7451    2.1124 C.ar      1 RES1    0.0000
     24 H8         7.8372   10.2053    2.3034 H         1 RES1    0.0000
     25 C17        9.3293    9.1182    3.1393 C.ar      1 RES1    0.0000
     26 H9         9.0024    9.1579    4.0196 H         1 RES1    0.0000
     27 C18        7.2450    4.7973    2.4021 C.3       1 RES1    0.0000
     28 H10        6.7133    4.1415    1.9032 H         1 RES1    0.0000
     29 H11        7.9483    5.1260    1.8047 H         1 RES1    0.0000
     30 C19        6.3452    5.9649    2.7880 C.3       1 RES1    0.0000
     31 H12        5.5520    5.6211    3.2505 H         1 RES1    0.0000
     32 H13        6.8265    6.5509    3.4103 H         1 RES1    0.0000
     33 C20        5.9087    6.7711    1.5825 C.3       1 RES1    0.0000
     34 H14        6.6908    7.1001    1.1130 H         1 RES1    0.0000
     35 H15        5.3662    7.5200    1.8731 H         1 RES1    0.0000
     36 H16        5.3887    6.2072    0.9873 H         1 RES1    0.0000
     37 C21        9.5880    2.1183    7.0984 C.3       1 RES1    0.0000
     38 H17        9.5565    2.7663    7.8331 H         1 RES1    0.0000
     39 H18       10.5312    1.9077    6.9353 H         1 RES1    0.0000
     40 C22        8.8899    0.8481    7.5555 C.3       1 RES1    0.0000
     41 H19        8.9294    0.1828    6.8378 H         1 RES1    0.0000
     42 H20        7.9464    1.0451    7.7326 H         1 RES1    0.0000
     43 C23        9.5242    0.2679    8.8094 C.3       1 RES1    0.0000
     44 H21       10.4653    0.0975    8.6465 H         1 RES1    0.0000
     45 H22        9.0801   -0.5624    9.0416 H         1 RES1    0.0000
     46 H23        9.4318    0.8996    9.5403 H         1 RES1    0.0000
     47 C1A       15.8459    9.9175    6.4775 C.ar      1 RES1    0.0000
     48 C2A       16.2837   11.1337    6.0503 C.ar      1 RES1    0.0000
     49 H1A       16.9758   11.5604    6.5241 H         1 RES1    0.0000
     50 C3A       15.7274   11.7831    4.9061 C.ar      1 RES1    0.0000
     51 H2A       16.0803   12.6122    4.6369 H         1 RES1    0.0000
     52 C4A       14.7050   11.2426    4.1938 C.ar      1 RES1    0.0000
     53 C5A       14.1375    9.9841    4.6481 C.ar      1 RES1    0.0000
     54 C6A       14.7360    9.3069    5.7788 C.ar      1 RES1    0.0000
     55 C7A       14.1908    8.1065    6.2044 C.ar      1 RES1    0.0000
     56 H3A       14.5986    7.6589    6.9232 H         1 RES1    0.0000
     57 C8A       13.0514    7.5242    5.6087 C.ar      1 RES1    0.0000
     58 C9A       12.5105    6.3121    6.0929 C.ar      1 RES1    0.0000
     59 C10A      12.4175    8.2282    4.5151 C.ar      1 RES1    0.0000
     60 C11A      13.0060    9.4363    4.0643 C.ar      1 RES1    0.0000
     61 H4A       12.6125    9.8851    3.3380 H         1 RES1    0.0000
     62 C12A      13.2261    5.5907    7.1877 C.ar      1 RES1    0.0000
     63 C13A      12.7775    5.6408    8.4893 C.ar      1 RES1    0.0000
     64 H5A       11.9861    6.1079    8.6897 H         1 RES1    0.0000
     65 C14A      13.4810    5.0108    9.5112 C.ar      1 RES1    0.0000
     66 H6A       13.1637    5.0539   10.3949 H         1 RES1    0.0000
     67 C15A      14.6365    4.3244    9.2296 C.ar      1 RES1    0.0000
     68 H7A       15.1077    3.8900    9.9183 H         1 RES1    0.0000
     69 C16A      15.1022    4.2776    7.9417 C.ar      1 RES1    0.0000
     70 H8A       15.8994    3.8173    7.7507 H         1 RES1    0.0000
     71 C17A      14.4073    4.9044    6.9148 C.ar      1 RES1    0.0000
     72 H9A       14.7342    4.8647    6.0345 H         1 RES1    0.0000
     73 C18A      16.4915    9.2253    7.6520 C.3       1 RES1    0.0000
     74 H10A      17.0233    9.8811    8.1508 H         1 RES1    0.0000
     75 H11A      15.7883    8.8966    8.2494 H         1 RES1    0.0000
     76 C19A      17.3914    8.0578    7.2661 C.3       1 RES1    0.0000
     77 H12A      18.1846    8.4015    6.8036 H         1 RES1    0.0000
     78 H13A      16.9101    7.4717    6.6437 H         1 RES1    0.0000
     79 C20A      17.8279    7.2515    8.4716 C.3       1 RES1    0.0000
     80 H14A      17.0458    6.9225    8.9411 H         1 RES1    0.0000
     81 H15A      18.3704    6.5027    8.1810 H         1 RES1    0.0000
     82 H16A      18.3479    7.8154    9.0668 H         1 RES1    0.0000
     83 C21A      14.1486   11.9044    2.9557 C.3       1 RES1    0.0000
     84 H17A      14.1801   11.2563    2.2209 H         1 RES1    0.0000
     85 H18A      13.2053   12.1150    3.1188 H         1 RES1    0.0000
     86 C22A      14.8467   13.1746    2.4985 C.3       1 RES1    0.0000
     87 H19A      14.8071   13.8399    3.2163 H         1 RES1    0.0000
     88 H20A      15.7902   12.9776    2.3215 H         1 RES1    0.0000
     89 C23A      14.2124   13.7548    1.2447 C.3       1 RES1    0.0000
     90 H21A      13.2713   13.9251    1.4076 H         1 RES1    0.0000
     91 H22A      14.6565   14.5850    1.0124 H         1 RES1    0.0000
     92 H23A      14.3048   13.1230    0.5138 H         1 RES1    0.0000
@<TRIPOS>BOND
     1    1    2 ar
     2    2    3 1
     3    4    2 ar
     4    5    4 1
     5    6    4 ar
     6    7    6 ar
     7    8    1 ar
     8    9    8 ar
     9   10    9 1
    10   11    9 ar
    11   12   11 ar
    12   13   11 ar
    13   14    7 ar
    14   15   14 1
    15   16   12 1
    16   17   16 ar
    17   18   17 1
    18   19   17 ar
    19   20   19 1
    20   21   19 ar
    21   22   21 1
    22   23   21 ar
    23   24   23 1
    24   25   16 ar
    25   26   25 1
    26   27    1 1
    27   28   27 1
    28   29   27 1
    29   30   27 1
    30   31   30 1
    31   32   30 1
    32   33   30 1
    33   34   33 1
    34   35   33 1
    35   36   33 1
    36   37    6 1
    37   38   37 1
    38   39   37 1
    39   40   37 1
    40   41   40 1
    41   42   40 1
    42   43   40 1
    43   44   43 1
    44   45   43 1
    45   46   43 1
    46   47   48 ar
    47   48   49 1
    48   50   48 ar
    49   51   50 1
    50   52   50 ar
    51   53   52 ar
    52   54   47 ar
    53   55   54 ar
    54   56   55 1
    55   57   55 ar
    56   58   13 ar
    57   59   12 ar
    58   60   53 ar
    59   61   60 1
    60   62   58 1
    61   63   62 ar
    62   64   63 1
    63   65   63 ar
    64   66   65 1
    65   67   65 ar
    66   68   67 1
    67   69   67 ar
    68   70   69 1
    69   71   62 ar
    70   72   71 1
    71   73   47 1
    72   74   73 1
    73   75   73 1
    74   76   73 1
    75   77   76 1
    76   78   76 1
    77   79   76 1
    78   80   79 1
    79   81   79 1
    80   82   79 1
    81   83   52 1
    82   84   83 1
    83   85   83 1
    84   86   83 1
    85   87   86 1
    86   88   86 1
    87   89   86 1
    88   90   89 1
    89   91   89 1
    90   92   89 1
    91    7    8 ar
    92   13   14 ar
    93   23   25 ar
    94   53   54 ar
    95   57   58 ar
    96   57   59 ar
    97   59   60 ar
    98   69   71 ar
@<TRIPOS>SUBSTRUCTURE
     1 RES1 1

@<TRIPOS>CRYSIN
   8.7670   10.2080   11.4000  64.0000  73.1200  73.5400   2 1

