# MOL2 file generated by ConQuest
# Please check atom types

@<TRIPOS>MOLECULE
IZUCIP
    52    58     1
SMALL
NO_CHARGES
****
Generated from CSD

@<TRIPOS>ATOM
      1 C1         9.0892    0.7641    1.9380 C.ar      1 RES1    0.0000
      2 C2         8.5957    1.7524    1.0198 C.ar      1 RES1    0.0000
      3 C3        11.3736    1.7051    1.6603 C.ar      1 RES1    0.0000
      4 C4        10.4829    0.7086    2.2252 C.ar      1 RES1    0.0000
      5 C5         8.2044   -0.1659    2.5451 C.ar      1 RES1    0.0000
      6 C6         9.4898    2.7030    0.4613 C.ar      1 RES1    0.0000
      7 C7         7.2194    1.7721    0.6512 C.ar      1 RES1    0.0000
      8 C8        10.8855    2.7044    0.8679 C.ar      1 RES1    0.0000
      9 C9         6.2939    0.8346    1.2894 C.ar      1 RES1    0.0000
     10 C10       12.8313    1.6192    2.0078 C.ar      1 RES1    0.0000
     11 C11        6.7695   -0.1034    2.2313 C.ar      1 RES1    0.0000
     12 C12        9.0209    3.5937   -0.5119 C.ar      1 RES1    0.0000
     13 H1         9.6183    4.2186   -0.9058 H         1 RES1    0.0000
     14 C13        6.8086    2.6890   -0.3133 C.ar      1 RES1    0.0000
     15 H2         5.8958    2.7099   -0.5737 H         1 RES1    0.0000
     16 C14        4.9153    0.8429    0.9910 C.ar      1 RES1    0.0000
     17 H3         4.5809    1.4696    0.3609 H         1 RES1    0.0000
     18 C15       10.9495   -0.2811    3.1011 C.ar      1 RES1    0.0000
     19 H4        11.8776   -0.3311    3.2979 H         1 RES1    0.0000
     20 C16        8.7270   -1.1270    3.4058 C.ar      1 RES1    0.0000
     21 H5         8.1418   -1.7566    3.8126 H         1 RES1    0.0000
     22 C17        7.6968    3.5702   -0.9028 C.ar      1 RES1    0.0000
     23 H6         7.3935    4.1628   -1.5810 H         1 RES1    0.0000
     24 C18       13.6078    0.5999    1.4662 C.ar      1 RES1    0.0000
     25 H7        13.2139   -0.0137    0.8564 H         1 RES1    0.0000
     26 C19       13.4409    2.5105    2.8817 C.ar      1 RES1    0.0000
     27 H8        12.9364    3.2281    3.2471 H         1 RES1    0.0000
     28 C20       10.0833   -1.1829    3.6808 C.ar      1 RES1    0.0000
     29 H9        10.4177   -1.8468    4.2723 H         1 RES1    0.0000
     30 C21        5.8527   -0.9796    2.8361 C.ar      1 RES1    0.0000
     31 H10        6.1643   -1.6057    3.4791 H         1 RES1    0.0000
     32 C22        4.5133   -0.9526    2.5178 C.ar      1 RES1    0.0000
     33 H11        3.9120   -1.5607    2.9315 H         1 RES1    0.0000
     34 C23       14.7762    2.3659    3.2279 C.ar      1 RES1    0.0000
     35 H12       15.1740    2.9754    3.8373 H         1 RES1    0.0000
     36 C24       14.9492    0.4642    1.8014 C.ar      1 RES1    0.0000
     37 H13       15.4665   -0.2332    1.4163 H         1 RES1    0.0000
     38 C25       15.5300    1.3416    2.6920 C.ar      1 RES1    0.0000
     39 H14       16.4422    1.2423    2.9356 H         1 RES1    0.0000
     40 C26       11.7454    3.8520    0.4414 C.ar      1 RES1    0.0000
     41 C27        4.0470   -0.0336    1.5904 C.ar      1 RES1    0.0000
     42 H15        3.1236   -0.0108    1.3697 H         1 RES1    0.0000
     43 C28       11.5294    5.0965    1.0315 C.ar      1 RES1    0.0000
     44 H16       10.8303    5.2023    1.6661 H         1 RES1    0.0000
     45 C29       12.7527    3.7260   -0.5059 C.ar      1 RES1    0.0000
     46 H17       12.9006    2.8882   -0.9278 H         1 RES1    0.0000
     47 C30       12.3275    6.1812    0.6983 C.ar      1 RES1    0.0000
     48 H18       12.1801    7.0235    1.1117 H         1 RES1    0.0000
     49 C31       13.5425    4.8104   -0.8403 C.ar      1 RES1    0.0000
     50 H19       14.2299    4.7134   -1.4877 H         1 RES1    0.0000
     51 C32       13.3341    6.0360   -0.2340 C.ar      1 RES1    0.0000
     52 H20       13.8831    6.7776   -0.4598 H         1 RES1    0.0000
@<TRIPOS>BOND
     1    1    2 ar
     2    2    6 ar
     3    3    4 ar
     4    4    1 ar
     5    5    1 ar
     6    6    8 ar
     7    7    2 ar
     8    8    3 ar
     9    9    7 ar
    10   10    3 1
    11   11    5 ar
    12   12    6 ar
    13   13   12 1
    14   14    7 ar
    15   15   14 1
    16   16    9 ar
    17   17   16 1
    18   18    4 ar
    19   19   18 1
    20   20    5 ar
    21   21   20 1
    22   22   12 ar
    23   23   22 1
    24   24   10 ar
    25   25   24 1
    26   26   10 ar
    27   27   26 1
    28   28   18 ar
    29   29   28 1
    30   30   11 ar
    31   31   30 1
    32   32   30 ar
    33   33   32 1
    34   34   26 ar
    35   35   34 1
    36   36   24 ar
    37   37   36 1
    38   38   34 ar
    39   39   38 1
    40   40    8 1
    41   41   16 ar
    42   42   41 1
    43   43   40 ar
    44   44   43 1
    45   45   40 ar
    46   46   45 1
    47   47   43 ar
    48   48   47 1
    49   49   45 ar
    50   50   49 1
    51   51   47 ar
    52   52   51 1
    53    9   11 ar
    54   14   22 ar
    55   20   28 ar
    56   32   41 ar
    57   36   38 ar
    58   49   51 ar
@<TRIPOS>SUBSTRUCTURE
     1 RES1 1

@<TRIPOS>CRYSIN
  15.0121    9.7971   13.7897  90.0000  95.5890  90.0000  14 1

