# MOL2 file generated by ConQuest
# Please check atom types

@<TRIPOS>MOLECULE
JAKDUU
    52    57     1
SMALL
NO_CHARGES
****
Generated from CSD

@<TRIPOS>ATOM
      1 C1         2.9636    6.5882   10.4068 C.ar      1 RES1    0.0000
      2 C2         2.0407    7.4359   11.2287 C.ar      1 RES1    0.0000
      3 C3         2.5835    8.2554   12.2279 C.ar      1 RES1    0.0000
      4 C4         3.9931    8.1566   12.6474 C.2       1 RES1    0.0000
      5 H1         4.5268    8.9115   12.5418 H         1 RES1    0.0000
      6 C5         4.5603    7.0703   13.1653 C.2       1 RES1    0.0000
      7 H2         5.4576    7.1247   13.4035 H         1 RES1    0.0000
      8 C6         3.8738    5.7880   13.3899 C.ar      1 RES1    0.0000
      9 C7         3.2926    5.0580   12.3470 C.ar      1 RES1    0.0000
     10 C8         3.5539    5.4793   10.9324 C.ar      1 RES1    0.0000
     11 C9         0.6641    7.4826   10.9561 C.ar      1 RES1    0.0000
     12 C10       -0.1221    8.3910   11.6521 C.ar      1 RES1    0.0000
     13 H3        -1.0338    8.4299   11.4763 H         1 RES1    0.0000
     14 C11        0.4209    9.2407   12.6019 C.ar      1 RES1    0.0000
     15 H4        -0.1206    9.8521   13.0463 H         1 RES1    0.0000
     16 C12        1.7627    9.1731   12.8831 C.ar      1 RES1    0.0000
     17 H5         2.1281    9.7461   13.5177 H         1 RES1    0.0000
     18 C13        0.0313    6.5498    9.9610 C.3       1 RES1    0.0000
     19 H6        -0.8712    6.8283    9.7908 H         1 RES1    0.0000
     20 H7         0.0292    5.6568   10.3147 H         1 RES1    0.0000
     21 H8         0.5313    6.5674    9.1416 H         1 RES1    0.0000
     22 C14        2.5714    3.8803   12.6247 C.ar      1 RES1    0.0000
     23 C15        2.4961    3.4359   13.9373 C.ar      1 RES1    0.0000
     24 H9         2.0258    2.6571   14.1294 H         1 RES1    0.0000
     25 C16        3.1038    4.1248   14.9590 C.ar      1 RES1    0.0000
     26 H10        3.0534    3.8040   15.8294 H         1 RES1    0.0000
     27 C17        3.7858    5.2905   14.6940 C.ar      1 RES1    0.0000
     28 H11        4.1938    5.7526   15.3906 H         1 RES1    0.0000
     29 C18        1.8703    3.1207   11.5329 C.3       1 RES1    0.0000
     30 H12        1.1011    2.6752   11.8968 H         1 RES1    0.0000
     31 H13        2.4698    2.4708   11.1589 H         1 RES1    0.0000
     32 H14        1.5918    3.7311   10.8460 H         1 RES1    0.0000
     33 C19        3.2625    7.0101    9.0464 C.ar      1 RES1    0.0000
     34 C20        2.6924    8.1784    8.5009 C.ar      1 RES1    0.0000
     35 H15        2.1248    8.6970    9.0237 H         1 RES1    0.0000
     36 C21        2.9614    8.5629    7.2181 C.ar      1 RES1    0.0000
     37 H16        2.5705    9.3329    6.8730 H         1 RES1    0.0000
     38 C22        3.8166    7.8059    6.4280 C.ar      1 RES1    0.0000
     39 H17        3.9939    8.0684    5.5535 H         1 RES1    0.0000
     40 C23        4.3964    6.6795    6.9305 C.ar      1 RES1    0.0000
     41 H18        4.9690    6.1833    6.3907 H         1 RES1    0.0000
     42 C24        4.1481    6.2476    8.2508 C.ar      1 RES1    0.0000
     43 C25        4.7816    5.0667    8.8133 C.ar      1 RES1    0.0000
     44 C26        5.7040    4.2862    8.0936 C.ar      1 RES1    0.0000
     45 H19        5.8859    4.5026    7.2076 H         1 RES1    0.0000
     46 C27        6.3402    3.2181    8.6610 C.ar      1 RES1    0.0000
     47 H20        6.9496    2.7230    8.1623 H         1 RES1    0.0000
     48 C28        6.0788    2.8672    9.9830 C.ar      1 RES1    0.0000
     49 H21        6.5125    2.1407   10.3687 H         1 RES1    0.0000
     50 C29        5.1822    3.5987   10.7103 C.ar      1 RES1    0.0000
     51 H22        5.0150    3.3628   11.5943 H         1 RES1    0.0000
     52 C30        4.5040    4.7022   10.1516 C.ar      1 RES1    0.0000
@<TRIPOS>BOND
     1    1    2 1
     2    2    3 ar
     3    3    4 1
     4    4    5 1
     5    6    4 2
     6    7    6 1
     7    8    6 1
     8    9    8 ar
     9   10    1 ar
    10   11    2 ar
    11   12   11 ar
    12   13   12 1
    13   14   12 ar
    14   15   14 1
    15   16    3 ar
    16   17   16 1
    17   18   11 1
    18   19   18 1
    19   20   18 1
    20   21   18 1
    21   22    9 ar
    22   23   22 ar
    23   24   23 1
    24   25   23 ar
    25   26   25 1
    26   27    8 ar
    27   28   27 1
    28   29   22 1
    29   30   29 1
    30   31   29 1
    31   32   29 1
    32   33    1 ar
    33   34   33 ar
    34   35   34 1
    35   36   34 ar
    36   37   36 1
    37   38   36 ar
    38   39   38 1
    39   40   38 ar
    40   41   40 1
    41   42   33 ar
    42   43   42 ar
    43   44   43 ar
    44   45   44 1
    45   46   44 ar
    46   47   46 1
    47   48   46 ar
    48   49   48 1
    49   50   48 ar
    50   51   50 1
    51   52   10 ar
    52    9   10 1
    53   14   16 ar
    54   25   27 ar
    55   40   42 ar
    56   43   52 ar
    57   50   52 ar
@<TRIPOS>SUBSTRUCTURE
     1 RES1 1

@<TRIPOS>CRYSIN
   7.8360    9.3160   15.0700  83.6400  75.0590  70.8980   2 1

