# MOL2 file generated by ConQuest
# Please check atom types

@<TRIPOS>MOLECULE
JEHZIG
    34    36     1
SMALL
NO_CHARGES
****
Generated from CSD

@<TRIPOS>ATOM
      1 C1        11.3242    1.3562    9.9819 C.3       1 RES1    0.0000
      2 C2        12.4773    1.6687   10.9305 C.3       1 RES1    0.0000
      3 C3        11.8552    1.2271    8.5609 C.ar      1 RES1    0.0000
      4 C4        11.7490    2.2776    7.6727 C.ar      1 RES1    0.0000
      5 C5        12.3058    2.1881    6.4059 C.ar      1 RES1    0.0000
      6 C6        12.9680    1.0703    6.0296 C.ar      1 RES1    0.0000
      7 C7        13.1091    0.0124    6.9079 C.ar      1 RES1    0.0000
      8 C8        12.5357    0.0963    8.1575 C.ar      1 RES1    0.0000
      9 C9        10.4691    0.1791   10.3902 C.ar      1 RES1    0.0000
     10 C10       10.9358   -0.7707   11.2562 C.ar      1 RES1    0.0000
     11 C11       10.1694   -1.8521   11.6608 C.ar      1 RES1    0.0000
     12 C12        8.9354   -2.0158   11.1723 C.ar      1 RES1    0.0000
     13 C13        8.3661   -1.0826   10.2755 C.ar      1 RES1    0.0000
     14 C14        7.0567   -1.2401    9.7735 C.ar      1 RES1    0.0000
     15 C15        6.5114   -0.3094    8.9519 C.ar      1 RES1    0.0000
     16 C16        7.2573    0.8319    8.5559 C.ar      1 RES1    0.0000
     17 C17        8.5367    0.9968    9.0198 C.ar      1 RES1    0.0000
     18 C18        9.1230    0.0426    9.8832 C.ar      1 RES1    0.0000
     19 H1        10.8240    2.1615   10.0535 H         1 RES1    0.0000
     20 H2        13.0407    0.8708   10.9416 H         1 RES1    0.0000
     21 H3        12.2287    1.7416   11.8545 H         1 RES1    0.0000
     22 H4        12.7527    2.7359   10.7196 H         1 RES1    0.0000
     23 H5        11.1999    3.1311    8.0058 H         1 RES1    0.0000
     24 H6        12.1171    3.0014    5.7607 H         1 RES1    0.0000
     25 H7        13.4613    0.9325    5.2673 H         1 RES1    0.0000
     26 H8        13.3343   -0.7905    6.7599 H         1 RES1    0.0000
     27 H9        12.6093   -0.6979    8.7089 H         1 RES1    0.0000
     28 H10       11.9407   -0.7411   11.5337 H         1 RES1    0.0000
     29 H11       10.5309   -2.5444   12.4096 H         1 RES1    0.0000
     30 H12        8.4278   -2.6185   11.2994 H         1 RES1    0.0000
     31 H13        6.3160   -2.0442   10.0658 H         1 RES1    0.0000
     32 H14        5.5528   -0.4755    8.5732 H         1 RES1    0.0000
     33 H15        7.0280    1.6428    7.9564 H         1 RES1    0.0000
     34 H16        9.0570    1.7848    8.8323 H         1 RES1    0.0000
@<TRIPOS>BOND
     1    1    2 1
     2    2   20 1
     3    3    1 1
     4    4    3 ar
     5    5    4 ar
     6    6    5 ar
     7    7    6 ar
     8    8    3 ar
     9    9    1 1
    10   10    9 ar
    11   11   10 ar
    12   12   11 ar
    13   13   12 ar
    14   14   13 ar
    15   15   14 ar
    16   16   15 ar
    17   17   16 ar
    18   18    9 ar
    19   19    1 1
    20   21    2 1
    21   22    2 1
    22   23    4 1
    23   24    5 1
    24   25    6 1
    25   26    7 1
    26   27    8 1
    27   28   10 1
    28   29   11 1
    29   30   12 1
    30   31   14 1
    31   32   15 1
    32   33   16 1
    33   34   17 1
    34    7    8 ar
    35   13   18 ar
    36   17   18 ar
@<TRIPOS>SUBSTRUCTURE
     1 RES1 1

@<TRIPOS>CRYSIN
  17.4560    6.1758   13.0860  90.0000 109.4980  90.0000  14 2

