# MOL2 file generated by ConQuest
# Please check atom types

@<TRIPOS>MOLECULE
JOGMOI
    60    67     1
SMALL
NO_CHARGES
****
Generated from CSD

@<TRIPOS>ATOM
      1 C1         1.9215    8.1918    2.6208 C.ar      1 RES1    0.0000
      2 C2         1.1062    7.0907    2.9375 C.ar      1 RES1    0.0000
      3 C3         1.9045    5.9293    2.8826 C.ar      1 RES1    0.0000
      4 C4         3.2205    6.3105    2.5608 C.ar      1 RES1    0.0000
      5 C5         3.2378    7.7101    2.3947 C.ar      1 RES1    0.0000
      6 C6         0.3776    9.6275    3.6984 C.ar      1 RES1    0.0000
      7 H1         0.0788   10.5027    3.9157 H         1 RES1    0.0000
      8 C7        -0.4192    8.5460    4.0091 C.ar      1 RES1    0.0000
      9 H2        -1.2566    8.7009    4.4296 H         1 RES1    0.0000
     10 C8        -0.0249    7.1866    3.7184 C.ar      1 RES1    0.0000
     11 C9        -0.4543    5.9322    4.3013 C.ar      1 RES1    0.0000
     12 H3        -1.2952    5.8916    4.7419 H         1 RES1    0.0000
     13 C10        0.3215    4.7953    4.2353 C.ar      1 RES1    0.0000
     14 H4         0.0000    3.9965    4.6373 H         1 RES1    0.0000
     15 C11        1.6099    4.7780    3.5753 C.ar      1 RES1    0.0000
     16 C12        2.7485    3.8709    3.7511 C.ar      1 RES1    0.0000
     17 C13        4.0650    4.2732    3.4759 C.ar      1 RES1    0.0000
     18 C14        4.3326    5.5851    2.9435 C.ar      1 RES1    0.0000
     19 C15        5.5473    6.3465    2.9360 C.ar      1 RES1    0.0000
     20 H5         6.3727    5.8893    3.0525 H         1 RES1    0.0000
     21 C16        5.5657    7.7160    2.7647 C.ar      1 RES1    0.0000
     22 H6         6.4005    8.1683    2.7692 H         1 RES1    0.0000
     23 C17        4.3586    8.4818    2.5815 C.ar      1 RES1    0.0000
     24 C18        4.1168    9.8918    2.8070 C.ar      1 RES1    0.0000
     25 C19        2.8114   10.3654    3.0043 C.ar      1 RES1    0.0000
     26 C20        1.6608    9.4602    3.0465 C.ar      1 RES1    0.0000
     27 C21        2.4978    2.5701    4.2843 C.1       1 RES1    0.0000
     28 C22        2.2783    1.4686    4.7040 C.1       1 RES1    0.0000
     29 C23        2.0913    0.1591    5.2840 C.ar      1 RES1    0.0000
     30 C24        0.9227   -0.5570    5.1230 C.ar      1 RES1    0.0000
     31 H7         0.2040   -0.1931    4.6195 H         1 RES1    0.0000
     32 C25        0.8037   -1.8107    5.7000 C.ar      1 RES1    0.0000
     33 H8        -0.0031   -2.2989    5.5954 H         1 RES1    0.0000
     34 C26        1.8300   -2.3489    6.4157 C.ar      1 RES1    0.0000
     35 H9         1.7373   -3.2132    6.7991 H         1 RES1    0.0000
     36 C27        2.9738   -1.6627    6.5803 C.ar      1 RES1    0.0000
     37 H10        3.6879   -2.0460    7.0750 H         1 RES1    0.0000
     38 C28        3.1145   -0.4099    6.0389 C.ar      1 RES1    0.0000
     39 H11        3.9197    0.0754    6.1806 H         1 RES1    0.0000
     40 C29        5.2104    3.3889    3.8534 C.3       1 RES1    0.0000
     41 H12        5.6153    3.7147    4.6848 H         1 RES1    0.0000
     42 H13        5.8812    3.3996    3.1385 H         1 RES1    0.0000
     43 H14        4.8873    2.4720    3.9839 H         1 RES1    0.0000
     44 C30        5.2787   10.8365    2.9479 C.3       1 RES1    0.0000
     45 H15        5.0450   11.7032    2.5526 H         1 RES1    0.0000
     46 H16        6.0589   10.4650    2.4859 H         1 RES1    0.0000
     47 H17        5.4886   10.9576    3.8979 H         1 RES1    0.0000
     48 C31        2.6103   11.7740    3.2379 C.1       1 RES1    0.0000
     49 C32        2.5076   12.9559    3.3899 C.1       1 RES1    0.0000
     50 C33        2.4450   14.3867    3.5323 C.ar      1 RES1    0.0000
     51 C34        3.4775   15.1858    3.0399 C.ar      1 RES1    0.0000
     52 H18        4.2242   14.7877    2.6068 H         1 RES1    0.0000
     53 C35        3.4112   16.5505    3.1815 C.ar      1 RES1    0.0000
     54 H19        4.1099   17.0910    2.8307 H         1 RES1    0.0000
     55 C36        2.3463   17.1503    3.8267 C.ar      1 RES1    0.0000
     56 H20        2.3123   18.0941    3.9194 H         1 RES1    0.0000
     57 C37        1.3308   16.3641    4.3369 C.ar      1 RES1    0.0000
     58 H21        0.6013   16.7693    4.7893 H         1 RES1    0.0000
     59 C38        1.3708   14.9865    4.1908 C.ar      1 RES1    0.0000
     60 H22        0.6677   14.4504    4.5394 H         1 RES1    0.0000
@<TRIPOS>BOND
     1    1    2 ar
     2    2    3 ar
     3    3    4 ar
     4    4    5 ar
     5    5    1 ar
     6    6    7 1
     7    8    6 ar
     8    9    8 1
     9   10    2 ar
    10   11   10 ar
    11   12   11 1
    12   13   11 ar
    13   14   13 1
    14   15    3 ar
    15   16   15 ar
    16   17   16 ar
    17   18    4 ar
    18   19   18 ar
    19   20   19 1
    20   21   19 ar
    21   22   21 1
    22   23    5 ar
    23   24   23 ar
    24   25   24 ar
    25   26    1 ar
    26   27   16 1
    27   28   27 3
    28   29   28 1
    29   30   29 ar
    30   31   30 1
    31   32   30 ar
    32   33   32 1
    33   34   32 ar
    34   35   34 1
    35   36   34 ar
    36   37   36 1
    37   38   29 ar
    38   39   38 1
    39   40   17 1
    40   41   40 1
    41   42   40 1
    42   43   40 1
    43   44   24 1
    44   45   44 1
    45   46   44 1
    46   47   44 1
    47   48   25 1
    48   49   48 3
    49   50   49 1
    50   51   50 ar
    51   52   51 1
    52   53   51 ar
    53   54   53 1
    54   55   53 ar
    55   56   55 1
    56   57   55 ar
    57   58   57 1
    58   59   50 ar
    59   60   59 1
    60    6   26 ar
    61    8   10 ar
    62   13   15 ar
    63   17   18 ar
    64   21   23 ar
    65   25   26 ar
    66   36   38 ar
    67   57   59 ar
@<TRIPOS>SUBSTRUCTURE
     1 RES1 1

@<TRIPOS>CRYSIN
  15.4564   22.1904    7.4161  90.0000  90.0000  90.0000  29 1

