# MOL2 file generated by ConQuest
# Please check atom types

@<TRIPOS>MOLECULE
JOKSIN
    83    91     1
SMALL
NO_CHARGES
****
Generated from CSD

@<TRIPOS>ATOM
      1 C1         3.4975    1.0616    1.6957 C.3       1 RES1    0.0000
      2 C2         3.1480    2.0980    0.6048 C.ar      1 RES1    0.0000
      3 C3         2.0462    2.2393   -0.2245 C.ar      1 RES1    0.0000
      4 H1         1.3550    1.5874   -0.2252 H         1 RES1    0.0000
      5 C4         1.9697    3.3625   -1.0619 C.ar      1 RES1    0.0000
      6 C5         3.0010    4.3131   -1.1376 C.ar      1 RES1    0.0000
      7 C6         4.1940    4.1133   -0.3787 C.ar      1 RES1    0.0000
      8 C7         5.4910    4.8540   -0.4176 C.ar      1 RES1    0.0000
      9 C8         5.6970    5.9519   -1.2757 C.ar      1 RES1    0.0000
     10 H2         4.9653    6.2829   -1.7821 H         1 RES1    0.0000
     11 C9         6.9185    6.5604   -1.4065 C.ar      1 RES1    0.0000
     12 H3         7.0109    7.3233   -1.9654 H         1 RES1    0.0000
     13 C10        8.0154    6.0700   -0.7306 C.ar      1 RES1    0.0000
     14 H4         8.8723    6.4555   -0.8651 H         1 RES1    0.0000
     15 C11        7.8540    5.0063    0.1487 C.ar      1 RES1    0.0000
     16 H5         8.6192    4.6683    0.6000 H         1 RES1    0.0000
     17 C12        6.6169    4.4150    0.3965 C.ar      1 RES1    0.0000
     18 C13        6.4603    3.3201    1.3812 C.ar      1 RES1    0.0000
     19 C14        7.3572    2.9073    2.4297 C.ar      1 RES1    0.0000
     20 C15        6.9836    1.8165    3.2338 C.ar      1 RES1    0.0000
     21 C16        5.7779    1.1000    3.0441 C.ar      1 RES1    0.0000
     22 H6         5.5748    0.3421    3.5801 H         1 RES1    0.0000
     23 C17        4.9027    1.5238    2.0663 C.ar      1 RES1    0.0000
     24 C18        4.1879    3.0002    0.4441 C.ar      1 RES1    0.0000
     25 C19        5.2660    2.6419    1.3164 C.ar      1 RES1    0.0000
     26 C20        2.5568    1.2705    2.9542 C.3       1 RES1    0.0000
     27 H7         2.8420    0.6398    3.6618 H         1 RES1    0.0000
     28 H8         2.7012    2.1868    3.2990 H         1 RES1    0.0000
     29 C21        1.0807    1.0838    2.7269 C.3       1 RES1    0.0000
     30 H9         0.5983    1.2382    3.5661 H         1 RES1    0.0000
     31 H10        0.9116    0.1695    2.4179 H         1 RES1    0.0000
     32 H11        0.7721    1.7206    2.0492 H         1 RES1    0.0000
     33 C22        3.4643   -0.3754    1.2060 C.3       1 RES1    0.0000
     34 H12        3.6776   -0.9768    1.9635 H         1 RES1    0.0000
     35 H13        2.5461   -0.5893    0.9030 H         1 RES1    0.0000
     36 C23        4.4321   -0.6489    0.0738 C.3       1 RES1    0.0000
     37 H14        4.3615   -1.5884   -0.1953 H         1 RES1    0.0000
     38 H15        5.3449   -0.4612    0.3728 H         1 RES1    0.0000
     39 H16        4.2139   -0.0737   -0.6897 H         1 RES1    0.0000
     40 C24        7.8048    1.4168    4.4398 C.ar      1 RES1    0.0000
     41 C25        7.8793    2.2877    5.5290 C.ar      1 RES1    0.0000
     42 H17        7.4854    3.1505    5.4757 H         1 RES1    0.0000
     43 C26        8.5387    1.8841    6.7021 C.ar      1 RES1    0.0000
     44 H18        8.5828    2.4734    7.4452 H         1 RES1    0.0000
     45 C27        9.1168    0.6549    6.7814 C.ar      1 RES1    0.0000
     46 H19        9.5505    0.3895    7.5827 H         1 RES1    0.0000
     47 C28        9.0763   -0.2170    5.6950 C.ar      1 RES1    0.0000
     48 H20        9.4975   -1.0667    5.7409 H         1 RES1    0.0000
     49 C29        8.3986    0.1827    4.5289 C.ar      1 RES1    0.0000
     50 H21        8.3504   -0.4127    3.7914 H         1 RES1    0.0000
     51 C30        8.6533    3.5754    2.7508 C.ar      1 RES1    0.0000
     52 C31        8.6973    4.8671    3.2669 C.ar      1 RES1    0.0000
     53 H22        7.8914    5.3595    3.3728 H         1 RES1    0.0000
     54 C32        9.8991    5.4372    3.6267 C.ar      1 RES1    0.0000
     55 H23        9.9084    6.3172    3.9847 H         1 RES1    0.0000
     56 C33       11.0856    4.7581    3.4786 C.ar      1 RES1    0.0000
     57 H24       11.9087    5.1618    3.7276 H         1 RES1    0.0000
     58 C34       11.0570    3.4634    2.9561 C.ar      1 RES1    0.0000
     59 H25       11.8690    2.9800    2.8445 H         1 RES1    0.0000
     60 C35        9.8523    2.8821    2.5973 C.ar      1 RES1    0.0000
     61 H26        9.8433    2.0001    2.2425 H         1 RES1    0.0000
     62 C36        2.7604    5.5301   -1.9748 C.ar      1 RES1    0.0000
     63 C37        2.4202    6.7441   -1.3894 C.ar      1 RES1    0.0000
     64 H27        2.3459    6.7966   -0.4445 H         1 RES1    0.0000
     65 C38        2.1855    7.8895   -2.1588 C.ar      1 RES1    0.0000
     66 H28        1.9537    8.7129   -1.7442 H         1 RES1    0.0000
     67 C39        2.2994    7.7926   -3.5561 C.ar      1 RES1    0.0000
     68 H29        2.1487    8.5585   -4.0963 H         1 RES1    0.0000
     69 C40        2.6278    6.5998   -4.1422 C.ar      1 RES1    0.0000
     70 H30        2.6968    6.5473   -5.0890 H         1 RES1    0.0000
     71 C41        2.8639    5.4655   -3.3805 C.ar      1 RES1    0.0000
     72 H31        3.0952    4.6461   -3.8033 H         1 RES1    0.0000
     73 C42        0.7479    3.4502   -1.9467 C.ar      1 RES1    0.0000
     74 C43       -0.1761    4.4957   -1.8299 C.ar      1 RES1    0.0000
     75 H32       -0.0166    5.1971   -1.2100 H         1 RES1    0.0000
     76 C44       -1.3262    4.5169   -2.6133 C.ar      1 RES1    0.0000
     77 H33       -1.9511    5.2273   -2.5236 H         1 RES1    0.0000
     78 C45       -1.5574    3.4886   -3.5302 C.ar      1 RES1    0.0000
     79 H34       -2.3459    3.4886   -4.0625 H         1 RES1    0.0000
     80 C46       -0.6429    2.4815   -3.6598 C.ar      1 RES1    0.0000
     81 H35       -0.7796    1.7983   -4.3056 H         1 RES1    0.0000
     82 C47        0.4904    2.4552   -2.8485 C.ar      1 RES1    0.0000
     83 H36        1.0979    1.7287   -2.9243 H         1 RES1    0.0000
@<TRIPOS>BOND
     1    1    2 1
     2    2    3 ar
     3    3    4 1
     4    5    3 ar
     5    6    5 ar
     6    7    6 ar
     7    8    7 ar
     8    9    8 ar
     9   10    9 1
    10   11    9 ar
    11   12   11 1
    12   13   11 ar
    13   14   13 1
    14   15   13 ar
    15   16   15 1
    16   17    8 ar
    17   18   17 ar
    18   19   18 ar
    19   20   19 ar
    20   21   20 ar
    21   22   21 1
    22   23    1 1
    23   24    2 ar
    24   25   18 ar
    25   26    1 1
    26   27   26 1
    27   28   26 1
    28   29   26 1
    29   30   29 1
    30   31   29 1
    31   32   29 1
    32   33    1 1
    33   34   33 1
    34   35   33 1
    35   36   33 1
    36   37   36 1
    37   38   36 1
    38   39   36 1
    39   40   20 1
    40   41   40 ar
    41   42   41 1
    42   43   41 ar
    43   44   43 1
    44   45   43 ar
    45   46   45 1
    46   47   45 ar
    47   48   47 1
    48   49   40 ar
    49   50   49 1
    50   51   19 1
    51   52   51 ar
    52   53   52 1
    53   54   52 ar
    54   55   54 1
    55   56   54 ar
    56   57   56 1
    57   58   56 ar
    58   59   58 1
    59   60   51 ar
    60   61   60 1
    61   62    6 1
    62   63   62 ar
    63   64   63 1
    64   65   63 ar
    65   66   65 1
    66   67   65 ar
    67   68   67 1
    68   69   67 ar
    69   70   69 1
    70   71   62 ar
    71   72   71 1
    72   73    5 1
    73   74   73 ar
    74   75   74 1
    75   76   74 ar
    76   77   76 1
    77   78   76 ar
    78   79   78 1
    79   80   78 ar
    80   81   80 1
    81   82   73 ar
    82   83   82 1
    83    7   24 ar
    84   15   17 ar
    85   21   23 ar
    86   23   25 ar
    87   24   25 ar
    88   47   49 ar
    89   58   60 ar
    90   69   71 ar
    91   80   82 ar
@<TRIPOS>SUBSTRUCTURE
     1 RES1 1

@<TRIPOS>CRYSIN
  32.3980   10.0914   20.4070  90.0000 102.3660  90.0000  15 1

