# MOL2 file generated by ConQuest
# Please check atom types

@<TRIPOS>MOLECULE
JULSOY
    64    74     1
SMALL
NO_CHARGES
****
Generated from CSD

@<TRIPOS>ATOM
      1 C1        24.8456    1.2044    1.5118 C.ar      1 RES1    0.0000
      2 C2        24.3658    0.9335    2.7814 C.ar      1 RES1    0.0000
      3 C3        23.0690    1.2186    3.1026 C.ar      1 RES1    0.0000
      4 C4        22.1852    1.7933    2.1625 C.ar      1 RES1    0.0000
      5 C5        20.8213    2.1089    2.4450 C.ar      1 RES1    0.0000
      6 C6        20.2690    1.8610    3.7367 C.ar      1 RES1    0.0000
      7 C7        18.9687    2.0910    4.0136 C.ar      1 RES1    0.0000
      8 C8        18.0630    2.5667    3.0265 C.ar      1 RES1    0.0000
      9 C9        16.6721    2.6828    3.2729 C.ar      1 RES1    0.0000
     10 C10       16.1112    2.8257    4.6186 C.ar      1 RES1    0.0000
     11 C11       16.8669    3.3714    5.6791 C.ar      1 RES1    0.0000
     12 C12       16.3150    3.5508    6.9307 C.ar      1 RES1    0.0000
     13 C13       14.9911    3.2143    7.1577 C.ar      1 RES1    0.0000
     14 C14       14.2241    2.7364    6.1235 C.ar      1 RES1    0.0000
     15 C15       14.7638    2.5354    4.8443 C.ar      1 RES1    0.0000
     16 C16       13.9067    2.1468    3.7284 C.ar      1 RES1    0.0000
     17 C17       12.6390    1.6756    3.9125 C.ar      1 RES1    0.0000
     18 C18       11.7481    1.4471    2.8368 C.ar      1 RES1    0.0000
     19 C19       10.4291    1.0049    3.0735 C.ar      1 RES1    0.0000
     20 C20        9.5443    0.8642    2.0407 C.ar      1 RES1    0.0000
     21 C21        9.9559    1.1449    0.7462 C.ar      1 RES1    0.0000
     22 C22       11.2421    1.5409    0.4776 C.ar      1 RES1    0.0000
     23 C23       12.1786    1.6943    1.5146 C.ar      1 RES1    0.0000
     24 C24       13.5476    2.0888    1.2986 C.ar      1 RES1    0.0000
     25 C25       14.0962    2.1975   -0.0069 C.ar      1 RES1    0.0000
     26 C26       15.3885    2.5317   -0.2229 C.ar      1 RES1    0.0000
     27 C27       16.2993    2.7855    0.8501 C.ar      1 RES1    0.0000
     28 C28       17.6690    3.0669    0.6507 C.ar      1 RES1    0.0000
     29 C29       18.2124    3.5567   -0.6244 C.ar      1 RES1    0.0000
     30 C30       17.4142    4.2483   -1.5520 C.ar      1 RES1    0.0000
     31 C31       17.9333    4.7135   -2.7385 C.ar      1 RES1    0.0000
     32 C32       19.2978    4.5542   -3.0140 C.ar      1 RES1    0.0000
     33 C33       20.1132    3.9453   -2.0975 C.ar      1 RES1    0.0000
     34 C34       19.5955    3.4324   -0.8874 C.ar      1 RES1    0.0000
     35 C35       20.4847    2.8570    0.1274 C.ar      1 RES1    0.0000
     36 C36       21.8038    2.5741   -0.1191 C.ar      1 RES1    0.0000
     37 C37       22.6735    2.0411    0.8584 C.ar      1 RES1    0.0000
     38 C38       24.0234    1.7449    0.5649 C.ar      1 RES1    0.0000
     39 C39       19.9673    2.6084    1.4426 C.ar      1 RES1    0.0000
     40 C40       18.5651    2.7796    1.7057 C.ar      1 RES1    0.0000
     41 C41       15.7969    2.6195    2.1819 C.ar      1 RES1    0.0000
     42 C42       14.3985    2.3062    2.3910 C.ar      1 RES1    0.0000
     43 H1        25.8476    0.9901    1.2876 H         1 RES1    0.0000
     44 H2        25.0560    0.4839    3.5166 H         1 RES1    0.0000
     45 H3        22.7348    0.9901    4.0842 H         1 RES1    0.0000
     46 H4        20.8622    1.4516    4.4857 H         1 RES1    0.0000
     47 H5        18.5103    1.8759    4.9841 H         1 RES1    0.0000
     48 H6        17.8768    3.6699    5.5102 H         1 RES1    0.0000
     49 H7        16.9209    3.9453    7.7254 H         1 RES1    0.0000
     50 H8        14.5690    3.3349    8.1269 H         1 RES1    0.0000
     51 H9        13.1834    2.5161    6.2717 H         1 RES1    0.0000
     52 H10       12.3008    1.4739    4.9010 H         1 RES1    0.0000
     53 H11       10.1343    0.7667    4.0704 H         1 RES1    0.0000
     54 H12        8.5535    0.5136    2.2290 H         1 RES1    0.0000
     55 H13        9.2802    1.0645   -0.0277 H         1 RES1    0.0000
     56 H14       11.5910    1.7345   -0.5538 H         1 RES1    0.0000
     57 H15       13.4567    2.0099   -0.8307 H         1 RES1    0.0000
     58 H16       15.7572    2.6054   -1.2183 H         1 RES1    0.0000
     59 H17       16.3837    4.4366   -1.3291 H         1 RES1    0.0000
     60 H18       17.3088    5.2406   -3.4196 H         1 RES1    0.0000
     61 H19       19.6847    4.8982   -3.9181 H         1 RES1    0.0000
     62 H20       21.1696    3.8783   -2.2705 H         1 RES1    0.0000
     63 H21       22.1927    2.7394   -1.0799 H         1 RES1    0.0000
     64 H22       24.3729    1.9354   -0.4015 H         1 RES1    0.0000
@<TRIPOS>BOND
     1    1    2 ar
     2    2    3 ar
     3    3    4 ar
     4    4    5 ar
     5    5    6 ar
     6    6    7 ar
     7    7    8 ar
     8    8    9 ar
     9    9   10 ar
    10   10   11 ar
    11   11   12 ar
    12   12   13 ar
    13   13   14 ar
    14   14   15 ar
    15   15   10 ar
    16   16   15 ar
    17   17   16 ar
    18   18   17 ar
    19   19   18 ar
    20   20   19 ar
    21   21   20 ar
    22   22   21 ar
    23   23   18 ar
    24   24   23 ar
    25   25   24 ar
    26   26   25 ar
    27   27   26 ar
    28   28   27 ar
    29   29   28 ar
    30   30   29 ar
    31   31   30 ar
    32   32   31 ar
    33   33   32 ar
    34   34   29 ar
    35   35   34 ar
    36   36   35 ar
    37   37    4 ar
    38   38    1 ar
    39   39    5 ar
    40   40    8 ar
    41   41    9 ar
    42   42   16 ar
    43   43    1 1
    44   44    2 1
    45   45    3 1
    46   46    6 1
    47   47    7 1
    48   48   11 1
    49   49   12 1
    50   50   13 1
    51   51   14 1
    52   52   17 1
    53   53   19 1
    54   54   20 1
    55   55   21 1
    56   56   22 1
    57   57   25 1
    58   58   26 1
    59   59   30 1
    60   60   31 1
    61   61   32 1
    62   62   33 1
    63   63   36 1
    64   64   38 1
    65   22   23 ar
    66   24   42 ar
    67   27   41 ar
    68   28   40 ar
    69   33   34 ar
    70   35   39 ar
    71   36   37 ar
    72   37   38 ar
    73   39   40 ar
    74   41   42 ar
@<TRIPOS>SUBSTRUCTURE
     1 RES1 1

@<TRIPOS>CRYSIN
  23.9620    7.4440   14.2630  90.0000 103.9100  90.0000 231 1

