# MOL2 file generated by ConQuest
# Please check atom types

@<TRIPOS>MOLECULE
JUZFAN01
    64    70     1
SMALL
NO_CHARGES
****
Generated from CSD

@<TRIPOS>ATOM
      1 C1         2.1950    6.7086    2.8352 C.ar      1 RES1    0.0000
      2 C2         1.9986    7.7188    1.8079 C.ar      1 RES1    0.0000
      3 C3         4.2570   -2.3956    8.5033 C.ar      1 RES1    0.0000
      4 C4         3.0741   -3.1388    8.7574 C.ar      1 RES1    0.0000
      5 H1         3.1223   -3.9012    9.2888 H         1 RES1    0.0000
      6 C5         5.4984   -2.7914    8.9884 C.ar      1 RES1    0.0000
      7 H2         5.5537   -3.5698    9.4951 H         1 RES1    0.0000
      8 C6         1.3561    6.6966    3.8934 C.ar      1 RES1    0.0000
      9 H3         1.4619    6.0252    4.5280 H         1 RES1    0.0000
     10 C7         2.8841   -0.8701    7.1786 C.ar      1 RES1    0.0000
     11 H4         2.7978   -0.1059    6.6562 H         1 RES1    0.0000
     12 C8         9.0159   -1.7015    9.1178 C.ar      1 RES1    0.0000
     13 H5         9.8276   -1.9651    9.4869 H         1 RES1    0.0000
     14 C9         1.8929   -2.7686    8.2513 C.ar      1 RES1    0.0000
     15 H6         1.1348   -3.2754    8.4351 H         1 RES1    0.0000
     16 C10        1.7833   -1.6138    7.4404 C.ar      1 RES1    0.0000
     17 H7         0.9588   -1.3667    7.0891 H         1 RES1    0.0000
     18 C11        0.3175    7.6538    4.0950 C.ar      1 RES1    0.0000
     19 C12        6.6484   -2.0745    8.7461 C.ar      1 RES1    0.0000
     20 C13        6.7450    1.9395    3.3117 C.ar      1 RES1    0.0000
     21 H8         7.4471    1.3308    3.2719 H         1 RES1    0.0000
     22 C14        4.8033    2.7960    4.3579 C.ar      1 RES1    0.0000
     23 H9         4.1803    2.7572    5.0467 H         1 RES1    0.0000
     24 C15        5.8482    1.8712    4.3399 C.ar      1 RES1    0.0000
     25 C16        1.6156    9.6605   -0.1658 C.ar      1 RES1    0.0000
     26 H10        1.4924   10.3091   -0.8210 H         1 RES1    0.0000
     27 C17        8.9353   -0.5125    8.3622 C.ar      1 RES1    0.0000
     28 H11        9.6969    0.0080    8.2472 H         1 RES1    0.0000
     29 C18        5.9717    0.8092    5.3537 C.2       1 RES1    0.0000
     30 H12        6.6515    0.1896    5.2183 H         1 RES1    0.0000
     31 C19        7.7668   -0.1150    7.7993 C.ar      1 RES1    0.0000
     32 H13        7.7455    0.6771    7.3118 H         1 RES1    0.0000
     33 C20        3.3117    5.7559    2.7284 C.2       1 RES1    0.0000
     34 H14        3.9385    5.9313    2.0649 H         1 RES1    0.0000
     35 C21        4.6618    3.7742    3.3785 C.ar      1 RES1    0.0000
     36 C22        0.8045    9.6475    0.9277 C.ar      1 RES1    0.0000
     37 H15        0.1241   10.2778    0.9987 H         1 RES1    0.0000
     38 C23       -0.4920    7.6254    5.2338 C.ar      1 RES1    0.0000
     39 H16       -0.3821    6.9381    5.8515 H         1 RES1    0.0000
     40 C24        5.3467   -0.5011    7.3683 C.ar      1 RES1    0.0000
     41 C25        6.5825   -0.8747    7.9351 C.ar      1 RES1    0.0000
     42 C26        7.9127   -2.4543    9.3017 C.ar      1 RES1    0.0000
     43 H17        7.9733   -3.2367    9.7994 H         1 RES1    0.0000
     44 C27        6.6204    2.9138    2.3169 C.ar      1 RES1    0.0000
     45 H18        7.2445    2.9560    1.6278 H         1 RES1    0.0000
     46 C28        0.1453    8.6817    3.1369 C.ar      1 RES1    0.0000
     47 C29        5.5868    3.8033    2.3520 C.ar      1 RES1    0.0000
     48 H19        5.5029    4.4371    1.6768 H         1 RES1    0.0000
     49 C30        3.5253    4.6939    3.4563 C.2       1 RES1    0.0000
     50 H20        2.8811    4.4986    4.0991 H         1 RES1    0.0000
     51 C31        2.7948    7.7689    0.6605 C.ar      1 RES1    0.0000
     52 H21        3.4673    7.1351    0.5514 H         1 RES1    0.0000
     53 C32        4.1771   -1.2232    7.6804 C.ar      1 RES1    0.0000
     54 C33        0.9774    8.6908    1.9607 C.ar      1 RES1    0.0000
     55 C34        5.2357    0.6349    6.4194 C.2       1 RES1    0.0000
     56 H22        4.5883    1.2778    6.5990 H         1 RES1    0.0000
     57 C35        2.6177    8.7233   -0.3133 C.ar      1 RES1    0.0000
     58 H23        3.1677    8.7369   -1.0641 H         1 RES1    0.0000
     59 C36       -0.8266    9.6651    3.4186 C.ar      1 RES1    0.0000
     60 H24       -0.9499   10.3701    2.8246 H         1 RES1    0.0000
     61 C37       -1.5858    9.5968    4.5466 C.ar      1 RES1    0.0000
     62 H25       -2.2220   10.2562    4.7036 H         1 RES1    0.0000
     63 C38       -1.4352    8.5746    5.4624 C.ar      1 RES1    0.0000
     64 H26       -1.9699    8.5376    6.2232 H         1 RES1    0.0000
@<TRIPOS>BOND
     1    1    2 ar
     2    2   51 ar
     3    3    4 ar
     4    4    5 1
     5    6    3 ar
     6    7    6 1
     7    8    1 ar
     8    9    8 1
     9   10   11 1
    10   12   13 1
    11   14    4 ar
    12   15   14 1
    13   16   10 ar
    14   17   16 1
    15   18    8 ar
    16   19    6 ar
    17   20   21 1
    18   22   23 1
    19   24   20 ar
    20   25   26 1
    21   27   12 ar
    22   28   27 1
    23   29   24 1
    24   30   29 1
    25   31   27 ar
    26   32   31 1
    27   33    1 1
    28   34   33 1
    29   35   22 ar
    30   36   25 ar
    31   37   36 1
    32   38   18 ar
    33   39   38 1
    34   40   41 ar
    35   41   19 ar
    36   42   12 ar
    37   43   42 1
    38   44   20 ar
    39   45   44 1
    40   46   18 ar
    41   47   35 ar
    42   48   47 1
    43   49   33 2
    44   50   49 1
    45   51   52 1
    46   53    3 ar
    47   54    2 ar
    48   55   29 2
    49   56   55 1
    50   57   25 ar
    51   58   57 1
    52   59   46 ar
    53   60   59 1
    54   61   59 ar
    55   62   61 1
    56   63   38 ar
    57   64   63 1
    58   10   53 ar
    59   14   16 ar
    60   19   42 ar
    61   22   24 ar
    62   31   41 ar
    63   35   49 1
    64   36   54 ar
    65   40   53 ar
    66   40   55 1
    67   44   47 ar
    68   46   54 ar
    69   51   57 ar
    70   61   63 ar
@<TRIPOS>SUBSTRUCTURE
     1 RES1 1

@<TRIPOS>CRYSIN
  10.9201    5.6944   20.5440  90.0000  96.1980  90.0000   4 1

