# MOL2 file generated by ConQuest
# Please check atom types

@<TRIPOS>MOLECULE
KAGFOP
    58    65     1
SMALL
NO_CHARGES
****
Generated from CSD

@<TRIPOS>ATOM
      1 C1         0.1414    1.9428    1.4251 C.ar      1 RES1    0.0000
      2 C2         1.4707    1.4716    1.7653 C.ar      1 RES1    0.0000
      3 C3         2.5758    1.6375    0.9399 C.ar      1 RES1    0.0000
      4 H1         2.4927    2.1404    0.1628 H         1 RES1    0.0000
      5 C4         3.8151    1.0590    1.2589 C.ar      1 RES1    0.0000
      6 H2         4.5494    1.2238    0.7131 H         1 RES1    0.0000
      7 C5         3.9593    0.2746    2.3392 C.ar      1 RES1    0.0000
      8 H3         4.7839   -0.1184    2.5155 H         1 RES1    0.0000
      9 C6         2.8618    0.0360    3.2196 C.ar      1 RES1    0.0000
     10 C7         2.9557   -0.8153    4.3258 C.ar      1 RES1    0.0000
     11 H4         3.7478   -1.2736    4.4897 H         1 RES1    0.0000
     12 C8         1.8960   -0.9784    5.1646 C.ar      1 RES1    0.0000
     13 H5         1.9600   -1.5860    5.8665 H         1 RES1    0.0000
     14 C9         0.7348   -0.2633    4.9906 C.ar      1 RES1    0.0000
     15 H6         0.0398   -0.3690    5.6003 H         1 RES1    0.0000
     16 C10        0.5724    0.6191    3.9204 C.ar      1 RES1    0.0000
     17 C11       -0.6240    1.4265    3.6946 C.ar      1 RES1    0.0000
     18 C12       -1.4297    1.9085    4.7008 C.ar      1 RES1    0.0000
     19 C13       -2.7083    2.5566    4.3920 C.ar      1 RES1    0.0000
     20 C14       -3.5191    3.0981    5.3668 C.ar      1 RES1    0.0000
     21 H7        -3.2130    3.1548    6.2427 H         1 RES1    0.0000
     22 C15       -4.7959    3.5598    5.0490 C.ar      1 RES1    0.0000
     23 H8        -5.3167    3.9529    5.7138 H         1 RES1    0.0000
     24 C16       -5.2957    3.4517    3.7946 C.ar      1 RES1    0.0000
     25 H9        -6.1652    3.7315    3.6194 H         1 RES1    0.0000
     26 C17       -4.5058    2.9179    2.7457 C.ar      1 RES1    0.0000
     27 C18       -4.9725    2.7823    1.4228 C.ar      1 RES1    0.0000
     28 H10       -5.8458    3.0260    1.2162 H         1 RES1    0.0000
     29 C19       -4.1786    2.3051    0.4660 C.ar      1 RES1    0.0000
     30 H11       -4.5220    2.1953   -0.3908 H         1 RES1    0.0000
     31 C20       -2.8551    1.9687    0.7075 C.ar      1 RES1    0.0000
     32 H12       -2.3262    1.6460    0.0146 H         1 RES1    0.0000
     33 C21       -2.3165    2.1144    1.9843 C.ar      1 RES1    0.0000
     34 C22       -0.9097    1.8050    2.3066 C.ar      1 RES1    0.0000
     35 C23        1.6362    0.7121    2.9692 C.ar      1 RES1    0.0000
     36 C24       -3.1773    2.5278    3.0399 C.ar      1 RES1    0.0000
     37 C25       -0.0134    2.6649    0.1134 C.ar      1 RES1    0.0000
     38 C26       -0.2630    4.0215    0.1089 C.ar      1 RES1    0.0000
     39 H13       -0.3226    4.4747    0.9197 H         1 RES1    0.0000
     40 C27       -0.4273    4.7218   -1.0579 C.ar      1 RES1    0.0000
     41 H14       -0.5874    5.6384   -1.0399 H         1 RES1    0.0000
     42 C28       -0.3510    4.0421   -2.2752 C.ar      1 RES1    0.0000
     43 H15       -0.5007    4.4936   -3.0736 H         1 RES1    0.0000
     44 C29       -0.0531    2.6965   -2.2842 C.ar      1 RES1    0.0000
     45 H16        0.0392    2.2485   -3.0938 H         1 RES1    0.0000
     46 C30        0.1065    2.0133   -1.1073 C.ar      1 RES1    0.0000
     47 H17        0.2974    1.1037   -1.1252 H         1 RES1    0.0000
     48 C31       -1.0098    1.8654    6.1371 C.ar      1 RES1    0.0000
     49 C32        0.0889    2.6127    6.5459 C.ar      1 RES1    0.0000
     50 H18        0.5537    3.1290    5.9271 H         1 RES1    0.0000
     51 C33        0.4931    2.5918    7.8598 C.ar      1 RES1    0.0000
     52 H19        1.2305    3.0981    8.1147 H         1 RES1    0.0000
     53 C34       -0.1486    1.8623    8.7840 C.ar      1 RES1    0.0000
     54 H20        0.1581    1.8366    9.6611 H         1 RES1    0.0000
     55 C35       -1.2725    1.1448    8.4134 C.ar      1 RES1    0.0000
     56 H21       -1.7455    0.6625    9.0524 H         1 RES1    0.0000
     57 C36       -1.6954    1.1431    7.1051 C.ar      1 RES1    0.0000
     58 H22       -2.4482    0.6522    6.8648 H         1 RES1    0.0000
@<TRIPOS>BOND
     1    1    2 ar
     2    2    3 ar
     3    3    4 1
     4    5    3 ar
     5    6    5 1
     6    7    5 ar
     7    8    7 1
     8    9    7 ar
     9   10    9 ar
    10   11   10 1
    11   12   10 ar
    12   13   12 1
    13   14   12 ar
    14   15   14 1
    15   16   14 ar
    16   17   16 ar
    17   18   17 ar
    18   19   18 ar
    19   20   19 ar
    20   21   20 1
    21   22   20 ar
    22   23   22 1
    23   24   22 ar
    24   25   24 1
    25   26   24 ar
    26   27   26 ar
    27   28   27 1
    28   29   27 ar
    29   30   29 1
    30   31   29 ar
    31   32   31 1
    32   33   31 ar
    33   34    1 ar
    34   35    2 ar
    35   36   19 ar
    36   37    1 1
    37   38   37 ar
    38   39   38 1
    39   40   38 ar
    40   41   40 1
    41   42   40 ar
    42   43   42 1
    43   44   42 ar
    44   45   44 1
    45   46   37 ar
    46   47   46 1
    47   48   18 1
    48   49   48 ar
    49   50   49 1
    50   51   49 ar
    51   52   51 1
    52   53   51 ar
    53   54   53 1
    54   55   53 ar
    55   56   55 1
    56   57   48 ar
    57   58   57 1
    58    9   35 ar
    59   16   35 ar
    60   17   34 ar
    61   26   36 ar
    62   33   34 ar
    63   33   36 ar
    64   44   46 ar
    65   55   57 ar
@<TRIPOS>SUBSTRUCTURE
     1 RES1 1

@<TRIPOS>CRYSIN
  12.3370   17.1641   12.3897  90.0000 114.9890  90.0000 231 1

