# MOL2 file generated by ConQuest
# Please check atom types

@<TRIPOS>MOLECULE
KAGFUV
    56    64     1
SMALL
NO_CHARGES
****
Generated from CSD

@<TRIPOS>ATOM
      1 C1         4.8003   15.2515    4.1258 C.ar      1 RES1    0.0000
      2 C2         3.6131   16.0267    3.7938 C.ar      1 RES1    0.0000
      3 C3         3.1487   16.1313    2.4849 C.ar      1 RES1    0.0000
      4 H1         3.6093   15.7024    1.8000 H         1 RES1    0.0000
      5 C4         2.0086   16.8672    2.1858 C.ar      1 RES1    0.0000
      6 H2         1.7202   16.9306    1.3047 H         1 RES1    0.0000
      7 C5         1.3049   17.4997    3.1761 C.ar      1 RES1    0.0000
      8 H3         0.5347   17.9748    2.9605 H         1 RES1    0.0000
      9 C6         1.7298   17.4378    4.5010 C.ar      1 RES1    0.0000
     10 C7         1.0358   18.0943    5.5540 C.ar      1 RES1    0.0000
     11 H4         0.2557   18.5645    5.3652 H         1 RES1    0.0000
     12 C8         1.4888   18.0464    6.8235 C.ar      1 RES1    0.0000
     13 H5         1.0277   18.5079    7.4861 H         1 RES1    0.0000
     14 C9         2.6595   17.3030    7.1782 C.ar      1 RES1    0.0000
     15 C10        3.1521   17.2434    8.5250 C.ar      1 RES1    0.0000
     16 C11        2.6866   18.1266    9.5296 C.ar      1 RES1    0.0000
     17 H6         2.0347   18.7548    9.3140 H         1 RES1    0.0000
     18 C12        3.1689   18.0800   10.8024 C.ar      1 RES1    0.0000
     19 H7         2.8312   18.6542   11.4513 H         1 RES1    0.0000
     20 C13        4.1693   17.1696   11.1282 C.ar      1 RES1    0.0000
     21 H8         4.5172   17.1523   11.9908 H         1 RES1    0.0000
     22 C14        4.6400   16.3060   10.1938 C.ar      1 RES1    0.0000
     23 H9         5.3149   15.7118   10.4280 H         1 RES1    0.0000
     24 C15        4.1315   16.2833    8.8670 C.ar      1 RES1    0.0000
     25 C16        4.6641   15.4127    7.8426 C.ar      1 RES1    0.0000
     26 C17        5.4692   14.2319    8.1559 C.ar      1 RES1    0.0000
     27 C18        5.3565   13.5179    9.3443 C.ar      1 RES1    0.0000
     28 H10        4.6848   13.7398    9.9489 H         1 RES1    0.0000
     29 C19        6.2394   12.4687    9.6498 C.ar      1 RES1    0.0000
     30 H11        6.1371   11.9942   10.4419 H         1 RES1    0.0000
     31 C20        7.2440   12.1431    8.7917 C.ar      1 RES1    0.0000
     32 H12        7.8634   11.4941    9.0326 H         1 RES1    0.0000
     33 C21        7.3529   12.7794    7.5442 C.ar      1 RES1    0.0000
     34 C22        8.3643   12.4481    6.6214 C.ar      1 RES1    0.0000
     35 H13        8.9866   11.7914    6.8396 H         1 RES1    0.0000
     36 C23        8.4429   13.0711    5.4252 C.ar      1 RES1    0.0000
     37 H14        9.1579   12.8922    4.8582 H         1 RES1    0.0000
     38 C24        7.4567   13.9856    5.0305 C.ar      1 RES1    0.0000
     39 H15        7.5233   14.3940    4.1977 H         1 RES1    0.0000
     40 C25        6.3832   14.2965    5.8540 C.ar      1 RES1    0.0000
     41 C26        5.1955   15.0929    5.4347 C.ar      1 RES1    0.0000
     42 C27        2.9031   16.6919    4.8224 C.ar      1 RES1    0.0000
     43 C28        3.3409   16.5982    6.1705 C.ar      1 RES1    0.0000
     44 C29        4.4137   15.7037    6.5028 C.ar      1 RES1    0.0000
     45 C30        6.3954   13.7744    7.1796 C.ar      1 RES1    0.0000
     46 C31        5.5372   14.6636    2.9677 C.ar      1 RES1    0.0000
     47 C32        5.4694   13.3160    2.6679 C.ar      1 RES1    0.0000
     48 H16        4.9099   12.7601    3.1605 H         1 RES1    0.0000
     49 C33        6.2239   12.7907    1.6454 C.ar      1 RES1    0.0000
     50 H17        6.1689   11.8826    1.4535 H         1 RES1    0.0000
     51 C34        7.0596   13.5954    0.9016 C.ar      1 RES1    0.0000
     52 H18        7.5845   13.2287    0.2279 H         1 RES1    0.0000
     53 C35        7.1107   14.9392    1.1642 C.ar      1 RES1    0.0000
     54 H19        7.6628   15.4901    0.6581 H         1 RES1    0.0000
     55 C36        6.3438   15.4775    2.1782 C.ar      1 RES1    0.0000
     56 H20        6.3671   16.3944    2.3349 H         1 RES1    0.0000
@<TRIPOS>BOND
     1    1    2 ar
     2    2    3 ar
     3    3    4 1
     4    5    3 ar
     5    6    5 1
     6    7    5 ar
     7    8    7 1
     8    9    7 ar
     9   10    9 ar
    10   11   10 1
    11   12   10 ar
    12   13   12 1
    13   14   12 ar
    14   15   14 ar
    15   16   15 ar
    16   17   16 1
    17   18   16 ar
    18   19   18 1
    19   20   18 ar
    20   21   20 1
    21   22   20 ar
    22   23   22 1
    23   24   15 ar
    24   25   24 ar
    25   26   25 ar
    26   27   26 ar
    27   28   27 1
    28   29   27 ar
    29   30   29 1
    30   31   29 ar
    31   32   31 1
    32   33   31 ar
    33   34   33 ar
    34   35   34 1
    35   36   34 ar
    36   37   36 1
    37   38   36 ar
    38   39   38 1
    39   40   38 ar
    40   41    1 ar
    41   42    2 ar
    42   43   14 ar
    43   44   25 ar
    44   45   26 ar
    45   46    1 1
    46   47   46 ar
    47   48   47 1
    48   49   47 ar
    49   50   49 1
    50   51   49 ar
    51   52   51 1
    52   53   51 ar
    53   54   53 1
    54   55   46 ar
    55   56   55 1
    56    9   42 ar
    57   22   24 ar
    58   33   45 ar
    59   40   41 ar
    60   40   45 ar
    61   41   44 ar
    62   42   43 ar
    63   43   44 ar
    64   53   55 ar
@<TRIPOS>SUBSTRUCTURE
     1 RES1 1

@<TRIPOS>CRYSIN
  12.2350   15.7260   23.2560  90.0000  90.0000  90.0000  61 1

