# MOL2 file generated by ConQuest
# Please check atom types

@<TRIPOS>MOLECULE
KAQKUK
    36    40     1
SMALL
NO_CHARGES
****
Generated from CSD

@<TRIPOS>ATOM
      1 C1         4.7846    2.9947    5.3531 C.ar      1 RES1    0.0000
      2 C2         5.8583    3.5261    4.6362 C.ar      1 RES1    0.0000
      3 H1         6.5190    4.0382    5.0870 H         1 RES1    0.0000
      4 C3         5.9661    3.3139    3.2776 C.ar      1 RES1    0.0000
      5 H2         6.6952    3.6907    2.7983 H         1 RES1    0.0000
      6 C4         5.0232    2.5580    2.6068 C.ar      1 RES1    0.0000
      7 H3         5.1080    2.4056    1.6729 H         1 RES1    0.0000
      8 C5         3.9601    2.0269    3.3026 C.ar      1 RES1    0.0000
      9 H4         3.3088    1.5083    2.8447 H         1 RES1    0.0000
     10 C6         3.8318    2.2410    4.6597 C.ar      1 RES1    0.0000
     11 H5         3.0906    1.8730    5.1272 H         1 RES1    0.0000
     12 C7         4.6125    3.2462    6.8157 C.ar      1 RES1    0.0000
     13 C8         3.5759    4.0183    7.2522 C.ar      1 RES1    0.0000
     14 H6         2.9722    4.3779    6.6123 H         1 RES1    0.0000
     15 C9         3.3642    4.3080    8.6383 C.ar      1 RES1    0.0000
     16 C10        2.3201    5.1229    9.0789 C.ar      1 RES1    0.0000
     17 H7         1.7130    5.4892    8.4474 H         1 RES1    0.0000
     18 C11        2.1585    5.4049   10.4195 C.ar      1 RES1    0.0000
     19 H8         1.4500    5.9712   10.7007 H         1 RES1    0.0000
     20 C12        3.0266    4.8645   11.3619 C.ar      1 RES1    0.0000
     21 H9         2.9061    5.0691   12.2821 H         1 RES1    0.0000
     22 C13        4.0746    4.0241   10.9726 C.ar      1 RES1    0.0000
     23 C14        4.9694    3.4165   11.9155 C.ar      1 RES1    0.0000
     24 H10        4.8551    3.5841   12.8430 H         1 RES1    0.0000
     25 C15        5.9716    2.6078   11.5030 C.ar      1 RES1    0.0000
     26 H11        6.5410    2.2113   12.1516 H         1 RES1    0.0000
     27 C16        6.1996    2.3329   10.1165 C.ar      1 RES1    0.0000
     28 C17        7.2552    1.5188    9.6745 C.ar      1 RES1    0.0000
     29 H12        7.8467    1.1301   10.3093 H         1 RES1    0.0000
     30 C18        7.4421    1.2765    8.3342 C.ar      1 RES1    0.0000
     31 H13        8.1593    0.7217    8.0499 H         1 RES1    0.0000
     32 C19        6.5880    1.8387    7.3932 C.ar      1 RES1    0.0000
     33 H14        6.7300    1.6578    6.4721 H         1 RES1    0.0000
     34 C20        5.5284    2.6621    7.7674 C.ar      1 RES1    0.0000
     35 C21        5.3347    2.9126    9.1674 C.ar      1 RES1    0.0000
     36 C22        4.2557    3.7524    9.5882 C.ar      1 RES1    0.0000
@<TRIPOS>BOND
     1    1    2 ar
     2    2    3 1
     3    4    2 ar
     4    5    4 1
     5    6    4 ar
     6    7    6 1
     7    8    6 ar
     8    9    8 1
     9   10    1 ar
    10   11   10 1
    11   12    1 1
    12   13   12 ar
    13   14   13 1
    14   15   13 ar
    15   16   15 ar
    16   17   16 1
    17   18   16 ar
    18   19   18 1
    19   20   18 ar
    20   21   20 1
    21   22   20 ar
    22   23   22 ar
    23   24   23 1
    24   25   23 ar
    25   26   25 1
    26   27   25 ar
    27   28   27 ar
    28   29   28 1
    29   30   28 ar
    30   31   30 1
    31   32   30 ar
    32   33   32 1
    33   34   12 ar
    34   35   27 ar
    35   36   15 ar
    36    8   10 ar
    37   22   36 ar
    38   32   34 ar
    39   34   35 ar
    40   35   36 ar
@<TRIPOS>SUBSTRUCTURE
     1 RES1 1

@<TRIPOS>CRYSIN
   5.7390   10.2250   12.5430  82.3300  77.2700  75.3500   2 1

