# MOL2 file generated by ConQuest
# Please check atom types

@<TRIPOS>MOLECULE
KAXGAS
    31    34     1
SMALL
NO_CHARGES
****
Generated from CSD

@<TRIPOS>ATOM
      1 C1         6.5744    2.8406   11.2756 C.ar      1 RES1    0.0000
      2 H1         7.0587    3.2362   11.9644 H         1 RES1    0.0000
      3 C2         5.2799    3.2505   11.0496 C.ar      1 RES1    0.0000
      4 H2         4.9073    3.9153   11.5829 H         1 RES1    0.0000
      5 C3         4.5274    2.6815   10.0391 C.ar      1 RES1    0.0000
      6 H3         3.6567    2.9670    9.8789 H         1 RES1    0.0000
      7 C4         5.0904    1.6854    9.2738 C.ar      1 RES1    0.0000
      8 H4         4.5779    1.2929    8.6041 H         1 RES1    0.0000
      9 C5         6.3928    1.2439    9.4627 C.ar      1 RES1    0.0000
     10 C6         6.9052    0.1958    8.6687 C.ar      1 RES1    0.0000
     11 H5         6.3817   -0.1744    7.9942 H         1 RES1    0.0000
     12 C7         8.1746   -0.2804    8.8887 C.ar      1 RES1    0.0000
     13 H6         8.4871   -0.9880    8.3709 H         1 RES1    0.0000
     14 C8         9.0130    0.2682    9.8705 C.ar      1 RES1    0.0000
     15 C9         8.5550    1.3683   10.6932 C.ar      1 RES1    0.0000
     16 C10        7.1913    1.8332   10.4899 C.ar      1 RES1    0.0000
     17 C11        9.4735    1.8883   11.6152 C.ar      1 RES1    0.0000
     18 C12       10.7651    1.3224   11.7408 C.ar      1 RES1    0.0000
     19 C13       11.1618    0.2692   10.9707 C.ar      1 RES1    0.0000
     20 H7        12.0129   -0.0907   11.0711 H         1 RES1    0.0000
     21 C14       10.2860   -0.2569   10.0379 C.ar      1 RES1    0.0000
     22 H8        10.5555   -0.9768    9.5129 H         1 RES1    0.0000
     23 C15        9.3642    3.0068   12.5946 C.3       1 RES1    0.0000
     24 H9         8.7130    2.7988   13.2822 H         1 RES1    0.0000
     25 H10        9.0998    3.8276   12.1498 H         1 RES1    0.0000
     26 C16       10.7411    3.1424   13.1878 C.3       1 RES1    0.0000
     27 H11       11.1511    3.9662   12.8816 H         1 RES1    0.0000
     28 H12       10.6802    3.1730   14.1552 H         1 RES1    0.0000
     29 C17       11.5453    2.0157   12.7836 C.3       1 RES1    0.0000
     30 H13       11.7095    1.4264   13.5358 H         1 RES1    0.0000
     31 H14       12.3974    2.3145   12.4296 H         1 RES1    0.0000
@<TRIPOS>BOND
     1    1    2 1
     2    3    1 ar
     3    4    3 1
     4    5    3 ar
     5    6    5 1
     6    7    5 ar
     7    8    7 1
     8    9    7 ar
     9   10    9 ar
    10   11   10 1
    11   12   10 ar
    12   13   12 1
    13   14   12 ar
    14   15   14 ar
    15   16    1 ar
    16   17   15 ar
    17   18   17 ar
    18   19   18 ar
    19   20   19 1
    20   21   14 ar
    21   22   21 1
    22   23   17 1
    23   24   23 1
    24   25   23 1
    25   26   23 1
    26   27   26 1
    27   28   26 1
    28   29   18 1
    29   30   29 1
    30   31   29 1
    31    9   16 ar
    32   15   16 ar
    33   19   21 ar
    34   26   29 1
@<TRIPOS>SUBSTRUCTURE
     1 RES1 1

@<TRIPOS>CRYSIN
   9.4790   10.1960   12.0020  90.0000  94.8830  90.0000  14 1

