# MOL2 file generated by ConQuest
# Please check atom types

@<TRIPOS>MOLECULE
KECLAH
   136   154     1
SMALL
NO_CHARGES
****
Generated from CSD

@<TRIPOS>ATOM
      1 C1         6.9096    2.8898    6.8691 C.ar      1 RES1    0.0000
      2 H1         6.0395    2.9914    6.5006 H         1 RES1    0.0000
      3 C2         7.1707    3.3917    8.1500 C.ar      1 RES1    0.0000
      4 H2         6.4805    3.8296    8.6347 H         1 RES1    0.0000
      5 C3         8.4136    3.2553    8.7093 C.ar      1 RES1    0.0000
      6 H3         8.5980    3.6414    9.5575 H         1 RES1    0.0000
      7 C4         9.4102    2.5454    8.0307 C.ar      1 RES1    0.0000
      8 C5        10.6935    2.3303    8.6319 C.ar      1 RES1    0.0000
      9 H4        10.8721    2.6942    9.4909 H         1 RES1    0.0000
     10 C6        11.6482    1.6244    8.0031 C.ar      1 RES1    0.0000
     11 H5        12.4951    1.5160    8.4191 H         1 RES1    0.0000
     12 C7        11.4162    1.0293    6.7172 C.ar      1 RES1    0.0000
     13 C8        12.4012    0.2703    6.0778 C.ar      1 RES1    0.0000
     14 H6        13.2388    0.1262    6.5022 H         1 RES1    0.0000
     15 C9        12.1612   -0.2671    4.8371 C.ar      1 RES1    0.0000
     16 H7        12.8520   -0.7377    4.3855 H         1 RES1    0.0000
     17 C10       10.9132   -0.1274    4.2360 C.ar      1 RES1    0.0000
     18 H8        10.7734   -0.4982    3.3724 H         1 RES1    0.0000
     19 C11        9.8620    0.5425    4.8669 C.ar      1 RES1    0.0000
     20 C12       10.1393    1.1974    6.0985 C.ar      1 RES1    0.0000
     21 C13        9.1402    2.0031    6.7421 C.ar      1 RES1    0.0000
     22 C14        7.8911    2.2469    6.1204 C.ar      1 RES1    0.0000
     23 C15        7.6279    1.7185    4.7564 C.ar      1 RES1    0.0000
     24 C16        8.5037    0.6498    4.2741 C.ar      1 RES1    0.0000
     25 C17        8.0522   -0.1939    3.2678 C.ar      1 RES1    0.0000
     26 C18        8.7231   -1.4769    2.8880 C.ar      1 RES1    0.0000
     27 C19        8.7781   -2.5191    3.8097 C.ar      1 RES1    0.0000
     28 H9         8.4298   -2.3906    4.6836 H         1 RES1    0.0000
     29 C20        9.3378   -3.7475    3.4637 C.ar      1 RES1    0.0000
     30 H10        9.3879   -4.4433    4.1081 H         1 RES1    0.0000
     31 C21        9.8194   -3.9555    2.1860 C.ar      1 RES1    0.0000
     32 H11       10.1858   -4.7982    1.9454 H         1 RES1    0.0000
     33 C22        9.7659   -2.9264    1.2538 C.ar      1 RES1    0.0000
     34 H12       10.1020   -3.0641    0.3758 H         1 RES1    0.0000
     35 C23        9.2230   -1.6963    1.6053 C.ar      1 RES1    0.0000
     36 H13        9.1911   -0.9964    0.9640 H         1 RES1    0.0000
     37 C24        6.8403    0.1150    2.5522 C.ar      1 RES1    0.0000
     38 C25        6.1687    1.3689    2.8178 C.ar      1 RES1    0.0000
     39 C26        6.5696    2.1466    3.9689 C.ar      1 RES1    0.0000
     40 C27        5.8210    3.4235    4.2053 C.ar      1 RES1    0.0000
     41 C28        6.4945    4.6428    4.1491 C.ar      1 RES1    0.0000
     42 H14        7.4330    4.6528    4.0034 H         1 RES1    0.0000
     43 C29        5.8131    5.8406    4.3039 C.ar      1 RES1    0.0000
     44 H15        6.2850    6.6649    4.2571 H         1 RES1    0.0000
     45 C30        4.4508    5.8374    4.5260 C.ar      1 RES1    0.0000
     46 H16        3.9826    6.6585    4.6313 H         1 RES1    0.0000
     47 C31        3.7660    4.6299    4.5958 C.ar      1 RES1    0.0000
     48 H17        2.8311    4.6250    4.7613 H         1 RES1    0.0000
     49 C32        4.4414    3.4366    4.4242 C.ar      1 RES1    0.0000
     50 H18        3.9625    2.6172    4.4553 H         1 RES1    0.0000
     51 C33        5.0990    1.7324    2.0087 C.ar      1 RES1    0.0000
     52 H19        4.7010    2.5851    2.1373 H         1 RES1    0.0000
     53 C34        4.5777    0.8897    1.0025 C.ar      1 RES1    0.0000
     54 C35        5.2073   -0.3949    0.7878 C.ar      1 RES1    0.0000
     55 C36        6.3213   -0.7371    1.5823 C.ar      1 RES1    0.0000
     56 H20        6.7335   -1.5823    1.4492 H         1 RES1    0.0000
     57 C37        3.4710    1.2656    0.2190 C.ar      1 RES1    0.0000
     58 C38        2.7098    2.5197    0.5028 C.ar      1 RES1    0.0000
     59 C39        2.9665    3.7158   -0.1517 C.ar      1 RES1    0.0000
     60 H21        3.7017    3.7783   -0.7500 H         1 RES1    0.0000
     61 C40        2.1506    4.8254    0.0636 C.ar      1 RES1    0.0000
     62 H22        2.3305    5.6385   -0.3932 H         1 RES1    0.0000
     63 C41        1.0891    4.7495    0.9312 C.ar      1 RES1    0.0000
     64 H23        0.5351    5.5060    1.0782 H         1 RES1    0.0000
     65 C42        0.8355    3.5657    1.5868 C.ar      1 RES1    0.0000
     66 H24        0.0974    3.5046    2.1833 H         1 RES1    0.0000
     67 C43        1.6488    2.4637    1.3827 C.ar      1 RES1    0.0000
     68 H25        1.4743    1.6593    1.8551 H         1 RES1    0.0000
     69 C1B        1.2951   -2.8898   -6.8691 C.ar      1 RES1    0.0000
     70 H1B        2.1652   -2.9914   -6.5006 H         1 RES1    0.0000
     71 C2B        1.0340   -3.3917   -8.1500 C.ar      1 RES1    0.0000
     72 H2B        1.7242   -3.8296   -8.6347 H         1 RES1    0.0000
     73 C3B       -0.2089   -3.2553   -8.7093 C.ar      1 RES1    0.0000
     74 H3B       -0.3933   -3.6414   -9.5575 H         1 RES1    0.0000
     75 C4B       -1.2055   -2.5454   -8.0307 C.ar      1 RES1    0.0000
     76 C5B       -2.4888   -2.3303   -8.6319 C.ar      1 RES1    0.0000
     77 H4B       -2.6674   -2.6942   -9.4909 H         1 RES1    0.0000
     78 C6B       -3.4435   -1.6244   -8.0031 C.ar      1 RES1    0.0000
     79 H5B       -4.2904   -1.5160   -8.4191 H         1 RES1    0.0000
     80 C7B       -3.2115   -1.0293   -6.7172 C.ar      1 RES1    0.0000
     81 C8B       -4.1965   -0.2703   -6.0778 C.ar      1 RES1    0.0000
     82 H6B       -5.0341   -0.1262   -6.5022 H         1 RES1    0.0000
     83 C9B       -3.9565    0.2671   -4.8371 C.ar      1 RES1    0.0000
     84 H7B       -4.6473    0.7377   -4.3855 H         1 RES1    0.0000
     85 C10B      -2.7085    0.1274   -4.2360 C.ar      1 RES1    0.0000
     86 H8B       -2.5687    0.4982   -3.3724 H         1 RES1    0.0000
     87 C11B      -1.6573   -0.5425   -4.8669 C.ar      1 RES1    0.0000
     88 C12B      -1.9346   -1.1974   -6.0985 C.ar      1 RES1    0.0000
     89 C13B      -0.9355   -2.0031   -6.7421 C.ar      1 RES1    0.0000
     90 C14B       0.3136   -2.2469   -6.1204 C.ar      1 RES1    0.0000
     91 C15B       0.5768   -1.7185   -4.7564 C.ar      1 RES1    0.0000
     92 C16B      -0.2990   -0.6498   -4.2741 C.ar      1 RES1    0.0000
     93 C17B       0.1525    0.1939   -3.2678 C.ar      1 RES1    0.0000
     94 C18B      -0.5184    1.4769   -2.8880 C.ar      1 RES1    0.0000
     95 C19B      -0.5734    2.5191   -3.8097 C.ar      1 RES1    0.0000
     96 H9B       -0.2251    2.3906   -4.6836 H         1 RES1    0.0000
     97 C20B      -1.1331    3.7475   -3.4637 C.ar      1 RES1    0.0000
     98 H10B      -1.1832    4.4433   -4.1081 H         1 RES1    0.0000
     99 C21B      -1.6147    3.9555   -2.1860 C.ar      1 RES1    0.0000
    100 H11B      -1.9811    4.7982   -1.9454 H         1 RES1    0.0000
    101 C22B      -1.5612    2.9264   -1.2538 C.ar      1 RES1    0.0000
    102 H12B      -1.8973    3.0641   -0.3758 H         1 RES1    0.0000
    103 C23B      -1.0183    1.6963   -1.6053 C.ar      1 RES1    0.0000
    104 H13B      -0.9864    0.9964   -0.9640 H         1 RES1    0.0000
    105 C24B       1.3644   -0.1150   -2.5522 C.ar      1 RES1    0.0000
    106 C25B       2.0360   -1.3689   -2.8178 C.ar      1 RES1    0.0000
    107 C26B       1.6351   -2.1466   -3.9689 C.ar      1 RES1    0.0000
    108 C27B       2.3837   -3.4235   -4.2053 C.ar      1 RES1    0.0000
    109 C28B       1.7102   -4.6428   -4.1491 C.ar      1 RES1    0.0000
    110 H14B       0.7717   -4.6528   -4.0034 H         1 RES1    0.0000
    111 C29B       2.3916   -5.8406   -4.3039 C.ar      1 RES1    0.0000
    112 H15B       1.9197   -6.6649   -4.2571 H         1 RES1    0.0000
    113 C30B       3.7539   -5.8374   -4.5260 C.ar      1 RES1    0.0000
    114 H16B       4.2221   -6.6585   -4.6313 H         1 RES1    0.0000
    115 C31B       4.4387   -4.6299   -4.5958 C.ar      1 RES1    0.0000
    116 H17B       5.3736   -4.6250   -4.7613 H         1 RES1    0.0000
    117 C32B       3.7633   -3.4366   -4.4242 C.ar      1 RES1    0.0000
    118 H18B       4.2422   -2.6172   -4.4553 H         1 RES1    0.0000
    119 C33B       3.1057   -1.7324   -2.0087 C.ar      1 RES1    0.0000
    120 H19B       3.5037   -2.5851   -2.1373 H         1 RES1    0.0000
    121 C34B       3.6270   -0.8897   -1.0025 C.ar      1 RES1    0.0000
    122 C35B       2.9974    0.3949   -0.7878 C.ar      1 RES1    0.0000
    123 C36B       1.8834    0.7371   -1.5823 C.ar      1 RES1    0.0000
    124 H20B       1.4712    1.5823   -1.4492 H         1 RES1    0.0000
    125 C37B       4.7337   -1.2656   -0.2190 C.ar      1 RES1    0.0000
    126 C38B       5.4949   -2.5197   -0.5028 C.ar      1 RES1    0.0000
    127 C39B       5.2382   -3.7158    0.1517 C.ar      1 RES1    0.0000
    128 H21B       4.5030   -3.7783    0.7500 H         1 RES1    0.0000
    129 C40B       6.0541   -4.8254   -0.0636 C.ar      1 RES1    0.0000
    130 H22B       5.8742   -5.6385    0.3932 H         1 RES1    0.0000
    131 C41B       7.1156   -4.7495   -0.9312 C.ar      1 RES1    0.0000
    132 H23B       7.6696   -5.5060   -1.0782 H         1 RES1    0.0000
    133 C42B       7.3692   -3.5657   -1.5868 C.ar      1 RES1    0.0000
    134 H24B       8.1073   -3.5046   -2.1833 H         1 RES1    0.0000
    135 C43B       6.5559   -2.4637   -1.3827 C.ar      1 RES1    0.0000
    136 H25B       6.7304   -1.6593   -1.8551 H         1 RES1    0.0000
@<TRIPOS>BOND
     1    1    2 1
     2    3    1 ar
     3    4    3 1
     4    5    3 ar
     5    6    5 1
     6    7    5 ar
     7    8    7 ar
     8    9    8 1
     9   10    8 ar
    10   11   10 1
    11   12   10 ar
    12   13   12 ar
    13   14   13 1
    14   15   13 ar
    15   16   15 1
    16   17   15 ar
    17   18   17 1
    18   19   17 ar
    19   20   12 ar
    20   21    7 ar
    21   22    1 ar
    22   23   22 ar
    23   24   19 ar
    24   25   24 ar
    25   26   25 1
    26   27   26 ar
    27   28   27 1
    28   29   27 ar
    29   30   29 1
    30   31   29 ar
    31   32   31 1
    32   33   31 ar
    33   34   33 1
    34   35   26 ar
    35   36   35 1
    36   37   25 ar
    37   38   37 ar
    38   39   23 ar
    39   40   39 1
    40   41   40 ar
    41   42   41 1
    42   43   41 ar
    43   44   43 1
    44   45   43 ar
    45   46   45 1
    46   47   45 ar
    47   48   47 1
    48   49   40 ar
    49   50   49 1
    50   51   38 ar
    51   52   51 1
    52   53   51 ar
    53   54   53 ar
    54   55   37 ar
    55   56   55 1
    56   57   53 ar
    57   58   57 1
    58   59   58 ar
    59   60   59 1
    60   61   59 ar
    61   62   61 1
    62   63   61 ar
    63   64   63 1
    64   65   63 ar
    65   66   65 1
    66   67   58 ar
    67   68   67 1
    68   69   70 1
    69   71   69 ar
    70   72   71 1
    71   73   71 ar
    72   74   73 1
    73   75   73 ar
    74   76   75 ar
    75   77   76 1
    76   78   76 ar
    77   79   78 1
    78   80   78 ar
    79   81   80 ar
    80   82   81 1
    81   83   81 ar
    82   84   83 1
    83   85   83 ar
    84   86   85 1
    85   87   85 ar
    86   88   80 ar
    87   89   75 ar
    88   90   69 ar
    89   91   90 ar
    90   92   87 ar
    91   93   92 ar
    92   94   93 1
    93   95   94 ar
    94   96   95 1
    95   97   95 ar
    96   98   97 1
    97   99   97 ar
    98  100   99 1
    99  101   99 ar
   100  102  101 1
   101  103   94 ar
   102  104  103 1
   103  105   93 ar
   104  106  105 ar
   105  107   91 ar
   106  108  107 1
   107  109  108 ar
   108  110  109 1
   109  111  109 ar
   110  112  111 1
   111  113  111 ar
   112  114  113 1
   113  115  113 ar
   114  116  115 1
   115  117  108 ar
   116  118  117 1
   117  119  106 ar
   118  120  119 1
   119  121  119 ar
   120  122   57 ar
   121  123  105 ar
   122  124  123 1
   123  125   54 ar
   124  126  125 1
   125  127  126 ar
   126  128  127 1
   127  129  127 ar
   128  130  129 1
   129  131  129 ar
   130  132  131 1
   131  133  131 ar
   132  134  133 1
   133  135  126 ar
   134  136  135 1
   135   19   20 ar
   136   20   21 ar
   137   21   22 ar
   138   23   24 ar
   139   33   35 ar
   140   38   39 ar
   141   47   49 ar
   142   54   55 ar
   143   65   67 ar
   144   87   88 ar
   145   88   89 ar
   146   89   90 ar
   147   91   92 ar
   148  101  103 ar
   149  106  107 ar
   150  115  117 ar
   151  121  122 ar
   152  121  125 ar
   153  122  123 ar
   154  133  135 ar
@<TRIPOS>SUBSTRUCTURE
     1 RES1 1

@<TRIPOS>CRYSIN
   8.2047   21.3824   16.2708  90.0000 102.9780  90.0000 231 1

