# MOL2 file generated by ConQuest
# Please check atom types

@<TRIPOS>MOLECULE
KEFFEJ
    58    67     1
SMALL
NO_CHARGES
****
Generated from CSD

@<TRIPOS>ATOM
      1 C1        11.7233    5.8822   22.9011 C.ar      1 RES1    0.0000
      2 C2        12.7381    5.8692   23.8892 C.ar      1 RES1    0.0000
      3 H1        13.3116    6.6210   23.9731 H         1 RES1    0.0000
      4 C3        12.9136    4.7985   24.7298 C.ar      1 RES1    0.0000
      5 H2        13.6116    4.8061   25.3751 H         1 RES1    0.0000
      6 C4        12.0703    3.7124   24.6332 C.ar      1 RES1    0.0000
      7 H3        12.1778    2.9759   25.2242 H         1 RES1    0.0000
      8 C5        11.0761    3.6933   23.6867 C.ar      1 RES1    0.0000
      9 H4        10.5006    2.9392   23.6367 H         1 RES1    0.0000
     10 C6        10.8855    4.7602   22.7880 C.ar      1 RES1    0.0000
     11 C7         9.8187    4.7358   21.7729 C.ar      1 RES1    0.0000
     12 C8         8.9933    3.6260   21.5984 C.ar      1 RES1    0.0000
     13 H5         9.0952    2.8719   22.1655 H         1 RES1    0.0000
     14 C9         8.0292    3.6107   20.6069 C.ar      1 RES1    0.0000
     15 H6         7.5199    2.8230   20.4617 H         1 RES1    0.0000
     16 C10        7.7993    4.7189   19.8283 C.ar      1 RES1    0.0000
     17 H7         7.1218    4.6937   19.1634 H         1 RES1    0.0000
     18 C11        8.5524    5.8861   20.0068 C.ar      1 RES1    0.0000
     19 C12        9.6317    5.8608   20.9263 C.ar      1 RES1    0.0000
     20 C13       10.5329    6.9882   21.0018 C.ar      1 RES1    0.0000
     21 C14       11.5403    7.0340   22.0017 C.ar      1 RES1    0.0000
     22 C15       12.3368    8.1767   22.0970 C.ar      1 RES1    0.0000
     23 H8        13.0192    8.2203   22.7565 H         1 RES1    0.0000
     24 C16       12.1476    9.2375   21.2488 C.ar      1 RES1    0.0000
     25 H9        12.6627   10.0268   21.3608 H         1 RES1    0.0000
     26 C17       11.2104    9.1702   20.2300 C.ar      1 RES1    0.0000
     27 H10       11.0987    9.9136   19.6506 H         1 RES1    0.0000
     28 C18       10.4280    8.0268   20.0427 C.ar      1 RES1    0.0000
     29 C19        9.4278    7.9327   18.9767 C.ar      1 RES1    0.0000
     30 C20        8.3722    7.0501   19.1414 C.ar      1 RES1    0.0000
     31 C21        7.1529    7.2681   18.3828 C.ar      1 RES1    0.0000
     32 C22        5.9035    6.7771   18.8072 C.ar      1 RES1    0.0000
     33 H11        5.8389    6.3220   19.6381 H         1 RES1    0.0000
     34 C23        4.7760    6.9446   18.0427 C.ar      1 RES1    0.0000
     35 H12        3.9410    6.6180   18.3555 H         1 RES1    0.0000
     36 C24        4.8487    7.5870   16.8161 C.ar      1 RES1    0.0000
     37 H13        4.0750    7.6360   16.2681 H         1 RES1    0.0000
     38 C25        6.0404    8.1629   16.3725 C.ar      1 RES1    0.0000
     39 C26        7.1827    8.0719   17.2115 C.ar      1 RES1    0.0000
     40 C27        8.4058    8.7358   16.8422 C.ar      1 RES1    0.0000
     41 C28        9.5243    8.6922   17.7290 C.ar      1 RES1    0.0000
     42 C29       10.7497    9.2046   17.2722 C.ar      1 RES1    0.0000
     43 H14       11.5251    9.1212   17.8148 H         1 RES1    0.0000
     44 C30       10.8427    9.8272   16.0440 C.ar      1 RES1    0.0000
     45 H15       11.6816   10.1614   15.7494 H         1 RES1    0.0000
     46 C31        9.7345    9.9710   15.2399 C.ar      1 RES1    0.0000
     47 H16        9.8064   10.4574   14.4260 H         1 RES1    0.0000
     48 C32        8.5101    9.4149   15.6014 C.ar      1 RES1    0.0000
     49 C33        7.3454    9.4708   14.7051 C.ar      1 RES1    0.0000
     50 C34        6.1434    8.8413   15.0798 C.ar      1 RES1    0.0000
     51 C35        5.0786    8.8360   14.1701 C.ar      1 RES1    0.0000
     52 H17        4.2693    8.3970   14.4071 H         1 RES1    0.0000
     53 C36        5.1730    9.4471   12.9460 C.ar      1 RES1    0.0000
     54 H18        4.4372    9.4302   12.3449 H         1 RES1    0.0000
     55 C37        6.3502   10.0918   12.5863 C.ar      1 RES1    0.0000
     56 H19        6.4181   10.5209   11.7413 H         1 RES1    0.0000
     57 C38        7.4142   10.1079   13.4537 C.ar      1 RES1    0.0000
     58 H20        8.2122   10.5576   13.2031 H         1 RES1    0.0000
@<TRIPOS>BOND
     1    1    2 ar
     2    2    3 1
     3    4    2 ar
     4    5    4 1
     5    6    4 ar
     6    7    6 1
     7    8    6 ar
     8    9    8 1
     9   10    1 ar
    10   11   10 ar
    11   12   11 ar
    12   13   12 1
    13   14   12 ar
    14   15   14 1
    15   16   14 ar
    16   17   16 1
    17   18   16 ar
    18   19   11 ar
    19   20   19 ar
    20   21    1 ar
    21   22   21 ar
    22   23   22 1
    23   24   22 ar
    24   25   24 1
    25   26   24 ar
    26   27   26 1
    27   28   20 ar
    28   29   28 ar
    29   30   18 ar
    30   31   30 ar
    31   32   31 ar
    32   33   32 1
    33   34   32 ar
    34   35   34 1
    35   36   34 ar
    36   37   36 1
    37   38   36 ar
    38   39   31 ar
    39   40   39 ar
    40   41   29 ar
    41   42   41 ar
    42   43   42 1
    43   44   42 ar
    44   45   44 1
    45   46   44 ar
    46   47   46 1
    47   48   40 ar
    48   49   48 ar
    49   50   38 ar
    50   51   50 ar
    51   52   51 1
    52   53   51 ar
    53   54   53 1
    54   55   53 ar
    55   56   55 1
    56   57   49 ar
    57   58   57 1
    58    8   10 ar
    59   18   19 ar
    60   20   21 ar
    61   26   28 ar
    62   29   30 ar
    63   38   39 ar
    64   40   41 ar
    65   46   48 ar
    66   49   50 ar
    67   55   57 ar
@<TRIPOS>SUBSTRUCTURE
     1 RES1 1

@<TRIPOS>CRYSIN
  18.8657    7.6482   31.4360  90.0000  90.0000  90.0000  61 1

