# MOL2 file generated by ConQuest
# Please check atom types

@<TRIPOS>MOLECULE
KEKULN10
    72    84     1
SMALL
NO_CHARGES
****
Generated from CSD

@<TRIPOS>ATOM
      1 C1         2.7216    4.9897    5.8507 C.ar      1 RES1    0.0000
      2 C2         1.4600    4.5213    5.7782 C.ar      1 RES1    0.0000
      3 C3         0.9561    3.5441    6.7093 C.ar      1 RES1    0.0000
      4 C4        -0.3398    3.0244    6.6681 C.ar      1 RES1    0.0000
      5 C5        -0.8064    2.0738    7.5800 C.ar      1 RES1    0.0000
      6 C6        -2.1518    1.5514    7.5411 C.ar      1 RES1    0.0000
      7 C7        -2.5762    0.6443    8.4485 C.ar      1 RES1    0.0000
      8 C8        -1.7268    0.1438    9.5014 C.ar      1 RES1    0.0000
      9 C9        -2.1520   -0.7903   10.4453 C.ar      1 RES1    0.0000
     10 C10       -1.2915   -1.2661   11.4347 C.ar      1 RES1    0.0000
     11 C11       -1.7119   -2.2208   12.4248 C.ar      1 RES1    0.0000
     12 C12       -0.8782   -2.6897   13.3736 C.ar      1 RES1    0.0000
     13 C13        0.5037   -2.2639   13.4603 C.ar      1 RES1    0.0000
     14 C14        1.4007   -2.7108   14.4261 C.ar      1 RES1    0.0000
     15 C15        3.6367    4.5382    6.8651 C.ar      1 RES1    0.0000
     16 C16        3.1874    3.5959    7.8224 C.ar      1 RES1    0.0000
     17 C17        1.8266    3.0862    7.7351 C.ar      1 RES1    0.0000
     18 C18        1.3515    2.1430    8.6309 C.ar      1 RES1    0.0000
     19 C19        0.0729    1.6132    8.5929 C.ar      1 RES1    0.0000
     20 C20       -0.3933    0.6259    9.5516 C.ar      1 RES1    0.0000
     21 C21        0.4470    0.1314   10.5303 C.ar      1 RES1    0.0000
     22 C22        0.0518   -0.8073   11.4749 C.ar      1 RES1    0.0000
     23 C23        0.9530   -1.3275   12.5000 C.ar      1 RES1    0.0000
     24 C24        4.0832    3.1751    8.7961 C.ar      1 RES1    0.0000
     25 H1         3.0426    5.7146    5.1885 H         1 RES1    0.0000
     26 H2         0.8398    4.8492    5.0795 H         1 RES1    0.0000
     27 H3        -0.9572    3.3793    5.9874 H         1 RES1    0.0000
     28 H4        -2.7854    1.8820    6.8418 H         1 RES1    0.0000
     29 H5        -3.5061    0.3205    8.4225 H         1 RES1    0.0000
     30 H6        -3.1152   -1.1402   10.4133 H         1 RES1    0.0000
     31 H7        -2.6619   -2.5276   12.3934 H         1 RES1    0.0000
     32 H8        -1.1594   -3.3244   14.0809 H         1 RES1    0.0000
     33 H9         1.0695   -3.3793   15.0955 H         1 RES1    0.0000
     34 H10        1.9479    1.8179    9.3367 H         1 RES1    0.0000
     35 H11        1.4115    0.4304   10.5500 H         1 RES1    0.0000
     36 H12        3.7495    2.5185    9.4734 H         1 RES1    0.0000
     37 C15E       2.7159   -2.2487   14.4955 C.ar      1 RES1    0.0000
     38 C14E       4.9519    5.0003    6.9345 C.ar      1 RES1    0.0000
     39 C24E       2.2693   -0.8856   12.5645 C.ar      1 RES1    0.0000
     40 C23E       5.3996    3.6170    8.8606 C.ar      1 RES1    0.0000
     41 C1E        3.6309   -2.7002   15.5099 C.ar      1 RES1    0.0000
     42 C16E       3.1651   -1.3064   13.5381 C.ar      1 RES1    0.0000
     43 C13E       5.8488    4.5534    7.9002 C.ar      1 RES1    0.0000
     44 H9E        5.2830    5.6688    6.2650 H         1 RES1    0.0000
     45 H12E       2.6030   -0.2289   11.8871 H         1 RES1    0.0000
     46 C22E       6.3008    3.0968    9.8857 C.ar      1 RES1    0.0000
     47 C2E        4.8925   -2.2318   15.5823 C.ar      1 RES1    0.0000
     48 H1E        3.3099   -3.4251   16.1721 H         1 RES1    0.0000
     49 C17E       4.5259   -0.7967   13.6255 C.ar      1 RES1    0.0000
     50 C12E       7.2308    4.9792    7.9869 C.ar      1 RES1    0.0000
     51 C10E       7.6440    3.5556    9.9258 C.ar      1 RES1    0.0000
     52 C21E       5.9056    2.1581   10.8302 C.ar      1 RES1    0.0000
     53 C3E        5.3964   -1.2546   14.6512 C.ar      1 RES1    0.0000
     54 H2E        5.5127   -2.5597   16.2810 H         1 RES1    0.0000
     55 C18E       5.0010    0.1465   12.7296 C.ar      1 RES1    0.0000
     56 C11E       8.0644    4.5103    8.9358 C.ar      1 RES1    0.0000
     57 H8E        7.5120    5.6139    7.2797 H         1 RES1    0.0000
     58 C9E        8.5046    3.0798   10.9152 C.ar      1 RES1    0.0000
     59 C20E       6.7459    1.6636   11.8090 C.ar      1 RES1    0.0000
     60 H11E       4.9410    1.8591   10.8106 H         1 RES1    0.0000
     61 C4E        6.6923   -0.7349   14.6924 C.ar      1 RES1    0.0000
     62 C19E       6.2797    0.6763   12.7676 C.ar      1 RES1    0.0000
     63 H10E       4.4046    0.4716   12.0239 H         1 RES1    0.0000
     64 H7E        9.0145    4.8171    8.9672 H         1 RES1    0.0000
     65 C8E        8.0794    2.1457   11.8592 C.ar      1 RES1    0.0000
     66 H6E        9.4678    3.4297   10.9473 H         1 RES1    0.0000
     67 C5E        7.1589    0.2157   13.7805 C.ar      1 RES1    0.0000
     68 H3E        7.3097   -1.0898   15.3732 H         1 RES1    0.0000
     69 C7E        8.9287    1.6452   12.9120 C.ar      1 RES1    0.0000
     70 C6E        8.5043    0.7381   13.8194 C.ar      1 RES1    0.0000
     71 H5E        9.8586    1.9690   12.9381 H         1 RES1    0.0000
     72 H4E        9.1380    0.4075   14.5188 H         1 RES1    0.0000
@<TRIPOS>BOND
     1    1    2 ar
     2    2    3 ar
     3    3    4 ar
     4    4    5 ar
     5    5    6 ar
     6    6    7 ar
     7    7    8 ar
     8    8    9 ar
     9    9   10 ar
    10   10   11 ar
    11   11   12 ar
    12   12   13 ar
    13   13   14 ar
    14   14   33 1
    15   15    1 ar
    16   16   15 ar
    17   17    3 ar
    18   18   17 ar
    19   19    5 ar
    20   20    8 ar
    21   21   20 ar
    22   22   10 ar
    23   23   13 ar
    24   24   16 ar
    25   25    1 1
    26   26    2 1
    27   27    4 1
    28   28    6 1
    29   29    7 1
    30   30    9 1
    31   31   11 1
    32   32   12 1
    33   34   18 1
    34   35   21 1
    35   36   24 1
    36   37   14 ar
    37   38   15 ar
    38   39   23 ar
    39   40   24 ar
    40   41   37 ar
    41   42   37 ar
    42   43   38 ar
    43   44   38 1
    44   45   39 1
    45   46   40 ar
    46   47   41 ar
    47   48   41 1
    48   49   42 ar
    49   50   43 ar
    50   51   46 ar
    51   52   46 ar
    52   53   47 ar
    53   54   47 1
    54   55   49 ar
    55   56   50 ar
    56   57   50 1
    57   58   51 ar
    58   59   52 ar
    59   60   52 1
    60   61   53 ar
    61   62   55 ar
    62   63   55 1
    63   64   56 1
    64   65   58 ar
    65   66   58 1
    66   67   61 ar
    67   68   61 1
    68   69   65 ar
    69   70   67 ar
    70   71   69 1
    71   72   70 1
    72   16   17 ar
    73   18   19 ar
    74   19   20 ar
    75   21   22 ar
    76   22   23 ar
    77   39   42 ar
    78   40   43 ar
    79   49   53 ar
    80   51   56 ar
    81   59   62 ar
    82   59   65 ar
    83   62   67 ar
    84   69   70 ar
@<TRIPOS>SUBSTRUCTURE
     1 RES1 1

@<TRIPOS>CRYSIN
  27.9510    4.5790   22.6800  90.0000 109.6400  90.0000  15 1

