# MOL2 file generated by ConQuest
# Please check atom types

@<TRIPOS>MOLECULE
KEPPOK
    58    61     1
SMALL
NO_CHARGES
****
Generated from CSD

@<TRIPOS>ATOM
      1 C1        16.1884    2.3023   -1.6548 C.ar      1 RES1    0.0000
      2 C2        16.9216    2.2377   -2.8142 C.ar      1 RES1    0.0000
      3 C3        16.8972    3.3374   -3.6402 C.ar      1 RES1    0.0000
      4 C4        16.1508    4.4028   -3.3644 C.ar      1 RES1    0.0000
      5 C5        15.3889    4.4788   -2.1861 C.ar      1 RES1    0.0000
      6 C6        14.5922    5.6142   -1.8396 C.ar      1 RES1    0.0000
      7 C7        13.8424    5.6754   -0.7451 C.ar      1 RES1    0.0000
      8 C8        13.8343    4.5777    0.1877 C.ar      1 RES1    0.0000
      9 C9        14.6136    3.4417   -0.0679 C.ar      1 RES1    0.0000
     10 C10       15.4092    3.3751   -1.3068 C.ar      1 RES1    0.0000
     11 C11       14.6168    2.3951    0.8635 C.ar      1 RES1    0.0000
     12 C12       13.8202    2.4456    1.9984 C.ar      1 RES1    0.0000
     13 C13       13.0163    3.5547    2.2179 C.ar      1 RES1    0.0000
     14 C14       13.0156    4.5844    1.3414 C.ar      1 RES1    0.0000
     15 C15       12.1077    5.7238    1.8251 C.3       1 RES1    0.0000
     16 C16       11.4626    5.1353    3.0626 C.3       1 RES1    0.0000
     17 C17       12.0920    3.7719    3.3860 C.3       1 RES1    0.0000
     18 C18       12.9032    3.8069    4.6827 C.3       1 RES1    0.0000
     19 C19       11.0267    2.6157    3.4611 C.3       1 RES1    0.0000
     20 C20       10.3448    2.3763    2.1183 C.3       1 RES1    0.0000
     21 C21        9.9815    2.8438    4.5672 C.3       1 RES1    0.0000
     22 C22        9.1227    1.6237    4.8401 C.3       1 RES1    0.0000
     23 C23        8.1445    1.7696    5.9967 C.3       1 RES1    0.0000
     24 C24        7.2273    0.6343    6.1844 C.3       1 RES1    0.0000
     25 C25        7.9116   -0.6625    6.4732 C.3       1 RES1    0.0000
     26 C26        6.0886    1.0203    7.1273 C.3       1 RES1    0.0000
     27 H1        16.2337    1.5268   -1.0252 H         1 RES1    0.0000
     28 H2        17.4441    1.4259   -3.0467 H         1 RES1    0.0000
     29 H3        17.4575    3.3361   -4.4762 H         1 RES1    0.0000
     30 H4        16.1433    5.1656   -4.0142 H         1 RES1    0.0000
     31 H5        14.6115    6.4032   -2.4547 H         1 RES1    0.0000
     32 H6        13.2838    6.4839   -0.5631 H         1 RES1    0.0000
     33 H7        15.2120    1.6008    0.7075 H         1 RES1    0.0000
     34 H8        13.8333    1.6882    2.6569 H         1 RES1    0.0000
     35 H9        11.4257    5.9525    1.1407 H         1 RES1    0.0000
     36 H10       12.6448    6.5377    2.0504 H         1 RES1    0.0000
     37 H11       11.5943    5.7507    3.8409 H         1 RES1    0.0000
     38 H12       10.4890    5.0176    2.9023 H         1 RES1    0.0000
     39 H13       12.2881    3.9482    5.4581 H         1 RES1    0.0000
     40 H14       13.5564    4.5535    4.6351 H         1 RES1    0.0000
     41 H15       13.3813    2.9393    4.8083 H         1 RES1    0.0000
     42 H16       11.5449    1.7891    3.6965 H         1 RES1    0.0000
     43 H17       11.0397    2.2330    1.4151 H         1 RES1    0.0000
     44 H18        9.7918    3.1747    1.8771 H         1 RES1    0.0000
     45 H19        9.7561    1.5672    2.1804 H         1 RES1    0.0000
     46 H20        9.3755    3.5984    4.2885 H         1 RES1    0.0000
     47 H21       10.4587    3.0872    5.4148 H         1 RES1    0.0000
     48 H22        8.5900    1.4192    4.0142 H         1 RES1    0.0000
     49 H23        9.7275    0.8542    5.0538 H         1 RES1    0.0000
     50 H24        7.6023    2.5895    5.8335 H         1 RES1    0.0000
     51 H25        8.6770    1.8833    6.8443 H         1 RES1    0.0000
     52 H26        6.8031    0.4305    5.2993 H         1 RES1    0.0000
     53 H27        7.2266   -1.3788    6.5844 H         1 RES1    0.0000
     54 H28        8.4458   -0.5784    7.3063 H         1 RES1    0.0000
     55 H29        8.5221   -0.9013    5.7180 H         1 RES1    0.0000
     56 H30        5.4687    0.2421    7.2486 H         1 RES1    0.0000
     57 H31        5.5740    1.7824    6.7288 H         1 RES1    0.0000
     58 H32        6.4617    1.2914    8.0139 H         1 RES1    0.0000
@<TRIPOS>BOND
     1    1    2 ar
     2    2    3 ar
     3    3    4 ar
     4    4    5 ar
     5    5    6 ar
     6    6    7 ar
     7    7    8 ar
     8    8    9 ar
     9    9   10 ar
    10   10    1 ar
    11   11    9 ar
    12   12   11 ar
    13   13   12 ar
    14   14    8 ar
    15   15   14 1
    16   16   15 1
    17   17   13 1
    18   18   17 1
    19   19   17 1
    20   20   19 1
    21   21   19 1
    22   22   21 1
    23   23   22 1
    24   24   23 1
    25   25   24 1
    26   26   24 1
    27   27    1 1
    28   28    2 1
    29   29    3 1
    30   30    4 1
    31   31    6 1
    32   32    7 1
    33   33   11 1
    34   34   12 1
    35   35   15 1
    36   36   15 1
    37   37   16 1
    38   38   16 1
    39   39   18 1
    40   40   18 1
    41   41   18 1
    42   42   19 1
    43   43   20 1
    44   44   20 1
    45   45   20 1
    46   46   21 1
    47   47   21 1
    48   48   22 1
    49   49   22 1
    50   50   23 1
    51   51   23 1
    52   52   24 1
    53   53   25 1
    54   54   25 1
    55   55   25 1
    56   56   26 1
    57   57   26 1
    58   58   26 1
    59    5   10 ar
    60   13   14 ar
    61   16   17 1
@<TRIPOS>SUBSTRUCTURE
     1 RES1 1

@<TRIPOS>CRYSIN
  22.1030    6.7260   14.5390  90.0000  96.7100  90.0000   5 1

