# MOL2 file generated by ConQuest
# Please check atom types

@<TRIPOS>MOLECULE
KEQKUN
    59    66     1
SMALL
NO_CHARGES
****
Generated from CSD

@<TRIPOS>ATOM
      1 C1        10.8405    8.1843    1.3960 C.ar      1 RES1    0.0000
      2 C2        10.0650    7.5955    2.4066 C.ar      1 RES1    0.0000
      3 C3        10.0360    6.1486    2.1786 C.ar      1 RES1    0.0000
      4 C4         9.4307    5.1172    2.8918 C.ar      1 RES1    0.0000
      5 H1         8.9153    5.3017    3.6431 H         1 RES1    0.0000
      6 C5         9.6089    3.8145    2.4633 C.ar      1 RES1    0.0000
      7 H2         9.2051    3.1238    2.9366 H         1 RES1    0.0000
      8 C6        10.3771    3.5089    1.3401 C.ar      1 RES1    0.0000
      9 C7        10.9635    4.5517    0.6194 C.ar      1 RES1    0.0000
     10 H3        11.4682    4.3667   -0.1401 H         1 RES1    0.0000
     11 C8        10.7945    5.8566    1.0338 C.ar      1 RES1    0.0000
     12 C9        11.3167    7.1307    0.4658 C.3       1 RES1    0.0000
     13 C10       11.4161    7.3706   -1.0330 C.3       1 RES1    0.0000
     14 H4        11.1662    6.6430   -1.6241 H         1 RES1    0.0000
     15 H5        11.2009    8.2559   -1.3639 H         1 RES1    0.0000
     16 C11       12.6520    7.2153   -0.2363 C.3       1 RES1    0.0000
     17 H6        13.1915    8.0062   -0.0842 H         1 RES1    0.0000
     18 H7        13.1568    6.3933   -0.3443 H         1 RES1    0.0000
     19 C12       11.0728    9.5433    1.3945 C.ar      1 RES1    0.0000
     20 H8        11.5879    9.9253    0.7215 H         1 RES1    0.0000
     21 C13       10.5381   10.3469    2.3984 C.ar      1 RES1    0.0000
     22 C14        9.7431    9.7531    3.3882 C.ar      1 RES1    0.0000
     23 H9         9.3665   10.2862    4.0508 H         1 RES1    0.0000
     24 C15        9.5059    8.3893    3.3994 C.ar      1 RES1    0.0000
     25 H10        8.9777    8.0099    4.0635 H         1 RES1    0.0000
     26 C16       10.7403   11.8218    2.3813 C.ar      1 RES1    0.0000
     27 C17        9.6553   12.6547    2.4782 C.ar      1 RES1    0.0000
     28 H11        8.8129   12.2873    2.6228 H         1 RES1    0.0000
     29 C18        9.7820   14.0476    2.3642 C.ar      1 RES1    0.0000
     30 H12        9.0298   14.5909    2.4357 H         1 RES1    0.0000
     31 C19       10.9975   14.6004    2.1495 C.ar      1 RES1    0.0000
     32 H13       11.0673   15.5222    2.0414 H         1 RES1    0.0000
     33 C20       12.1657   13.8029    2.0862 C.ar      1 RES1    0.0000
     34 C21       13.4562   14.3642    1.9199 C.ar      1 RES1    0.0000
     35 H14       13.5386   15.2817    1.7880 H         1 RES1    0.0000
     36 C22       14.5662   13.5993    1.9475 C.ar      1 RES1    0.0000
     37 H15       15.4026   13.9913    1.8372 H         1 RES1    0.0000
     38 C23       14.4661   12.2215    2.1413 C.ar      1 RES1    0.0000
     39 H16       15.2342   11.7005    2.1868 H         1 RES1    0.0000
     40 C24       13.2396   11.6419    2.2643 C.ar      1 RES1    0.0000
     41 H17       13.1863   10.7199    2.3746 H         1 RES1    0.0000
     42 C25       12.0480   12.3968    2.2285 C.ar      1 RES1    0.0000
     43 C26       10.5343    2.0922    0.9085 C.ar      1 RES1    0.0000
     44 C27        9.4293    1.3381    0.6477 C.ar      1 RES1    0.0000
     45 H18        8.5890    1.7150    0.7722 H         1 RES1    0.0000
     46 C28        9.5156    0.0175    0.1983 C.ar      1 RES1    0.0000
     47 H19        8.7417   -0.4647    0.0201 H         1 RES1    0.0000
     48 C29       10.7231   -0.5551    0.0246 C.ar      1 RES1    0.0000
     49 H20       10.7740   -1.4343   -0.2765 H         1 RES1    0.0000
     50 C30       11.9052    0.1549    0.2922 C.ar      1 RES1    0.0000
     51 C31       13.1775   -0.4215    0.1163 C.ar      1 RES1    0.0000
     52 H21       13.2401   -1.2922   -0.2065 H         1 RES1    0.0000
     53 C32       14.3003    0.2517    0.4025 C.ar      1 RES1    0.0000
     54 H22       15.1266   -0.1531    0.2691 H         1 RES1    0.0000
     55 C33       14.2396    1.5553    0.8989 C.ar      1 RES1    0.0000
     56 H23       15.0242    2.0066    1.1135 H         1 RES1    0.0000
     57 C34       13.0315    2.1717    1.0703 C.ar      1 RES1    0.0000
     58 H24       13.0024    3.0436    1.3945 H         1 RES1    0.0000
     59 C35       11.8238    1.4996    0.7602 C.ar      1 RES1    0.0000
@<TRIPOS>BOND
     1    1    2 ar
     2    2    3 1
     3    3    4 ar
     4    4    5 1
     5    6    4 ar
     6    7    6 1
     7    8    6 ar
     8    9    8 ar
     9   10    9 1
    10   11    3 ar
    11   12    1 1
    12   13   12 1
    13   14   13 1
    14   15   13 1
    15   16   12 1
    16   17   16 1
    17   18   16 1
    18   19    1 ar
    19   20   19 1
    20   21   19 ar
    21   22   21 ar
    22   23   22 1
    23   24    2 ar
    24   25   24 1
    25   26   21 1
    26   27   26 ar
    27   28   27 1
    28   29   27 ar
    29   30   29 1
    30   31   29 ar
    31   32   31 1
    32   33   31 ar
    33   34   33 ar
    34   35   34 1
    35   36   34 ar
    36   37   36 1
    37   38   36 ar
    38   39   38 1
    39   40   38 ar
    40   41   40 1
    41   42   26 ar
    42   43    8 1
    43   44   43 ar
    44   45   44 1
    45   46   44 ar
    46   47   46 1
    47   48   46 ar
    48   49   48 1
    49   50   48 ar
    50   51   50 ar
    51   52   51 1
    52   53   51 ar
    53   54   53 1
    54   55   53 ar
    55   56   55 1
    56   57   55 ar
    57   58   57 1
    58   59   43 ar
    59    9   11 ar
    60   11   12 1
    61   13   16 1
    62   22   24 ar
    63   33   42 ar
    64   40   42 ar
    65   50   59 ar
    66   57   59 ar
@<TRIPOS>SUBSTRUCTURE
     1 RES1 1

@<TRIPOS>CRYSIN
  17.3550   18.2250    7.4532  90.0000  90.0000  90.0000  29 1

