# MOL2 file generated by ConQuest
# Please check atom types

@<TRIPOS>MOLECULE
KICGAH
    52    61     1
SMALL
NO_CHARGES
****
Generated from CSD

@<TRIPOS>ATOM
      1 C1        14.3039    6.6304    5.7421 C.ar      1 RES1    0.0000
      2 C2        16.3413    5.8166    4.6857 C.ar      1 RES1    0.0000
      3 C3        13.1802    7.4526    5.5377 C.ar      1 RES1    0.0000
      4 C4        14.4671    8.8406    4.0033 C.ar      1 RES1    0.0000
      5 H1        14.5489    9.6017    3.4752 H         1 RES1    0.0000
      6 C5        14.6461    4.2166    5.4906 C.ar      1 RES1    0.0000
      7 C6        13.1802    8.4971    4.5965 C.ar      1 RES1    0.0000
      8 C7        13.8969    5.2916    5.9555 C.ar      1 RES1    0.0000
      9 C8        17.3367    6.5064    3.8159 C.ar      1 RES1    0.0000
     10 C9        16.8593    7.8267    3.5303 C.ar      1 RES1    0.0000
     11 C10       15.4401    6.8665    5.0435 C.ar      1 RES1    0.0000
     12 C11       15.9673    4.4962    4.8967 C.ar      1 RES1    0.0000
     13 C12       15.5695    8.0295    4.2305 C.ar      1 RES1    0.0000
     14 C13       13.8690    3.0101    5.3324 C.ar      1 RES1    0.0000
     15 H2        14.3160    2.2013    5.2260 H         1 RES1    0.0000
     16 C14       17.5800    8.6739    2.7003 C.ar      1 RES1    0.0000
     17 H3        17.2577    9.5230    2.5014 H         1 RES1    0.0000
     18 C15       18.7907    8.2387    2.1696 C.ar      1 RES1    0.0000
     19 H4        19.2787    8.7990    1.6101 H         1 RES1    0.0000
     20 C16       19.2734    6.9730    2.4698 C.ar      1 RES1    0.0000
     21 H5        20.0944    6.7045    2.1253 H         1 RES1    0.0000
     22 C17       16.7597    3.3527    4.3271 C.3       1 RES1    0.0000
     23 H6        17.6961    3.5607    4.3671 H         1 RES1    0.0000
     24 H7        16.5028    3.2091    3.4131 H         1 RES1    0.0000
     25 H8        16.5864    2.5578    4.8366 H         1 RES1    0.0000
     26 C18       18.5522    6.0943    3.2780 C.ar      1 RES1    0.0000
     27 H9        18.8800    5.2428    3.4559 H         1 RES1    0.0000
     28 C1C       12.0565    6.6304    5.7421 C.ar      1 RES1    0.0000
     29 C2C       10.0191    5.8166    4.6857 C.ar      1 RES1    0.0000
     30 C4C       11.8933    8.8406    4.0033 C.ar      1 RES1    0.0000
     31 H1C       11.8115    9.6017    3.4752 H         1 RES1    0.0000
     32 C5C       11.7143    4.2166    5.4906 C.ar      1 RES1    0.0000
     33 C7C       12.4635    5.2916    5.9555 C.ar      1 RES1    0.0000
     34 C8C        9.0237    6.5064    3.8159 C.ar      1 RES1    0.0000
     35 C9C        9.5011    7.8267    3.5303 C.ar      1 RES1    0.0000
     36 C10C      10.9203    6.8665    5.0435 C.ar      1 RES1    0.0000
     37 C11C      10.3931    4.4962    4.8967 C.ar      1 RES1    0.0000
     38 C12C      10.7909    8.0295    4.2305 C.ar      1 RES1    0.0000
     39 C13C      12.4914    3.0101    5.3324 C.ar      1 RES1    0.0000
     40 H2C       12.0444    2.2013    5.2260 H         1 RES1    0.0000
     41 C14C       8.7804    8.6739    2.7003 C.ar      1 RES1    0.0000
     42 H3C        9.1027    9.5230    2.5014 H         1 RES1    0.0000
     43 C15C       7.5697    8.2387    2.1696 C.ar      1 RES1    0.0000
     44 H4C        7.0817    8.7990    1.6101 H         1 RES1    0.0000
     45 C16C       7.0870    6.9730    2.4698 C.ar      1 RES1    0.0000
     46 H5C        6.2660    6.7045    2.1253 H         1 RES1    0.0000
     47 C17C       9.6007    3.3527    4.3271 C.3       1 RES1    0.0000
     48 H6C        8.6643    3.5607    4.3671 H         1 RES1    0.0000
     49 H7C        9.8576    3.2091    3.4131 H         1 RES1    0.0000
     50 H8C        9.7740    2.5578    4.8366 H         1 RES1    0.0000
     51 C18C       7.8082    6.0943    3.2780 C.ar      1 RES1    0.0000
     52 H9C        7.4804    5.2428    3.4559 H         1 RES1    0.0000
@<TRIPOS>BOND
     1    1    3 ar
     2    2    9 1
     3    3    7 ar
     4    4    5 1
     5    6    8 ar
     6    7    4 ar
     7    8    1 ar
     8    9   10 ar
     9   10   13 1
    10   11    1 ar
    11   12    2 ar
    12   13    4 ar
    13   14    6 ar
    14   15   14 1
    15   16   10 ar
    16   17   16 1
    17   18   16 ar
    18   19   18 1
    19   20   18 ar
    20   21   20 1
    21   22   12 1
    22   23   22 1
    23   24   22 1
    24   25   22 1
    25   26    9 ar
    26   27   26 1
    27   28    3 ar
    28   29   34 1
    29   30    7 ar
    30   31   30 1
    31   32   33 ar
    32   33    8 ar
    33   34   35 ar
    34   35   38 1
    35   36   28 ar
    36   37   29 ar
    37   38   30 ar
    38   39   14 ar
    39   40   39 1
    40   41   35 ar
    41   42   41 1
    42   43   41 ar
    43   44   43 1
    44   45   43 ar
    45   46   45 1
    46   47   37 1
    47   48   47 1
    48   49   47 1
    49   50   47 1
    50   51   34 ar
    51   52   51 1
    52    2   11 ar
    53    6   12 ar
    54   11   13 ar
    55   20   26 ar
    56   28   33 ar
    57   29   36 ar
    58   32   37 ar
    59   32   39 ar
    60   36   38 ar
    61   45   51 ar
@<TRIPOS>SUBSTRUCTURE
     1 RES1 1

@<TRIPOS>CRYSIN
  26.3604    9.2591    8.1138  90.0000  90.0000  90.0000  36 1

