# MOL2 file generated by ConQuest
# Please check atom types

@<TRIPOS>MOLECULE
KIMLEZ
   110   117     1
SMALL
NO_CHARGES
****
Generated from CSD

@<TRIPOS>ATOM
      1 C1        -0.4583    2.5189    8.4361 C.ar      1 RES1    0.0000
      2 C2        -0.7521    2.4703    7.0822 C.ar      1 RES1    0.0000
      3 H1        -0.3816    3.1365    6.5144 H         1 RES1    0.0000
      4 C3        -1.5658    1.4896    6.5144 C.ar      1 RES1    0.0000
      5 C4        -2.0927    0.4752    7.3684 C.ar      1 RES1    0.0000
      6 C5        -1.8235    0.5045    8.7314 C.ar      1 RES1    0.0000
      7 C6        -1.0055    1.5336    9.3010 C.ar      1 RES1    0.0000
      8 C7        -0.7760    1.5305   10.6898 C.ar      1 RES1    0.0000
      9 H2        -0.2448    2.2233   11.0658 H         1 RES1    0.0000
     10 C8        -2.9043   -0.5814    6.8336 C.ar      1 RES1    0.0000
     11 H3        -3.0875   -0.6146    5.9026 H         1 RES1    0.0000
     12 C9         0.3844    3.5753    8.9717 C.1       1 RES1    0.0000
     13 C10        1.0290    4.3732    9.4239 C.1       1 RES1    0.0000
     14 C11        1.9253    5.4000   10.0128 C.ar      1 RES1    0.0000
     15 C12        2.5340    6.3545    9.1992 C.ar      1 RES1    0.0000
     16 H4         2.3561    6.3762    8.2664 H         1 RES1    0.0000
     17 C13        3.4032    7.2703    9.7707 C.ar      1 RES1    0.0000
     18 H5         3.8061    7.9246    9.2130 H         1 RES1    0.0000
     19 C14        3.7013    7.2687   11.0943 C.ar      1 RES1    0.0000
     20 C15        3.0739    6.3445   11.8996 C.ar      1 RES1    0.0000
     21 H6         3.2516    6.3397   12.8334 H         1 RES1    0.0000
     22 C16        2.1921    5.4254   11.3704 C.ar      1 RES1    0.0000
     23 H7         1.7633    4.8024   11.9446 H         1 RES1    0.0000
     24 C17        4.7355    8.2565   11.6731 C.3       1 RES1    0.0000
     25 H8         5.0241    7.9421   12.5665 H         1 RES1    0.0000
     26 H9         5.5316    8.2772   11.0851 H         1 RES1    0.0000
     27 C18        4.1868    9.6080   11.7905 C.3       1 RES1    0.0000
     28 H10        3.5648    9.6493   12.5591 H         1 RES1    0.0000
     29 H11        3.6794    9.8335   10.9704 H         1 RES1    0.0000
     30 C19        5.3451   10.6403   11.9932 C.3       1 RES1    0.0000
     31 H12        5.9718   10.3004   12.6646 H         1 RES1    0.0000
     32 H13        4.9704   11.4931   12.2977 H         1 RES1    0.0000
     33 H14        5.8158   10.7737   11.1447 H         1 RES1    0.0000
     34 C20       -1.8892    1.5384    5.1220 C.1       1 RES1    0.0000
     35 C21       -2.2058    1.6051    3.9827 C.1       1 RES1    0.0000
     36 C22       -2.5540    1.6989    2.6004 C.ar      1 RES1    0.0000
     37 C23       -2.0615    2.7257    1.8052 C.ar      1 RES1    0.0000
     38 H15       -1.5091    3.3938    2.1950 H         1 RES1    0.0000
     39 C24       -2.3567    2.7941    0.4623 C.ar      1 RES1    0.0000
     40 H16       -2.0066    3.5129   -0.0514 H         1 RES1    0.0000
     41 C25       -3.1538    1.8406   -0.1605 C.ar      1 RES1    0.0000
     42 C26       -3.6572    0.8258    0.6375 C.ar      1 RES1    0.0000
     43 H17       -4.2212    0.1683    0.2467 H         1 RES1    0.0000
     44 C27       -3.3670    0.7453    1.9703 C.ar      1 RES1    0.0000
     45 H18       -3.7224    0.0270    2.4812 H         1 RES1    0.0000
     46 C28       -3.4021    1.8803   -1.6960 C.3       1 RES1    0.0000
     47 H19       -2.5368    1.9835   -2.1675 H         1 RES1    0.0000
     48 H20       -3.8090    1.0259   -1.9868 H         1 RES1    0.0000
     49 C29       -4.2750    2.9745   -2.0510 C.3       1 RES1    0.0000
     50 H21       -3.8702    3.8353   -1.7767 H         1 RES1    0.0000
     51 H22       -5.1465    2.8776   -1.5914 H         1 RES1    0.0000
     52 C30       -4.4800    2.9459   -3.6149 C.3       1 RES1    0.0000
     53 H23       -3.6298    2.7315   -4.0525 H         1 RES1    0.0000
     54 H24       -4.7909    3.8241   -3.9195 H         1 RES1    0.0000
     55 H25       -5.1471    2.2662   -3.8442 H         1 RES1    0.0000
     56 C1B       -3.7261   -2.5189    9.9092 C.ar      1 RES1    0.0000
     57 C2B       -3.4324   -2.4703   11.2631 C.ar      1 RES1    0.0000
     58 H1B       -3.8028   -3.1365   11.8308 H         1 RES1    0.0000
     59 C3B       -2.6186   -1.4896   11.8308 C.ar      1 RES1    0.0000
     60 C4B       -2.0917   -0.4752   10.9769 C.ar      1 RES1    0.0000
     61 C5B       -2.3609   -0.5045    9.6138 C.ar      1 RES1    0.0000
     62 C6B       -3.1790   -1.5336    9.0442 C.ar      1 RES1    0.0000
     63 C7B       -3.4084   -1.5305    7.6555 C.ar      1 RES1    0.0000
     64 H2B       -3.9397   -2.2233    7.2794 H         1 RES1    0.0000
     65 C8B       -1.2801    0.5814   11.5116 C.ar      1 RES1    0.0000
     66 H3B       -1.0969    0.6146   12.4427 H         1 RES1    0.0000
     67 C9B       -4.5689   -3.5753    9.3735 C.1       1 RES1    0.0000
     68 C10B      -5.2135   -4.3732    8.9213 C.1       1 RES1    0.0000
     69 C11B      -6.1097   -5.4000    8.3324 C.ar      1 RES1    0.0000
     70 C12B      -6.7184   -6.3545    9.1460 C.ar      1 RES1    0.0000
     71 H4B       -6.5405   -6.3762   10.0789 H         1 RES1    0.0000
     72 C13B      -7.5876   -7.2703    8.5746 C.ar      1 RES1    0.0000
     73 H5B       -7.9905   -7.9246    9.1323 H         1 RES1    0.0000
     74 C14B      -7.8858   -7.2687    7.2510 C.ar      1 RES1    0.0000
     75 C15B      -7.2583   -6.3445    6.4456 C.ar      1 RES1    0.0000
     76 H6B       -7.4360   -6.3397    5.5118 H         1 RES1    0.0000
     77 C16B      -6.3765   -5.4254    6.9749 C.ar      1 RES1    0.0000
     78 H7B       -5.9477   -4.8024    6.4007 H         1 RES1    0.0000
     79 C17B      -8.9199   -8.2565    6.6722 C.3       1 RES1    0.0000
     80 H8B       -9.2086   -7.9421    5.7787 H         1 RES1    0.0000
     81 H9B       -9.7160   -8.2772    7.2601 H         1 RES1    0.0000
     82 C18B      -8.3712   -9.6080    6.5548 C.3       1 RES1    0.0000
     83 H10B      -7.7492   -9.6493    5.7861 H         1 RES1    0.0000
     84 H11B      -7.8639   -9.8335    7.3748 H         1 RES1    0.0000
     85 C19B      -9.5295  -10.6403    6.3520 C.3       1 RES1    0.0000
     86 H12B     -10.1563  -10.3004    5.6806 H         1 RES1    0.0000
     87 H13B      -9.1549  -11.4931    6.0475 H         1 RES1    0.0000
     88 H14B     -10.0002  -10.7737    7.2005 H         1 RES1    0.0000
     89 C20B      -2.2952   -1.5384   13.2232 C.1       1 RES1    0.0000
     90 C21B      -1.9786   -1.6051   14.3625 C.1       1 RES1    0.0000
     91 C22B      -1.6305   -1.6989   15.7448 C.ar      1 RES1    0.0000
     92 C23B      -2.1229   -2.7257   16.5401 C.ar      1 RES1    0.0000
     93 H15B      -2.6753   -3.3938   16.1502 H         1 RES1    0.0000
     94 C24B      -1.8277   -2.7941   17.8829 C.ar      1 RES1    0.0000
     95 H16B      -2.1778   -3.5129   18.3966 H         1 RES1    0.0000
     96 C25B      -1.0307   -1.8406   18.5057 C.ar      1 RES1    0.0000
     97 C26B      -0.5272   -0.8258   17.7077 C.ar      1 RES1    0.0000
     98 H17B       0.0367   -0.1683   18.0985 H         1 RES1    0.0000
     99 C27B      -0.8174   -0.7453   16.3750 C.ar      1 RES1    0.0000
    100 H18B      -0.4620   -0.0270   15.8640 H         1 RES1    0.0000
    101 C28B      -0.7823   -1.8803   20.0412 C.3       1 RES1    0.0000
    102 H19B      -1.6477   -1.9835   20.5127 H         1 RES1    0.0000
    103 H20B      -0.3754   -1.0259   20.3320 H         1 RES1    0.0000
    104 C29B       0.0906   -2.9745   20.3962 C.3       1 RES1    0.0000
    105 H21B      -0.3142   -3.8353   20.1220 H         1 RES1    0.0000
    106 H22B       0.9620   -2.8776   19.9367 H         1 RES1    0.0000
    107 C30B       0.2956   -2.9459   21.9602 C.3       1 RES1    0.0000
    108 H23B      -0.5547   -2.7315   22.3977 H         1 RES1    0.0000
    109 H24B       0.6065   -3.8241   22.2647 H         1 RES1    0.0000
    110 H25B       0.9627   -2.2662   22.1895 H         1 RES1    0.0000
@<TRIPOS>BOND
     1    1    2 ar
     2    2    3 1
     3    4    2 ar
     4    5    4 ar
     5    6    5 ar
     6    7    1 ar
     7    8    7 ar
     8    9    8 1
     9   10    5 ar
    10   11   10 1
    11   12    1 1
    12   13   12 3
    13   14   13 1
    14   15   14 ar
    15   16   15 1
    16   17   15 ar
    17   18   17 1
    18   19   17 ar
    19   20   19 ar
    20   21   20 1
    21   22   14 ar
    22   23   22 1
    23   24   19 1
    24   25   24 1
    25   26   24 1
    26   27   24 1
    27   28   27 1
    28   29   27 1
    29   30   27 1
    30   31   30 1
    31   32   30 1
    32   33   30 1
    33   34    4 1
    34   35   34 3
    35   36   35 1
    36   37   36 ar
    37   38   37 1
    38   39   37 ar
    39   40   39 1
    40   41   39 ar
    41   42   41 ar
    42   43   42 1
    43   44   36 ar
    44   45   44 1
    45   46   41 1
    46   47   46 1
    47   48   46 1
    48   49   46 1
    49   50   49 1
    50   51   49 1
    51   52   49 1
    52   53   52 1
    53   54   52 1
    54   55   52 1
    55   56   57 ar
    56   57   58 1
    57   59   57 ar
    58   60   59 ar
    59   61    6 ar
    60   62   56 ar
    61   63   10 ar
    62   64   63 1
    63   65    8 ar
    64   66   65 1
    65   67   56 1
    66   68   67 3
    67   69   68 1
    68   70   69 ar
    69   71   70 1
    70   72   70 ar
    71   73   72 1
    72   74   72 ar
    73   75   74 ar
    74   76   75 1
    75   77   69 ar
    76   78   77 1
    77   79   74 1
    78   80   79 1
    79   81   79 1
    80   82   79 1
    81   83   82 1
    82   84   82 1
    83   85   82 1
    84   86   85 1
    85   87   85 1
    86   88   85 1
    87   89   59 1
    88   90   89 3
    89   91   90 1
    90   92   91 ar
    91   93   92 1
    92   94   92 ar
    93   95   94 1
    94   96   94 ar
    95   97   96 ar
    96   98   97 1
    97   99   91 ar
    98  100   99 1
    99  101   96 1
   100  102  101 1
   101  103  101 1
   102  104  101 1
   103  105  104 1
   104  106  104 1
   105  107  104 1
   106  108  107 1
   107  109  107 1
   108  110  107 1
   109    6    7 ar
   110   20   22 ar
   111   42   44 ar
   112   60   61 ar
   113   60   65 ar
   114   61   62 ar
   115   62   63 ar
   116   75   77 ar
   117   97   99 ar
@<TRIPOS>SUBSTRUCTURE
     1 RES1 1

@<TRIPOS>CRYSIN
  14.7430   15.8810    9.4082  90.0000 102.8490  90.0000  14 1

