# MOL2 file generated by ConQuest
# Please check atom types

@<TRIPOS>MOLECULE
KOJWOW
    56    62     1
SMALL
NO_CHARGES
****
Generated from CSD

@<TRIPOS>ATOM
      1 C1        13.1773    4.1006    9.3366 C.ar      1 RES1    0.0000
      2 H1        13.0499    4.9213    9.7979 H         1 RES1    0.0000
      3 C2        14.4039    3.4740    9.3781 C.ar      1 RES1    0.0000
      4 H2        15.1195    3.8801    9.8523 H         1 RES1    0.0000
      5 C3        14.6085    2.2742    8.7464 C.ar      1 RES1    0.0000
      6 H3        15.4605    1.8542    8.7887 H         1 RES1    0.0000
      7 C4        13.5781    1.6771    8.0513 C.ar      1 RES1    0.0000
      8 H4        13.7100    0.8408    7.6211 H         1 RES1    0.0000
      9 C5        12.3564    2.3044    7.9880 C.ar      1 RES1    0.0000
     10 C6        12.1283    3.5367    8.6229 C.ar      1 RES1    0.0000
     11 C7        11.1112    1.8294    7.3157 C.3       1 RES1    0.0000
     12 H5        10.8195    0.9553    7.6780 H         1 RES1    0.0000
     13 H6        11.2407    1.7482    6.3373 H         1 RES1    0.0000
     14 C8        10.1238    2.9078    7.6424 C.ar      1 RES1    0.0000
     15 C9        10.7192    3.9211    8.3813 C.ar      1 RES1    0.0000
     16 C10        9.9055    5.0451    8.7446 C.ar      1 RES1    0.0000
     17 C11        8.5613    5.0381    8.4194 C.ar      1 RES1    0.0000
     18 C12        7.9508    3.9869    7.6911 C.ar      1 RES1    0.0000
     19 C13        8.7784    2.9039    7.2644 C.ar      1 RES1    0.0000
     20 C14        8.2005    1.8836    6.4816 C.ar      1 RES1    0.0000
     21 H7         8.7428    1.1619    6.1840 H         1 RES1    0.0000
     22 C15        6.8864    1.9099    6.1444 C.ar      1 RES1    0.0000
     23 H8         6.5217    1.2129    5.6126 H         1 RES1    0.0000
     24 C16        6.0684    2.9581    6.5760 C.ar      1 RES1    0.0000
     25 H9         5.1483    2.9658    6.3398 H         1 RES1    0.0000
     26 C17        6.5809    3.9644    7.3310 C.ar      1 RES1    0.0000
     27 H10        6.0102    4.6661    7.6236 H         1 RES1    0.0000
     28 C18       10.2009    6.3331    9.4217 C.ar      1 RES1    0.0000
     29 C19       11.3466    6.9124    9.9379 C.ar      1 RES1    0.0000
     30 H11       12.1824    6.4692    9.8498 H         1 RES1    0.0000
     31 C20       11.2780    8.1408   10.5838 C.ar      1 RES1    0.0000
     32 H12       12.0694    8.5145   10.9531 H         1 RES1    0.0000
     33 C21       10.0907    8.8324   10.7050 C.ar      1 RES1    0.0000
     34 C22       10.0296   10.1366   11.4485 C.3       1 RES1    0.0000
     35 H13        9.8754    9.9633   12.4001 H         1 RES1    0.0000
     36 H14        9.2980   10.6820   11.0916 H         1 RES1    0.0000
     37 H15       10.8782   10.6154   11.3365 H         1 RES1    0.0000
     38 C23        8.9482    8.2917   10.1276 C.ar      1 RES1    0.0000
     39 H16        8.1260    8.7659   10.1640 H         1 RES1    0.0000
     40 C24        9.0145    7.0579    9.4991 C.ar      1 RES1    0.0000
     41 C25        7.8777    6.3129    8.8406 C.3       1 RES1    0.0000
     42 H17        7.6030    6.8134    8.0194 H         1 RES1    0.0000
     43 C26        6.6701    6.1838    9.7546 C.ar      1 RES1    0.0000
     44 C27        6.7534    5.4821   10.9429 C.ar      1 RES1    0.0000
     45 H18        7.5524    5.0165   11.1584 H         1 RES1    0.0000
     46 C28        5.6831    5.4512   11.8211 C.ar      1 RES1    0.0000
     47 H19        5.7617    4.9670   12.6351 H         1 RES1    0.0000
     48 C29        4.4990    6.1134   11.5366 C.ar      1 RES1    0.0000
     49 C30        3.3365    6.0670   12.5008 C.3       1 RES1    0.0000
     50 H20        2.9105    6.9488   12.5411 H         1 RES1    0.0000
     51 H21        3.6604    5.8194   13.3920 H         1 RES1    0.0000
     52 H22        2.6841    5.4032   12.1948 H         1 RES1    0.0000
     53 C31        4.4169    6.8080   10.3478 C.ar      1 RES1    0.0000
     54 H23        3.6159    7.2690   10.1294 H         1 RES1    0.0000
     55 C32        5.4861    6.8420    9.4692 C.ar      1 RES1    0.0000
     56 H24        5.4064    7.3263    8.6551 H         1 RES1    0.0000
@<TRIPOS>BOND
     1    1    2 1
     2    3    1 ar
     3    4    3 1
     4    5    3 ar
     5    6    5 1
     6    7    5 ar
     7    8    7 1
     8    9    7 ar
     9   10    1 ar
    10   11    9 1
    11   12   11 1
    12   13   11 1
    13   14   11 1
    14   15   10 1
    15   16   15 ar
    16   17   16 ar
    17   18   17 ar
    18   19   14 ar
    19   20   19 ar
    20   21   20 1
    21   22   20 ar
    22   23   22 1
    23   24   22 ar
    24   25   24 1
    25   26   18 ar
    26   27   26 1
    27   28   16 1
    28   29   28 ar
    29   30   29 1
    30   31   29 ar
    31   32   31 1
    32   33   31 ar
    33   34   33 1
    34   35   34 1
    35   36   34 1
    36   37   34 1
    37   38   33 ar
    38   39   38 1
    39   40   28 ar
    40   41   17 1
    41   42   41 1
    42   43   41 1
    43   44   43 ar
    44   45   44 1
    45   46   44 ar
    46   47   46 1
    47   48   46 ar
    48   49   48 1
    49   50   49 1
    50   51   49 1
    51   52   49 1
    52   53   48 ar
    53   54   53 1
    54   55   43 ar
    55   56   55 1
    56    9   10 ar
    57   14   15 ar
    58   18   19 ar
    59   24   26 ar
    60   38   40 ar
    61   40   41 1
    62   53   55 ar
@<TRIPOS>SUBSTRUCTURE
     1 RES1 1

@<TRIPOS>CRYSIN
  11.0467    7.7355   24.7970  90.0000  94.0220  90.0000  14 1

