# MOL2 file generated by ConQuest
# Please check atom types

@<TRIPOS>MOLECULE
KOKQUW
    42    43     1
SMALL
NO_CHARGES
****
Generated from CSD

@<TRIPOS>ATOM
      1 C1         7.3824    4.3073   -0.4094 C.ar      1 RES1    0.0000
      2 C2         7.8486    5.2019   -1.3354 C.ar      1 RES1    0.0000
      3 C3         7.0006    6.2914   -1.6789 C.ar      1 RES1    0.0000
      4 H1         7.3117    6.9544   -2.3339 H         1 RES1    0.0000
      5 C4         5.7624    6.4375   -1.1270 C.ar      1 RES1    0.0000
      6 H2         5.1670    7.1751   -1.3926 H         1 RES1    0.0000
      7 C5         6.0994    4.4305    0.1831 C.ar      1 RES1    0.0000
      8 C6         9.2111    5.0767   -2.0257 C.3       1 RES1    0.0000
      9 C7         9.0005    4.9474   -3.5375 C.3       1 RES1    0.0000
     10 H3         9.8666    4.8749   -3.9849 H         1 RES1    0.0000
     11 H4         8.4857    5.7486   -3.9343 H         1 RES1    0.0000
     12 H5         8.3745    4.1910   -3.7226 H         1 RES1    0.0000
     13 C8        10.0444    6.3292   -1.7322 C.3       1 RES1    0.0000
     14 H6        10.9382    6.2367   -2.1695 H         1 RES1    0.0000
     15 H7        10.2358    6.4385   -0.7343 H         1 RES1    0.0000
     16 H8         9.5708    7.1781   -2.1003 H         1 RES1    0.0000
     17 C9         9.9795    3.8460   -1.5498 C.3       1 RES1    0.0000
     18 H9        10.8736    3.8490   -2.0390 H         1 RES1    0.0000
     19 H10       10.1997    3.8927   -0.5725 H         1 RES1    0.0000
     20 H11        9.4851    2.9643   -1.7475 H         1 RES1    0.0000
     21 H12        7.9479    3.5945   -0.1045 H         1 RES1    0.0000
     22 C5B        5.2655    5.5101   -0.1831 C.ar      1 RES1    0.0000
     23 C1B        3.9825    5.6333    0.4094 C.ar      1 RES1    0.0000
     24 C2B        3.5163    4.7387    1.3354 C.ar      1 RES1    0.0000
     25 C3B        4.3643    3.6492    1.6789 C.ar      1 RES1    0.0000
     26 H1B        4.0532    2.9862    2.3339 H         1 RES1    0.0000
     27 C4B        5.6025    3.5031    1.1270 C.ar      1 RES1    0.0000
     28 H2B        6.1979    2.7655    1.3926 H         1 RES1    0.0000
     29 C6B        2.1538    4.8639    2.0257 C.3       1 RES1    0.0000
     30 C7B        2.3644    4.9932    3.5375 C.3       1 RES1    0.0000
     31 H3B        1.4983    5.0657    3.9849 H         1 RES1    0.0000
     32 H4B        2.8792    4.1920    3.9343 H         1 RES1    0.0000
     33 H5B        2.9904    5.7496    3.7226 H         1 RES1    0.0000
     34 C8B        1.3205    3.6114    1.7322 C.3       1 RES1    0.0000
     35 H6B        0.4267    3.7039    2.1695 H         1 RES1    0.0000
     36 H7B        1.1291    3.5021    0.7343 H         1 RES1    0.0000
     37 H8B        1.7941    2.7625    2.1003 H         1 RES1    0.0000
     38 C9B        1.3854    6.0946    1.5498 C.3       1 RES1    0.0000
     39 H9B        0.4913    6.0916    2.0390 H         1 RES1    0.0000
     40 H10B       1.1652    6.0479    0.5725 H         1 RES1    0.0000
     41 H11B       1.8798    6.9763    1.7475 H         1 RES1    0.0000
     42 H12B       3.4170    6.3461    0.1045 H         1 RES1    0.0000
@<TRIPOS>BOND
     1    1    2 ar
     2    2    3 ar
     3    3    4 1
     4    5    3 ar
     5    6    5 1
     6    7    1 ar
     7    8    2 1
     8    9    8 1
     9   10    9 1
    10   11    9 1
    11   12    9 1
    12   13    8 1
    13   14   13 1
    14   15   13 1
    15   16   13 1
    16   17    8 1
    17   18   17 1
    18   19   17 1
    19   20   17 1
    20   21    1 1
    21   22    5 ar
    22   23   22 ar
    23   24   23 ar
    24   25   24 ar
    25   26   25 1
    26   27    7 ar
    27   28   27 1
    28   29   24 1
    29   30   29 1
    30   31   30 1
    31   32   30 1
    32   33   30 1
    33   34   29 1
    34   35   34 1
    35   36   34 1
    36   37   34 1
    37   38   29 1
    38   39   38 1
    39   40   38 1
    40   41   38 1
    41   42   23 1
    42    7   22 ar
    43   25   27 ar
@<TRIPOS>SUBSTRUCTURE
     1 RES1 1

@<TRIPOS>CRYSIN
  11.3649    9.9406    6.6728  90.0000  93.9430  90.0000  14 1

