# MOL2 file generated by ConQuest
# Please check atom types

@<TRIPOS>MOLECULE
KUZXUA
    48    56     1
SMALL
NO_CHARGES
****
Generated from CSD

@<TRIPOS>ATOM
      1 C1         0.9640    7.3317    7.7631 C.ar      1 RES1    0.0000
      2 C2         0.2871    6.3578    8.6055 C.ar      1 RES1    0.0000
      3 C3         0.7403    6.0253    9.9069 C.ar      1 RES1    0.0000
      4 H1         1.5454    6.4155   10.2276 H         1 RES1    0.0000
      5 C4         0.0541    5.1588   10.7179 C.ar      1 RES1    0.0000
      6 H2         0.3798    4.9621   11.5882 H         1 RES1    0.0000
      7 C5        -1.1247    4.5646   10.2624 C.ar      1 RES1    0.0000
      8 H3        -1.6441    4.0225   10.8458 H         1 RES1    0.0000
      9 C6        -1.5269    4.7683    8.9680 C.ar      1 RES1    0.0000
     10 H4        -2.3045    4.3250    8.6508 H         1 RES1    0.0000
     11 C7        -0.8156    5.6216    8.0931 C.ar      1 RES1    0.0000
     12 C8        -1.1319    5.6966    6.6883 C.ar      1 RES1    0.0000
     13 C9        -2.1934    4.9426    6.1154 C.ar      1 RES1    0.0000
     14 H5        -2.7581    4.4321    6.6836 H         1 RES1    0.0000
     15 C10       -2.4187    4.9360    4.7722 C.ar      1 RES1    0.0000
     16 H6        -3.1322    4.4160    4.4213 H         1 RES1    0.0000
     17 C11       -1.6109    5.6890    3.8914 C.ar      1 RES1    0.0000
     18 C12       -1.8399    5.7006    2.4936 C.ar      1 RES1    0.0000
     19 H7        -2.5477    5.1779    2.1345 H         1 RES1    0.0000
     20 C13       -1.0658    6.4434    1.6535 C.ar      1 RES1    0.0000
     21 H8        -1.2351    6.4273    0.7193 H         1 RES1    0.0000
     22 C14       -0.0083    7.2441    2.1647 C.ar      1 RES1    0.0000
     23 C15        0.7856    8.0539    1.3119 C.ar      1 RES1    0.0000
     24 H9         0.6094    8.0627    0.3776 H         1 RES1    0.0000
     25 C16        1.7936    8.8173    1.8080 C.ar      1 RES1    0.0000
     26 H10        2.3150    9.3443    1.2154 H         1 RES1    0.0000
     27 C17        2.0831    8.8414    3.2024 C.ar      1 RES1    0.0000
     28 C18        3.1447    9.6023    3.7392 C.ar      1 RES1    0.0000
     29 H11        3.6911   10.1165    3.1547 H         1 RES1    0.0000
     30 C19        3.4016    9.6143    5.0778 C.ar      1 RES1    0.0000
     31 H12        4.1341   10.1209    5.4078 H         1 RES1    0.0000
     32 C20        2.5936    8.8819    5.9899 C.ar      1 RES1    0.0000
     33 C21        2.7747    8.9971    7.4226 C.ar      1 RES1    0.0000
     34 C22        3.7619    9.8433    7.9862 C.ar      1 RES1    0.0000
     35 H13        4.4171   10.2340    7.4191 H         1 RES1    0.0000
     36 C23        3.7934   10.1121    9.3329 C.ar      1 RES1    0.0000
     37 H14        4.4829   10.6553    9.6954 H         1 RES1    0.0000
     38 C24        2.8065    9.5822   10.1625 C.ar      1 RES1    0.0000
     39 H15        2.7809    9.8244   11.0805 H         1 RES1    0.0000
     40 C25        1.8731    8.7151    9.6582 C.ar      1 RES1    0.0000
     41 H16        1.2031    8.3681   10.2357 H         1 RES1    0.0000
     42 C26        1.8835    8.3217    8.2941 C.ar      1 RES1    0.0000
     43 C27        0.7297    7.3028    6.3850 C.ar      1 RES1    0.0000
     44 C28       -0.3148    6.4716    5.8354 C.ar      1 RES1    0.0000
     45 C29       -0.5563    6.4640    4.4306 C.ar      1 RES1    0.0000
     46 C30        0.2475    7.2553    3.5533 C.ar      1 RES1    0.0000
     47 C31        1.2869    8.0696    4.0866 C.ar      1 RES1    0.0000
     48 C32        1.5370    8.0988    5.4949 C.ar      1 RES1    0.0000
@<TRIPOS>BOND
     1    1    2 ar
     2    2    3 ar
     3    3    4 1
     4    5    3 ar
     5    6    5 1
     6    7    5 ar
     7    8    7 1
     8    9    7 ar
     9   10    9 1
    10   11    2 ar
    11   12   11 ar
    12   13   12 ar
    13   14   13 1
    14   15   13 ar
    15   16   15 1
    16   17   15 ar
    17   18   17 ar
    18   19   18 1
    19   20   18 ar
    20   21   20 1
    21   22   20 ar
    22   23   22 ar
    23   24   23 1
    24   25   23 ar
    25   26   25 1
    26   27   25 ar
    27   28   27 ar
    28   29   28 1
    29   30   28 ar
    30   31   30 1
    31   32   30 ar
    32   33   32 ar
    33   34   33 ar
    34   35   34 1
    35   36   34 ar
    36   37   36 1
    37   38   36 ar
    38   39   38 1
    39   40   38 ar
    40   41   40 1
    41   42    1 ar
    42   43    1 ar
    43   44   12 ar
    44   45   17 ar
    45   46   22 ar
    46   47   27 ar
    47   48   32 ar
    48    9   11 ar
    49   33   42 ar
    50   40   42 ar
    51   43   44 ar
    52   43   48 ar
    53   44   45 ar
    54   45   46 ar
    55   46   47 ar
    56   47   48 ar
@<TRIPOS>SUBSTRUCTURE
     1 RES1 1

@<TRIPOS>CRYSIN
   5.2697   14.6808   11.6839  90.0000  96.0130  90.0000   4 1

