# MOL2 file generated by ConQuest
# Please check atom types

@<TRIPOS>MOLECULE
LEPPIF05
    48    52     1
SMALL
NO_CHARGES
****
Generated from CSD

@<TRIPOS>ATOM
      1 C1        12.8432    7.7455    1.6073 C.ar      1 RES1    0.0000
      2 C2        13.5080    6.5727    1.4501 C.ar      1 RES1    0.0000
      3 C3        12.8518    5.3226    1.6095 C.ar      1 RES1    0.0000
      4 C4        13.5282    4.0917    1.4536 C.ar      1 RES1    0.0000
      5 C5        12.8484    2.8641    1.6073 C.ar      1 RES1    0.0000
      6 C6        13.5060    1.6087    1.4322 C.ar      1 RES1    0.0000
      7 C7        12.8386    0.4380    1.5976 C.ar      1 RES1    0.0000
      8 C8        14.9354    4.1015    1.1644 C.1       1 RES1    0.0000
      9 C9        16.1084    4.1391    0.9598 C.1       1 RES1    0.0000
     10 C10       17.5312    4.1991    0.7398 C.ar      1 RES1    0.0000
     11 C11       18.1060    5.3219    0.1461 C.ar      1 RES1    0.0000
     12 C12       19.4729    5.3753   -0.0562 C.ar      1 RES1    0.0000
     13 C13       20.2743    4.3144    0.3349 C.ar      1 RES1    0.0000
     14 C14       19.7135    3.2025    0.9328 C.ar      1 RES1    0.0000
     15 C15       18.3442    3.1343    1.1370 C.ar      1 RES1    0.0000
     16 H1        13.2803    8.6213    1.4851 H         1 RES1    0.0000
     17 H2        14.4906    6.5860    1.2232 H         1 RES1    0.0000
     18 H3        14.4518    1.6140    1.1685 H         1 RES1    0.0000
     19 H4        13.2827   -0.4570    1.4631 H         1 RES1    0.0000
     20 H5        17.5288    6.1025   -0.1044 H         1 RES1    0.0000
     21 H6        19.8572    6.1808   -0.4494 H         1 RES1    0.0000
     22 H7        21.2620    4.3423    0.1590 H         1 RES1    0.0000
     23 H8        20.2728    2.4336    1.2189 H         1 RES1    0.0000
     24 H9        17.9395    2.3461    1.5618 H         1 RES1    0.0000
     25 C1C       11.4618    7.7455    1.9422 C.ar      1 RES1    0.0000
     26 C3C       11.4532    5.3226    1.9400 C.ar      1 RES1    0.0000
     27 C5C       11.4566    2.8641    1.9422 C.ar      1 RES1    0.0000
     28 C7C       11.4664    0.4380    1.9519 C.ar      1 RES1    0.0000
     29 C2C       10.7970    6.5727    2.0994 C.ar      1 RES1    0.0000
     30 H1C       11.0247    8.6213    2.0644 H         1 RES1    0.0000
     31 C4C       10.7768    4.0917    2.0959 C.ar      1 RES1    0.0000
     32 C6C       10.7990    1.6087    2.1173 C.ar      1 RES1    0.0000
     33 H4C       11.0223   -0.4570    2.0864 H         1 RES1    0.0000
     34 H2C        9.8144    6.5860    2.3263 H         1 RES1    0.0000
     35 C8C        9.3696    4.1015    2.3851 C.1       1 RES1    0.0000
     36 H3C        9.8532    1.6140    2.3810 H         1 RES1    0.0000
     37 C9C        8.1966    4.1391    2.5897 C.1       1 RES1    0.0000
     38 C10C       6.7738    4.1991    2.8097 C.ar      1 RES1    0.0000
     39 C11C       6.1990    5.3219    3.4034 C.ar      1 RES1    0.0000
     40 C15C       5.9608    3.1343    2.4125 C.ar      1 RES1    0.0000
     41 C12C       4.8321    5.3753    3.6057 C.ar      1 RES1    0.0000
     42 H5C        6.7762    6.1025    3.6539 H         1 RES1    0.0000
     43 C14C       4.5915    3.2025    2.6167 C.ar      1 RES1    0.0000
     44 H9C        6.3655    2.3461    1.9877 H         1 RES1    0.0000
     45 C13C       4.0307    4.3144    3.2146 C.ar      1 RES1    0.0000
     46 H6C        4.4478    6.1808    3.9989 H         1 RES1    0.0000
     47 H8C        4.0322    2.4336    2.3306 H         1 RES1    0.0000
     48 H7C        3.0430    4.3423    3.3905 H         1 RES1    0.0000
@<TRIPOS>BOND
     1    1    2 ar
     2    2    3 ar
     3    3    4 ar
     4    4    5 ar
     5    5    6 ar
     6    6    7 ar
     7    7   19 1
     8    8    4 1
     9    9    8 3
    10   10    9 1
    11   11   10 ar
    12   12   11 ar
    13   13   12 ar
    14   14   13 ar
    15   15   10 ar
    16   16    1 1
    17   17    2 1
    18   18    6 1
    19   20   11 1
    20   21   12 1
    21   22   13 1
    22   23   14 1
    23   24   15 1
    24   25    1 ar
    25   26    3 ar
    26   27    5 ar
    27   28    7 ar
    28   29   25 ar
    29   30   25 1
    30   31   26 ar
    31   32   27 ar
    32   33   28 1
    33   34   29 1
    34   35   31 1
    35   36   32 1
    36   37   35 3
    37   38   37 1
    38   39   38 ar
    39   40   38 ar
    40   41   39 ar
    41   42   39 1
    42   43   40 ar
    43   44   40 1
    44   45   41 ar
    45   46   41 1
    46   47   43 1
    47   48   45 1
    48   14   15 ar
    49   26   29 ar
    50   27   31 ar
    51   28   32 ar
    52   43   45 ar
@<TRIPOS>SUBSTRUCTURE
     1 RES1 1

@<TRIPOS>CRYSIN
  24.3050   11.5120    7.0990  90.0000  90.0000  90.0000  60 1

