# MOL2 file generated by ConQuest
# Please check atom types

@<TRIPOS>MOLECULE
LEPPIF01
    48    52     1
SMALL
NO_CHARGES
****
Generated from CSD

@<TRIPOS>ATOM
      1 C1        -5.2937   -1.5952    3.5655 C.ar      1 RES1    0.0000
      2 H1        -5.3844   -2.2680    4.2018 H         1 RES1    0.0000
      3 C2        -6.1119   -1.5909    2.4473 C.ar      1 RES1    0.0000
      4 H2        -6.7532   -2.2557    2.3412 H         1 RES1    0.0000
      5 C3        -5.9803   -0.6155    1.5002 C.ar      1 RES1    0.0000
      6 H3        -6.5443   -0.6005    0.7609 H         1 RES1    0.0000
      7 C4        -5.0182    0.3332    1.6498 C.ar      1 RES1    0.0000
      8 H4        -4.9059    0.9835    0.9945 H         1 RES1    0.0000
      9 C5        -4.2134    0.3385    2.7589 C.ar      1 RES1    0.0000
     10 H5        -3.5634    0.9985    2.8485 H         1 RES1    0.0000
     11 C6        -4.3489   -0.6144    3.7432 C.ar      1 RES1    0.0000
     12 C7        -3.5455   -0.5362    4.9347 C.1       1 RES1    0.0000
     13 C8        -2.9207   -0.4044    5.9482 C.1       1 RES1    0.0000
     14 C9        -2.1697   -0.2062    7.1560 C.ar      1 RES1    0.0000
     15 C10       -1.1962    0.8169    7.2076 C.ar      1 RES1    0.0000
     16 C11       -0.9502    1.6750    6.0974 C.ar      1 RES1    0.0000
     17 H6        -1.4309    1.5524    5.3098 H         1 RES1    0.0000
     18 C12       -0.0321    2.6644    6.1680 C.ar      1 RES1    0.0000
     19 H7         0.1074    3.2167    5.4333 H         1 RES1    0.0000
     20 C13        0.7156    2.8658    7.3494 C.ar      1 RES1    0.0000
     21 H8         1.3485    3.5456    7.3856 H         1 RES1    0.0000
     22 C14        0.5166    2.0773    8.4256 C.ar      1 RES1    0.0000
     23 H9         1.0152    2.2241    9.1979 H         1 RES1    0.0000
     24 C15       -0.4441    1.0231    8.4024 C.ar      1 RES1    0.0000
     25 C1D        2.4354    1.5952   13.1215 C.ar      1 RES1    0.0000
     26 H1D        2.5260    2.2680   12.4852 H         1 RES1    0.0000
     27 C2D        3.2536    1.5909   14.2397 C.ar      1 RES1    0.0000
     28 H2D        3.8949    2.2557   14.3458 H         1 RES1    0.0000
     29 C3D        3.1220    0.6155   15.1868 C.ar      1 RES1    0.0000
     30 H3D        3.6859    0.6005   15.9260 H         1 RES1    0.0000
     31 C4D        2.1598   -0.3332   15.0371 C.ar      1 RES1    0.0000
     32 H4D        2.0476   -0.9835   15.6924 H         1 RES1    0.0000
     33 C5D        1.3551   -0.3385   13.9281 C.ar      1 RES1    0.0000
     34 H5D        0.7050   -0.9985   13.8385 H         1 RES1    0.0000
     35 C6D        1.4906    0.6144   12.9437 C.ar      1 RES1    0.0000
     36 C7D        0.6872    0.5362   11.7523 C.1       1 RES1    0.0000
     37 C8D        0.0623    0.4044   10.7387 C.1       1 RES1    0.0000
     38 C9D       -0.6887    0.2062    9.5309 C.ar      1 RES1    0.0000
     39 C10D      -1.6622   -0.8169    9.4794 C.ar      1 RES1    0.0000
     40 C11D      -1.9081   -1.6750   10.5895 C.ar      1 RES1    0.0000
     41 H6D       -1.4275   -1.5524   11.3772 H         1 RES1    0.0000
     42 C12D      -2.8262   -2.6644   10.5190 C.ar      1 RES1    0.0000
     43 H7D       -2.9658   -3.2167   11.2537 H         1 RES1    0.0000
     44 C13D      -3.5739   -2.8658    9.3375 C.ar      1 RES1    0.0000
     45 H8D       -4.2068   -3.5456    9.3013 H         1 RES1    0.0000
     46 C14D      -3.3750   -2.0773    8.2614 C.ar      1 RES1    0.0000
     47 H9D       -3.8735   -2.2241    7.4891 H         1 RES1    0.0000
     48 C15D      -2.4142   -1.0231    8.2846 C.ar      1 RES1    0.0000
@<TRIPOS>BOND
     1    1    2 1
     2    3    1 ar
     3    4    3 1
     4    5    3 ar
     5    6    5 1
     6    7    5 ar
     7    8    7 1
     8    9    7 ar
     9   10    9 1
    10   11    1 ar
    11   12   11 1
    12   13   12 3
    13   14   13 1
    14   15   14 ar
    15   16   15 ar
    16   17   16 1
    17   18   16 ar
    18   19   18 1
    19   20   18 ar
    20   21   20 1
    21   22   20 ar
    22   23   22 1
    23   24   15 ar
    24   25   26 1
    25   27   25 ar
    26   28   27 1
    27   29   27 ar
    28   30   29 1
    29   31   29 ar
    30   32   31 1
    31   33   31 ar
    32   34   33 1
    33   35   25 ar
    34   36   35 1
    35   37   36 3
    36   38   24 ar
    37   39   38 ar
    38   40   39 ar
    39   41   40 1
    40   42   40 ar
    41   43   42 1
    42   44   42 ar
    43   45   44 1
    44   46   44 ar
    45   47   46 1
    46   48   14 ar
    47    9   11 ar
    48   22   24 ar
    49   33   35 ar
    50   37   38 1
    51   39   48 ar
    52   46   48 ar
@<TRIPOS>SUBSTRUCTURE
     1 RES1 1

@<TRIPOS>CRYSIN
  22.8660    5.3567   16.9300  90.0000  99.7200  90.0000  15 1

