# MOL2 file generated by ConQuest
# Please check atom types

@<TRIPOS>MOLECULE
LEPPIF06
    48    52     1
SMALL
NO_CHARGES
****
Generated from CSD

@<TRIPOS>ATOM
      1 C1         7.0413    0.6175    3.7106 C.ar      1 RES1    0.0000
      2 C2         7.1553   -0.3744    2.7403 C.ar      1 RES1    0.0000
      3 H1         7.7917   -1.0455    2.8378 H         1 RES1    0.0000
      4 C3         6.3294   -0.3664    1.6345 C.ar      1 RES1    0.0000
      5 H2         6.4132   -1.0310    0.9901 H         1 RES1    0.0000
      6 C4         5.3821    0.6175    1.4803 C.ar      1 RES1    0.0000
      7 H3         4.8148    0.6058    0.7434 H         1 RES1    0.0000
      8 C5         5.2746    1.6229    2.4196 C.ar      1 RES1    0.0000
      9 H4         4.6459    2.2983    2.3064 H         1 RES1    0.0000
     10 C6         6.1019    1.6298    3.5331 C.ar      1 RES1    0.0000
     11 H5         6.0276    2.3116    4.1624 H         1 RES1    0.0000
     12 C7         7.8482    0.5522    4.8942 C.1       1 RES1    0.0000
     13 C8         8.4848    0.4151    5.9047 C.1       1 RES1    0.0000
     14 C9         9.2459    0.2121    7.0999 C.ar      1 RES1    0.0000
     15 C10        9.0246    1.0353    8.2299 C.ar      1 RES1    0.0000
     16 C11        9.7920    0.8238    9.4195 C.ar      1 RES1    0.0000
     17 C12        9.5679    1.6866   10.5321 C.ar      1 RES1    0.0000
     18 H6        10.0550    1.5591   11.3133 H         1 RES1    0.0000
     19 C13        8.6567    2.6903   10.4740 C.ar      1 RES1    0.0000
     20 H7         8.5341    3.2457   11.2090 H         1 RES1    0.0000
     21 C14        7.8915    2.8981    9.3011 C.ar      1 RES1    0.0000
     22 H8         7.2638    3.5826    9.2718 H         1 RES1    0.0000
     23 C15        8.0746    2.0958    8.2158 C.ar      1 RES1    0.0000
     24 H9         7.5694    2.2442    7.4489 H         1 RES1    0.0000
     25 C1D       12.9640   -0.6175   12.8463 C.ar      1 RES1    0.0000
     26 C2D       12.8500    0.3744   13.8165 C.ar      1 RES1    0.0000
     27 H1D       12.2136    1.0455   13.7190 H         1 RES1    0.0000
     28 C3D       13.6759    0.3664   14.9224 C.ar      1 RES1    0.0000
     29 H2D       13.5921    1.0310   15.5668 H         1 RES1    0.0000
     30 C4D       14.6232   -0.6175   15.0765 C.ar      1 RES1    0.0000
     31 H3D       15.1905   -0.6058   15.8135 H         1 RES1    0.0000
     32 C5D       14.7306   -1.6229   14.1372 C.ar      1 RES1    0.0000
     33 H4D       15.3594   -2.2983   14.2505 H         1 RES1    0.0000
     34 C6D       13.9034   -1.6298   13.0238 C.ar      1 RES1    0.0000
     35 H5D       13.9777   -2.3116   12.3945 H         1 RES1    0.0000
     36 C7D       12.1571   -0.5522   11.6627 C.1       1 RES1    0.0000
     37 C8D       11.5205   -0.4151   10.6522 C.1       1 RES1    0.0000
     38 C9D       10.7594   -0.2121    9.4569 C.ar      1 RES1    0.0000
     39 C10D      10.9807   -1.0353    8.3269 C.ar      1 RES1    0.0000
     40 C11D      10.2133   -0.8238    7.1373 C.ar      1 RES1    0.0000
     41 C12D      10.4374   -1.6866    6.0247 C.ar      1 RES1    0.0000
     42 H6D        9.9503   -1.5591    5.2436 H         1 RES1    0.0000
     43 C13D      11.3486   -2.6903    6.0828 C.ar      1 RES1    0.0000
     44 H7D       11.4712   -3.2457    5.3479 H         1 RES1    0.0000
     45 C14D      12.1138   -2.8981    7.2557 C.ar      1 RES1    0.0000
     46 H8D       12.7414   -3.5826    7.2850 H         1 RES1    0.0000
     47 C15D      11.9306   -2.0958    8.3410 C.ar      1 RES1    0.0000
     48 H9D       12.4359   -2.2442    9.1079 H         1 RES1    0.0000
@<TRIPOS>BOND
     1    1    2 ar
     2    2    3 1
     3    4    2 ar
     4    5    4 1
     5    6    4 ar
     6    7    6 1
     7    8    6 ar
     8    9    8 1
     9   10    1 ar
    10   11   10 1
    11   12    1 1
    12   13   12 3
    13   14   13 1
    14   15   14 ar
    15   16   15 ar
    16   17   16 ar
    17   18   17 1
    18   19   17 ar
    19   20   19 1
    20   21   19 ar
    21   22   21 1
    22   23   15 ar
    23   24   23 1
    24   25   26 ar
    25   26   27 1
    26   28   26 ar
    27   29   28 1
    28   30   28 ar
    29   31   30 1
    30   32   30 ar
    31   33   32 1
    32   34   25 ar
    33   35   34 1
    34   36   25 1
    35   37   36 3
    36   38   16 ar
    37   39   38 ar
    38   40   14 ar
    39   41   40 ar
    40   42   41 1
    41   43   41 ar
    42   44   43 1
    43   45   43 ar
    44   46   45 1
    45   47   39 ar
    46   48   47 1
    47    8   10 ar
    48   21   23 ar
    49   32   34 ar
    50   37   38 1
    51   39   40 ar
    52   45   47 ar
@<TRIPOS>SUBSTRUCTURE
     1 RES1 1

@<TRIPOS>CRYSIN
  22.5350    5.3560   16.7490  90.0000  98.6870  90.0000  15 1

