# MOL2 file generated by ConQuest
# Please check atom types

@<TRIPOS>MOLECULE
LEYVIX
    54    61     1
SMALL
NO_CHARGES
****
Generated from CSD

@<TRIPOS>ATOM
      1 C1         3.3326   -1.2500    8.3477 C.ar      1 RES1    0.0000
      2 C2         4.2759   -0.1918    8.2114 C.ar      1 RES1    0.0000
      3 C3         5.6005   -0.3143    8.7416 C.ar      1 RES1    0.0000
      4 H1         5.8542   -1.0899    9.1861 H         1 RES1    0.0000
      5 C4         6.4863    0.7050    8.5944 C.ar      1 RES1    0.0000
      6 H2         7.3458    0.6097    8.9373 H         1 RES1    0.0000
      7 C5         6.1376    1.9126    7.9335 C.ar      1 RES1    0.0000
      8 C6         7.0794    2.9578    7.7998 C.ar      1 RES1    0.0000
      9 H3         7.9288    2.8813    8.1700 H         1 RES1    0.0000
     10 C7         6.7155    4.0806    7.1190 C.ar      1 RES1    0.0000
     11 H4         7.3376    4.7645    7.0141 H         1 RES1    0.0000
     12 C8         5.4545    4.2360    6.5780 C.ar      1 RES1    0.0000
     13 H5         5.2482    5.0199    6.1214 H         1 RES1    0.0000
     14 C9         4.4800    3.2426    6.7057 C.ar      1 RES1    0.0000
     15 C10        3.1415    3.3791    6.1528 C.ar      1 RES1    0.0000
     16 C11        2.6977    4.5514    5.5043 C.ar      1 RES1    0.0000
     17 H6         3.2673    5.2823    5.4323 H         1 RES1    0.0000
     18 C12        1.4256    4.6185    4.9818 C.ar      1 RES1    0.0000
     19 H7         1.1530    5.3989    4.5540 H         1 RES1    0.0000
     20 C13        0.5668    3.5863    5.0682 C.ar      1 RES1    0.0000
     21 H8        -0.2823    3.6593    4.6959 H         1 RES1    0.0000
     22 C14        0.9396    2.3987    5.7186 C.ar      1 RES1    0.0000
     23 C15        0.0555    1.3182    5.8622 C.ar      1 RES1    0.0000
     24 H9        -0.7927    1.3735    5.4858 H         1 RES1    0.0000
     25 C16        0.4032    0.2048    6.5321 C.ar      1 RES1    0.0000
     26 H10       -0.2131   -0.4861    6.6171 H         1 RES1    0.0000
     27 C17        1.7005    0.0600    7.1161 C.ar      1 RES1    0.0000
     28 C18        2.0693   -1.1181    7.8181 C.ar      1 RES1    0.0000
     29 C19        3.9061    0.9816    7.5324 C.ar      1 RES1    0.0000
     30 C20        4.8452    2.0538    7.3843 C.ar      1 RES1    0.0000
     31 C21        2.2309    2.3034    6.2775 C.ar      1 RES1    0.0000
     32 C22        2.6120    1.1087    6.9686 C.ar      1 RES1    0.0000
     33 C23        3.7031   -2.5046    9.0689 C.ar      1 RES1    0.0000
     34 C24        4.3491   -3.5227    8.4127 C.ar      1 RES1    0.0000
     35 H11        4.6324   -3.4039    7.5344 H         1 RES1    0.0000
     36 C25        4.5758   -4.7186    9.0504 C.ar      1 RES1    0.0000
     37 H12        5.0073   -5.4059    8.5979 H         1 RES1    0.0000
     38 C26        4.1782   -4.9069   10.3318 C.ar      1 RES1    0.0000
     39 H13        4.3254   -5.7249   10.7494 H         1 RES1    0.0000
     40 C27        3.5706   -3.9064   10.9983 C.ar      1 RES1    0.0000
     41 H14        3.3131   -4.0230   11.8848 H         1 RES1    0.0000
     42 C28        3.3329   -2.7094   10.3606 C.ar      1 RES1    0.0000
     43 H15        2.9084   -2.0244   10.8234 H         1 RES1    0.0000
     44 C29        1.0671   -2.2163    7.9697 C.ar      1 RES1    0.0000
     45 C30        1.1034   -3.3391    7.1696 C.ar      1 RES1    0.0000
     46 H16        1.7547   -3.4133    6.5101 H         1 RES1    0.0000
     47 C31        0.1875   -4.3466    7.3390 C.ar      1 RES1    0.0000
     48 H17        0.2375   -5.1081    6.8084 H         1 RES1    0.0000
     49 C32       -0.7938   -4.2430    8.2749 C.ar      1 RES1    0.0000
     50 H18       -1.4235   -4.9210    8.3675 H         1 RES1    0.0000
     51 C33       -0.8498   -3.1426    9.0771 C.ar      1 RES1    0.0000
     52 H19       -1.5111   -3.0684    9.7271 H         1 RES1    0.0000
     53 C34        0.0790   -2.1445    8.9167 C.ar      1 RES1    0.0000
     54 H20        0.0359   -1.3959    9.4679 H         1 RES1    0.0000
@<TRIPOS>BOND
     1    1    2 ar
     2    2    3 ar
     3    3    4 1
     4    5    3 ar
     5    6    5 1
     6    7    5 ar
     7    8    7 ar
     8    9    8 1
     9   10    8 ar
    10   11   10 1
    11   12   10 ar
    12   13   12 1
    13   14   12 ar
    14   15   14 ar
    15   16   15 ar
    16   17   16 1
    17   18   16 ar
    18   19   18 1
    19   20   18 ar
    20   21   20 1
    21   22   20 ar
    22   23   22 ar
    23   24   23 1
    24   25   23 ar
    25   26   25 1
    26   27   25 ar
    27   28    1 ar
    28   29    2 ar
    29   30    7 ar
    30   31   15 ar
    31   32   27 ar
    32   33    1 1
    33   34   33 ar
    34   35   34 1
    35   36   34 ar
    36   37   36 1
    37   38   36 ar
    38   39   38 1
    39   40   38 ar
    40   41   40 1
    41   42   33 ar
    42   43   42 1
    43   44   28 1
    44   45   44 ar
    45   46   45 1
    46   47   45 ar
    47   48   47 1
    48   49   47 ar
    49   50   49 1
    50   51   49 ar
    51   52   51 1
    52   53   44 ar
    53   54   53 1
    54   14   30 ar
    55   22   31 ar
    56   27   28 ar
    57   29   30 ar
    58   29   32 ar
    59   31   32 ar
    60   40   42 ar
    61   51   53 ar
@<TRIPOS>SUBSTRUCTURE
     1 RES1 1

@<TRIPOS>CRYSIN
   9.1759   11.7699   20.9820  90.0000 101.3860  90.0000  14 1

