# MOL2 file generated by ConQuest
# Please check atom types

@<TRIPOS>MOLECULE
LEZRIT
    60    68     1
SMALL
NO_CHARGES
****
Generated from CSD

@<TRIPOS>ATOM
      1 C1        -1.6695    6.4655    3.7056 C.ar      1 RES1    0.0000
      2 H1        -1.6802    5.5537    3.8920 H         1 RES1    0.0000
      3 C2        -2.4820    7.0355    2.7084 C.ar      1 RES1    0.0000
      4 H2        -3.0475    6.4822    2.2196 H         1 RES1    0.0000
      5 C3        -2.4674    8.3810    2.4341 C.ar      1 RES1    0.0000
      6 H3        -3.0199    8.7084    1.7616 H         1 RES1    0.0000
      7 C4        -1.6477    9.2773    3.1340 C.ar      1 RES1    0.0000
      8 H4        -1.6416   10.1886    2.9506 H         1 RES1    0.0000
      9 C5        -0.8587    8.7249    4.1006 C.ar      1 RES1    0.0000
     10 C6         0.1706    8.9473    5.1758 C.ar      1 RES1    0.0000
     11 C7         0.9964    9.7503    5.8882 C.ar      1 RES1    0.0000
     12 C8         1.5961   11.0975    6.1870 C.ar      1 RES1    0.0000
     13 C9         1.6277   12.4266    5.8906 C.ar      1 RES1    0.0000
     14 H5         1.0633   12.8032    5.2541 H         1 RES1    0.0000
     15 C10        2.5606   13.1915    6.6015 C.ar      1 RES1    0.0000
     16 H6         2.6176   14.1047    6.4351 H         1 RES1    0.0000
     17 C11        3.3924   12.6294    7.5364 C.ar      1 RES1    0.0000
     18 H7         4.0079   13.1742    7.9730 H         1 RES1    0.0000
     19 C12        3.3507   11.2632    7.8607 C.ar      1 RES1    0.0000
     20 H8         3.9143   10.8879    8.4990 H         1 RES1    0.0000
     21 C13        2.4259   10.5169    7.1757 C.ar      1 RES1    0.0000
     22 C14        1.8115    9.1571    6.9100 C.ar      1 RES1    0.0000
     23 C15        1.8124    7.8162    7.2386 C.ar      1 RES1    0.0000
     24 C16        2.6180    7.2233    8.2992 C.ar      1 RES1    0.0000
     25 C17        3.3838    8.0075    9.1683 C.ar      1 RES1    0.0000
     26 H9         3.3457    8.9337    9.0995 H         1 RES1    0.0000
     27 C18        4.1893    7.4370   10.1207 C.ar      1 RES1    0.0000
     28 H10        4.6981    7.9799   10.6786 H         1 RES1    0.0000
     29 C19        4.2515    6.0605   10.2594 C.ar      1 RES1    0.0000
     30 H11        4.8072    5.6780   10.8997 H         1 RES1    0.0000
     31 C20        3.4865    5.2679    9.4450 C.ar      1 RES1    0.0000
     32 H12        3.5179    4.3435    9.5482 H         1 RES1    0.0000
     33 C21        2.6555    5.8214    8.4564 C.ar      1 RES1    0.0000
     34 C22        1.8602    4.9723    7.5881 C.ar      1 RES1    0.0000
     35 C23        1.0350    5.5067    6.6439 C.ar      1 RES1    0.0000
     36 C24        0.9592    6.9377    6.4313 C.ar      1 RES1    0.0000
     37 C25        0.1711    7.5403    5.4671 C.ar      1 RES1    0.0000
     38 C26       -0.8646    7.3358    4.3814 C.ar      1 RES1    0.0000
     39 C27        0.2560    4.5729    5.7733 C.ar      1 RES1    0.0000
     40 C28        0.7203    4.2365    4.5117 C.ar      1 RES1    0.0000
     41 H13        1.4688    4.6679    4.1676 H         1 RES1    0.0000
     42 C29        0.0839    3.2675    3.7582 C.ar      1 RES1    0.0000
     43 H14        0.4082    3.0478    2.9147 H         1 RES1    0.0000
     44 C30       -1.0244    2.6292    4.2527 C.ar      1 RES1    0.0000
     45 H15       -1.4507    1.9756    3.7468 H         1 RES1    0.0000
     46 C31       -1.5032    2.9606    5.4990 C.ar      1 RES1    0.0000
     47 H16       -2.2574    2.5311    5.8333 H         1 RES1    0.0000
     48 C32       -0.8695    3.9266    6.2574 C.ar      1 RES1    0.0000
     49 H17       -1.2007    4.1454    7.0982 H         1 RES1    0.0000
     50 C33        2.0232    3.4874    7.6722 C.ar      1 RES1    0.0000
     51 C34        2.8498    2.8528    6.7712 C.ar      1 RES1    0.0000
     52 H18        3.3436    3.3606    6.1688 H         1 RES1    0.0000
     53 C35        2.9576    1.4800    6.7472 C.ar      1 RES1    0.0000
     54 H19        3.5125    1.0684    6.1249 H         1 RES1    0.0000
     55 C36        2.2518    0.7244    7.6343 C.ar      1 RES1    0.0000
     56 H20        2.3075   -0.2040    7.6055 H         1 RES1    0.0000
     57 C37        1.4619    1.3372    8.5653 C.ar      1 RES1    0.0000
     58 H21        1.0019    0.8256    9.1900 H         1 RES1    0.0000
     59 C38        1.3419    2.7135    8.5838 C.ar      1 RES1    0.0000
     60 H22        0.7956    3.1197    9.2180 H         1 RES1    0.0000
@<TRIPOS>BOND
     1    1    2 1
     2    3    1 ar
     3    4    3 1
     4    5    3 ar
     5    6    5 1
     6    7    5 ar
     7    8    7 1
     8    9    7 ar
     9   10    9 1
    10   11   10 ar
    11   12   11 1
    12   13   12 ar
    13   14   13 1
    14   15   13 ar
    15   16   15 1
    16   17   15 ar
    17   18   17 1
    18   19   17 ar
    19   20   19 1
    20   21   12 ar
    21   22   11 ar
    22   23   22 ar
    23   24   23 ar
    24   25   24 ar
    25   26   25 1
    26   27   25 ar
    27   28   27 1
    28   29   27 ar
    29   30   29 1
    30   31   29 ar
    31   32   31 1
    32   33   24 ar
    33   34   33 ar
    34   35   34 ar
    35   36   23 ar
    36   37   10 ar
    37   38    1 ar
    38   39   35 1
    39   40   39 ar
    40   41   40 1
    41   42   40 ar
    42   43   42 1
    43   44   42 ar
    44   45   44 1
    45   46   44 ar
    46   47   46 1
    47   48   39 ar
    48   49   48 1
    49   50   34 1
    50   51   50 ar
    51   52   51 1
    52   53   51 ar
    53   54   53 1
    54   55   53 ar
    55   56   55 1
    56   57   55 ar
    57   58   57 1
    58   59   50 ar
    59   60   59 1
    60    9   38 ar
    61   19   21 ar
    62   21   22 1
    63   31   33 ar
    64   35   36 ar
    65   36   37 ar
    66   37   38 1
    67   46   48 ar
    68   57   59 ar
@<TRIPOS>SUBSTRUCTURE
     1 RES1 1

@<TRIPOS>CRYSIN
   9.4741   19.4253   13.3729  90.0000  95.3330  90.0000  14 1

