# MOL2 file generated by ConQuest
# Please check atom types

@<TRIPOS>MOLECULE
LEZRUF
    60    68     1
SMALL
NO_CHARGES
****
Generated from CSD

@<TRIPOS>ATOM
      1 C1         7.1077    5.2433    2.3646 C.ar      1 RES1    0.0000
      2 C2         6.8626    4.0019    1.6691 C.ar      1 RES1    0.0000
      3 C3         6.3768    3.9337    0.3701 C.ar      1 RES1    0.0000
      4 C4         5.8729    4.7018   -0.8398 C.ar      1 RES1    0.0000
      5 C5         5.5899    5.9031   -1.4095 C.ar      1 RES1    0.0000
      6 H1         5.7695    6.7087   -0.9810 H         1 RES1    0.0000
      7 C6         5.0045    5.8477   -2.6986 C.ar      1 RES1    0.0000
      8 H2         4.7939    6.6430   -3.1327 H         1 RES1    0.0000
      9 C7         4.7409    4.6606   -3.3242 C.ar      1 RES1    0.0000
     10 H3         4.3490    4.6746   -4.1677 H         1 RES1    0.0000
     11 C8         5.0441    3.4152   -2.7336 C.ar      1 RES1    0.0000
     12 H4         4.8646    2.6077   -3.1591 H         1 RES1    0.0000
     13 C9         5.6158    3.4733   -1.5009 C.ar      1 RES1    0.0000
     14 C10        6.1368    2.7253   -0.2936 C.ar      1 RES1    0.0000
     15 C11        6.3962    1.5149    0.2891 C.ar      1 RES1    0.0000
     16 H5         6.2480    0.7132   -0.1585 H         1 RES1    0.0000
     17 C12        6.8947    1.5497    1.5911 C.ar      1 RES1    0.0000
     18 H6         7.0919    0.7414    2.0076 H         1 RES1    0.0000
     19 C13        7.1140    2.7346    2.3073 C.ar      1 RES1    0.0000
     20 C14        6.8294    6.5510    1.7027 C.ar      1 RES1    0.0000
     21 C15        7.8177    7.2270    1.0147 C.ar      1 RES1    0.0000
     22 H7         8.6443    6.8225    0.8801 H         1 RES1    0.0000
     23 C16        7.5897    8.5009    0.5238 C.ar      1 RES1    0.0000
     24 H8         8.2601    8.9480    0.0588 H         1 RES1    0.0000
     25 C17        6.3718    9.1028    0.7251 C.ar      1 RES1    0.0000
     26 H9         6.2225    9.9651    0.4106 H         1 RES1    0.0000
     27 C18        5.3745    8.4305    1.3904 C.ar      1 RES1    0.0000
     28 H10        4.5456    8.8342    1.5153 H         1 RES1    0.0000
     29 C19        5.5987    7.1602    1.8734 C.ar      1 RES1    0.0000
     30 H11        4.9180    6.7087    2.3174 H         1 RES1    0.0000
     31 C1A        7.5868    5.2433    3.6390 C.ar      1 RES1    0.0000
     32 C2A        7.8319    4.0019    4.3345 C.ar      1 RES1    0.0000
     33 C3A        8.3177    3.9337    5.6335 C.ar      1 RES1    0.0000
     34 C4A        8.8217    4.7018    6.8434 C.ar      1 RES1    0.0000
     35 C5A        9.1047    5.9031    7.4131 C.ar      1 RES1    0.0000
     36 H1A        8.9250    6.7087    6.9846 H         1 RES1    0.0000
     37 C6A        9.6900    5.8477    8.7022 C.ar      1 RES1    0.0000
     38 H2A        9.9006    6.6430    9.1363 H         1 RES1    0.0000
     39 C7A        9.9536    4.6606    9.3278 C.ar      1 RES1    0.0000
     40 H3A       10.3456    4.6746   10.1713 H         1 RES1    0.0000
     41 C8A        9.6504    3.4152    8.7371 C.ar      1 RES1    0.0000
     42 H4A        9.8299    2.6077    9.1627 H         1 RES1    0.0000
     43 C9A        9.0787    3.4733    7.5045 C.ar      1 RES1    0.0000
     44 C10A       8.5577    2.7253    6.2972 C.ar      1 RES1    0.0000
     45 C11A       8.2984    1.5149    5.7145 C.ar      1 RES1    0.0000
     46 H5A        8.4465    0.7132    6.1621 H         1 RES1    0.0000
     47 C12A       7.7999    1.5497    4.4125 C.ar      1 RES1    0.0000
     48 H6A        7.6027    0.7414    3.9960 H         1 RES1    0.0000
     49 C13A       7.5805    2.7346    3.6963 C.ar      1 RES1    0.0000
     50 C14A       7.8651    6.5510    4.3009 C.ar      1 RES1    0.0000
     51 C15A       6.8768    7.2270    4.9889 C.ar      1 RES1    0.0000
     52 H7A        6.0503    6.8225    5.1235 H         1 RES1    0.0000
     53 C16A       7.1048    8.5009    5.4798 C.ar      1 RES1    0.0000
     54 H8A        6.4344    8.9480    5.9448 H         1 RES1    0.0000
     55 C17A       8.3227    9.1028    5.2785 C.ar      1 RES1    0.0000
     56 H9A        8.4721    9.9651    5.5929 H         1 RES1    0.0000
     57 C18A       9.3200    8.4305    4.6132 C.ar      1 RES1    0.0000
     58 H10A      10.1489    8.8342    4.4883 H         1 RES1    0.0000
     59 C19A       9.0958    7.1602    4.1302 C.ar      1 RES1    0.0000
     60 H11A       9.7766    6.7087    3.6862 H         1 RES1    0.0000
@<TRIPOS>BOND
     1    1    2 ar
     2    2    3 ar
     3    3    4 1
     4    4    5 ar
     5    5    6 1
     6    7    5 ar
     7    8    7 1
     8    9    7 ar
     9   10    9 1
    10   11    9 ar
    11   12   11 1
    12   13    4 ar
    13   14    3 ar
    14   15   14 ar
    15   16   15 1
    16   17   15 ar
    17   18   17 1
    18   19    2 ar
    19   20    1 1
    20   21   20 ar
    21   22   21 1
    22   23   21 ar
    23   24   23 1
    24   25   23 ar
    25   26   25 1
    26   27   25 ar
    27   28   27 1
    28   29   20 ar
    29   30   29 1
    30   31    1 ar
    31   32   31 ar
    32   33   32 ar
    33   34   33 1
    34   35   34 ar
    35   36   35 1
    36   37   35 ar
    37   38   37 1
    38   39   37 ar
    39   40   39 1
    40   41   39 ar
    41   42   41 1
    42   43   34 ar
    43   44   33 ar
    44   45   44 ar
    45   46   45 1
    46   47   45 ar
    47   48   47 1
    48   49   19 ar
    49   50   31 1
    50   51   50 ar
    51   52   51 1
    52   53   51 ar
    53   54   53 1
    54   55   53 ar
    55   56   55 1
    56   57   55 ar
    57   58   57 1
    58   59   50 ar
    59   60   59 1
    60   11   13 ar
    61   13   14 1
    62   17   19 ar
    63   27   29 ar
    64   32   49 ar
    65   41   43 ar
    66   43   44 1
    67   47   49 ar
    68   57   59 ar
@<TRIPOS>SUBSTRUCTURE
     1 RES1 1

@<TRIPOS>CRYSIN
  17.5787   11.7305   13.3209  90.0000 115.6600  90.0000  15 1

