# MOL2 file generated by ConQuest
# Please check atom types

@<TRIPOS>MOLECULE
LEZSEQ
    52    58     1
SMALL
NO_CHARGES
****
Generated from CSD

@<TRIPOS>ATOM
      1 C1        -2.3223    7.0407    3.4890 C.ar      1 RES1    0.0000
      2 H1        -2.9441    6.6595    4.1515 H         1 RES1    0.0000
      3 C2        -1.0827    7.5589    3.9443 C.ar      1 RES1    0.0000
      4 H2        -0.8677    7.5649    4.9138 H         1 RES1    0.0000
      5 C3        -0.2645    8.0626    2.9709 C.ar      1 RES1    0.0000
      6 C4         1.0504    8.7396    2.6105 C.ar      1 RES1    0.0000
      7 C5         2.2769    9.2416    3.0538 C.ar      1 RES1    0.0000
      8 C6         2.7010    9.2378    4.4357 C.ar      1 RES1    0.0000
      9 C7         3.8889    9.8038    4.8071 C.ar      1 RES1    0.0000
     10 C8         4.7653   10.4021    3.8118 C.ar      1 RES1    0.0000
     11 C9         6.0145   10.9500    4.1895 C.ar      1 RES1    0.0000
     12 H3         6.2744   10.8705    5.1278 H         1 RES1    0.0000
     13 C10        6.8463   11.5377    3.2598 C.ar      1 RES1    0.0000
     14 H4         7.6944   11.9088    3.5483 H         1 RES1    0.0000
     15 C11        6.4470   11.6145    1.9228 C.ar      1 RES1    0.0000
     16 H5         7.0199   12.0537    1.2602 H         1 RES1    0.0000
     17 C12        5.2482   11.0683    1.5248 C.ar      1 RES1    0.0000
     18 H6         4.9834   11.1241    0.5720 H         1 RES1    0.0000
     19 C13        4.3864   10.4262    2.4452 C.ar      1 RES1    0.0000
     20 C14        3.1250    9.8096    2.0291 C.ar      1 RES1    0.0000
     21 C15        2.7233    9.7685    0.6805 C.ar      1 RES1    0.0000
     22 H7         3.3502   10.1051   -0.0215 H         1 RES1    0.0000
     23 C16        1.4984    9.2390    0.2634 C.ar      1 RES1    0.0000
     24 H8         1.2462    9.2262   -0.7129 H         1 RES1    0.0000
     25 C17        0.6727    8.7474    1.2544 C.ar      1 RES1    0.0000
     26 C18       -0.6368    8.0713    1.5979 C.ar      1 RES1    0.0000
     27 C19       -1.8317    7.5707    1.1488 C.ar      1 RES1    0.0000
     28 H9        -2.0806    7.5818    0.2043 H         1 RES1    0.0000
     29 C20       -2.6835    7.0395    2.1574 C.ar      1 RES1    0.0000
     30 H10       -3.5554    6.6933    1.9193 H         1 RES1    0.0000
     31 C21        1.8137    8.6107    5.4611 C.ar      1 RES1    0.0000
     32 C22        1.8242    7.2308    5.6623 C.ar      1 RES1    0.0000
     33 H11        2.3652    6.6571    5.0665 H         1 RES1    0.0000
     34 C23        1.0534    6.6616    6.6814 C.ar      1 RES1    0.0000
     35 H12        1.1047    5.7009    6.7998 H         1 RES1    0.0000
     36 C24        0.2557    7.4638    7.4761 C.ar      1 RES1    0.0000
     37 H13       -0.2869    7.0603    8.1718 H         1 RES1    0.0000
     38 C25        0.2173    8.8357    7.2645 C.ar      1 RES1    0.0000
     39 H14       -0.3615    9.4242    7.8524 H         1 RES1    0.0000
     40 C26        1.0030    9.4066    6.2675 C.ar      1 RES1    0.0000
     41 H15        0.9946   10.3900    6.1224 H         1 RES1    0.0000
     42 C27        4.2626    9.8347    6.2560 C.ar      1 RES1    0.0000
     43 C28        4.1029   11.0065    7.0020 C.ar      1 RES1    0.0000
     44 H16        3.8017   11.8388    6.5374 H         1 RES1    0.0000
     45 C29        4.3567   11.0198    8.3709 C.ar      1 RES1    0.0000
     46 H17        4.2545   11.8388    8.8739 H         1 RES1    0.0000
     47 C30        4.7790    9.8622    9.0140 C.ar      1 RES1    0.0000
     48 H18        4.9404    9.8733    9.9836 H         1 RES1    0.0000
     49 C31        4.9525    8.6950    8.2806 C.ar      1 RES1    0.0000
     50 H19        5.2718    7.8861    8.7126 H         1 RES1    0.0000
     51 C32        4.7004    8.6822    6.9112 C.ar      1 RES1    0.0000
     52 H20        4.8175    7.8523    6.4041 H         1 RES1    0.0000
@<TRIPOS>BOND
     1    1    2 1
     2    3    1 ar
     3    4    3 1
     4    5    3 ar
     5    6    5 1
     6    7    6 ar
     7    8    7 ar
     8    9    8 ar
     9   10    9 ar
    10   11   10 ar
    11   12   11 1
    12   13   11 ar
    13   14   13 1
    14   15   13 ar
    15   16   15 1
    16   17   15 ar
    17   18   17 1
    18   19   10 ar
    19   20    7 ar
    20   21   20 ar
    21   22   21 1
    22   23   21 ar
    23   24   23 1
    24   25    6 ar
    25   26    5 ar
    26   27   26 ar
    27   28   27 1
    28   29    1 ar
    29   30   29 1
    30   31    8 1
    31   32   31 ar
    32   33   32 1
    33   34   32 ar
    34   35   34 1
    35   36   34 ar
    36   37   36 1
    37   38   36 ar
    38   39   38 1
    39   40   31 ar
    40   41   40 1
    41   42    9 1
    42   43   42 ar
    43   44   43 1
    44   45   43 ar
    45   46   45 1
    46   47   45 ar
    47   48   47 1
    48   49   47 ar
    49   50   49 1
    50   51   42 ar
    51   52   51 1
    52   17   19 ar
    53   19   20 ar
    54   23   25 ar
    55   25   26 1
    56   27   29 ar
    57   38   40 ar
    58   49   51 ar
@<TRIPOS>SUBSTRUCTURE
     1 RES1 1

@<TRIPOS>CRYSIN
   8.0852   24.1460   10.9096  90.0000  99.7400  90.0000  14 1

