# MOL2 file generated by ConQuest
# Please check atom types

@<TRIPOS>MOLECULE
LONBEX
    30    32     1
SMALL
NO_CHARGES
****
Generated from CSD

@<TRIPOS>ATOM
      1 C1         1.5560    2.8179    7.4589 C.ar      1 RES1    0.0000
      2 C2         0.8794    1.8273    8.1371 C.ar      1 RES1    0.0000
      3 H1         0.8890    1.8219    9.0877 H         1 RES1    0.0000
      4 C3         0.1786    0.8319    7.4517 C.ar      1 RES1    0.0000
      5 H2        -0.2889    0.1648    7.9396 H         1 RES1    0.0000
      6 C4         0.1595    0.8071    6.0788 C.ar      1 RES1    0.0000
      7 H3        -0.3114    0.1177    5.6249 H         1 RES1    0.0000
      8 C5         0.1263    0.8258    3.1278 C.ar      1 RES1    0.0000
      9 H4        -0.3320    0.1274    3.5802 H         1 RES1    0.0000
     10 C6         0.1126    0.8729    1.7536 C.ar      1 RES1    0.0000
     11 H5        -0.3726    0.2179    1.2656 H         1 RES1    0.0000
     12 C7         0.8078    1.8792    1.0681 C.ar      1 RES1    0.0000
     13 H6         0.8000    1.8883    0.1175 H         1 RES1    0.0000
     14 C8         1.4981    2.8505    1.7450 C.ar      1 RES1    0.0000
     15 C9         2.1950    3.8387    3.9249 C.ar      1 RES1    0.0000
     16 H7         2.6564    4.5281    3.4607 H         1 RES1    0.0000
     17 C10        2.2107    3.8357    5.2790 C.ar      1 RES1    0.0000
     18 H8         2.6834    4.5173    5.7424 H         1 RES1    0.0000
     19 C11        0.8369    1.8014    5.3341 C.ar      1 RES1    0.0000
     20 C12        0.8178    1.8062    3.8713 C.ar      1 RES1    0.0000
     21 C13        1.5261    2.8209    6.0285 C.ar      1 RES1    0.0000
     22 C14        1.5063    2.8385    3.1711 C.ar      1 RES1    0.0000
     23 C15        2.3280    3.8647    8.2160 C.3       1 RES1    0.0000
     24 H9         2.2081    3.7265    9.1784 H         1 RES1    0.0000
     25 H10        1.9987    4.7545    7.9705 H         1 RES1    0.0000
     26 H11        3.2791    3.7953    7.9911 H         1 RES1    0.0000
     27 C16        2.2760    3.8967    0.9786 C.3       1 RES1    0.0000
     28 H12        2.1674    3.7452    0.0165 H         1 RES1    0.0000
     29 H13        3.2252    3.8357    1.2140 H         1 RES1    0.0000
     30 H14        1.9390    4.7877    1.2099 H         1 RES1    0.0000
@<TRIPOS>BOND
     1    1    2 ar
     2    2    3 1
     3    4    2 ar
     4    5    4 1
     5    6    4 ar
     6    7    6 1
     7    8    9 1
     8   10    8 ar
     9   11   10 1
    10   12   10 ar
    11   13   12 1
    12   14   12 ar
    13   15   16 1
    14   17   15 ar
    15   18   17 1
    16   19    6 ar
    17   20    8 ar
    18   21    1 ar
    19   22   14 ar
    20   23    1 1
    21   24   23 1
    22   25   23 1
    23   26   23 1
    24   27   14 1
    25   28   27 1
    26   29   27 1
    27   30   27 1
    28   15   22 ar
    29   17   21 ar
    30   19   20 ar
    31   19   21 ar
    32   20   22 ar
@<TRIPOS>SUBSTRUCTURE
     1 RES1 1

@<TRIPOS>CRYSIN
   8.6543    6.0367   20.9744  90.0000 100.6720  90.0000  14 1

