# MOL2 file generated by ConQuest
# Please check atom types

@<TRIPOS>MOLECULE
MARHOE
    74    81     1
SMALL
NO_CHARGES
****
Generated from CSD

@<TRIPOS>ATOM
      1 C1        -0.0995    8.3497    1.3804 C.ar      1 RES1    0.0000
      2 H1         0.7112    8.5122    1.8062 H         1 RES1    0.0000
      3 C2        -0.4421    9.1152    0.2626 C.ar      1 RES1    0.0000
      4 C3        -2.1452    7.0850    1.2921 C.ar      1 RES1    0.0000
      5 C4        -3.9912    4.2823    3.1891 C.ar      1 RES1    0.0000
      6 C5        -3.0743    6.0498    1.7804 C.2       1 RES1    0.0000
      7 H2        -3.8594    5.9624    1.2896 H         1 RES1    0.0000
      8 C6        -3.9249    2.9474    2.7400 C.ar      1 RES1    0.0000
      9 C7        -4.9804    2.0352    3.0333 C.ar      1 RES1    0.0000
     10 C8        -1.6596    8.8183   -0.3166 C.ar      1 RES1    0.0000
     11 H3        -1.9290    9.2958   -1.0675 H         1 RES1    0.0000
     12 C9        -0.9238    7.3618    1.8712 C.ar      1 RES1    0.0000
     13 H4        -0.6506    6.8696    2.6112 H         1 RES1    0.0000
     14 C10       -5.0474    4.6803    4.0247 C.ar      1 RES1    0.0000
     15 C11       -6.1057    3.7477    4.3192 C.ar      1 RES1    0.0000
     16 C12       -2.4875    7.8387    0.1791 C.ar      1 RES1    0.0000
     17 H5        -3.3000    7.6764   -0.2430 H         1 RES1    0.0000
     18 C13       -2.9672    5.2642    2.7596 C.2       1 RES1    0.0000
     19 H6        -2.1810    5.3042    3.2554 H         1 RES1    0.0000
     20 C14       -6.0524    2.4724    3.7916 C.ar      1 RES1    0.0000
     21 H7        -6.7596    1.8897    3.9511 H         1 RES1    0.0000
     22 C15       -5.1129    5.9643    4.6149 C.ar      1 RES1    0.0000
     23 H8        -4.4460    6.5839    4.4260 H         1 RES1    0.0000
     24 C16       -2.7494    1.1523    1.6209 C.ar      1 RES1    0.0000
     25 H9        -1.9957    0.8454    1.1706 H         1 RES1    0.0000
     26 C17       -7.1485    4.1654    5.1818 C.ar      1 RES1    0.0000
     27 H10       -7.8382    3.5728    5.3757 H         1 RES1    0.0000
     28 C18       -4.8887    0.6956    2.5719 C.ar      1 RES1    0.0000
     29 H11       -5.5865    0.1042    2.7449 H         1 RES1    0.0000
     30 C19       -7.1704    5.3910    5.7266 C.ar      1 RES1    0.0000
     31 H12       -7.8702    5.6400    6.2849 H         1 RES1    0.0000
     32 C20       -6.1193    6.3137    5.4481 C.ar      1 RES1    0.0000
     33 H13       -6.1263    7.1572    5.8395 H         1 RES1    0.0000
     34 C21       -2.8117    2.4398    2.0099 C.ar      1 RES1    0.0000
     35 H14       -2.1101    3.0130    1.7964 H         1 RES1    0.0000
     36 C22       -3.8100    0.2625    1.8872 C.ar      1 RES1    0.0000
     37 H15       -3.7660   -0.6177    1.5927 H         1 RES1    0.0000
     38 C1B        0.0995   10.9523   -1.3804 C.ar      1 RES1    0.0000
     39 H1B       -0.7112   10.7898   -1.8062 H         1 RES1    0.0000
     40 C2B        0.4421   10.1868   -0.2626 C.ar      1 RES1    0.0000
     41 C3B        2.1452   12.2170   -1.2921 C.ar      1 RES1    0.0000
     42 C4B        3.9912   15.0197   -3.1891 C.ar      1 RES1    0.0000
     43 C5B        3.0743   13.2522   -1.7804 C.2       1 RES1    0.0000
     44 H2B        3.8594   13.3396   -1.2896 H         1 RES1    0.0000
     45 C6B        3.9249   16.3546   -2.7400 C.ar      1 RES1    0.0000
     46 C7B        4.9804   17.2668   -3.0333 C.ar      1 RES1    0.0000
     47 C8B        1.6596   10.4837    0.3166 C.ar      1 RES1    0.0000
     48 H3B        1.9290   10.0062    1.0675 H         1 RES1    0.0000
     49 C9B        0.9238   11.9402   -1.8712 C.ar      1 RES1    0.0000
     50 H4B        0.6506   12.4324   -2.6112 H         1 RES1    0.0000
     51 C10B       5.0474   14.6217   -4.0247 C.ar      1 RES1    0.0000
     52 C11B       6.1057   15.5543   -4.3192 C.ar      1 RES1    0.0000
     53 C12B       2.4875   11.4633   -0.1791 C.ar      1 RES1    0.0000
     54 H5B        3.3000   11.6256    0.2430 H         1 RES1    0.0000
     55 C13B       2.9672   14.0378   -2.7596 C.2       1 RES1    0.0000
     56 H6B        2.1810   13.9978   -3.2554 H         1 RES1    0.0000
     57 C14B       6.0524   16.8296   -3.7916 C.ar      1 RES1    0.0000
     58 H7B        6.7596   17.4123   -3.9511 H         1 RES1    0.0000
     59 C15B       5.1129   13.3377   -4.6149 C.ar      1 RES1    0.0000
     60 H8B        4.4460   12.7181   -4.4260 H         1 RES1    0.0000
     61 C16B       2.7494   18.1497   -1.6209 C.ar      1 RES1    0.0000
     62 H9B        1.9957   18.4566   -1.1706 H         1 RES1    0.0000
     63 C17B       7.1485   15.1366   -5.1818 C.ar      1 RES1    0.0000
     64 H10B       7.8382   15.7292   -5.3757 H         1 RES1    0.0000
     65 C18B       4.8887   18.6064   -2.5719 C.ar      1 RES1    0.0000
     66 H11B       5.5865   19.1978   -2.7449 H         1 RES1    0.0000
     67 C19B       7.1704   13.9110   -5.7266 C.ar      1 RES1    0.0000
     68 H12B       7.8702   13.6620   -6.2849 H         1 RES1    0.0000
     69 C20B       6.1193   12.9883   -5.4481 C.ar      1 RES1    0.0000
     70 H13B       6.1263   12.1448   -5.8395 H         1 RES1    0.0000
     71 C21B       2.8117   16.8622   -2.0099 C.ar      1 RES1    0.0000
     72 H14B       2.1101   16.2890   -1.7964 H         1 RES1    0.0000
     73 C22B       3.8100   19.0395   -1.8872 C.ar      1 RES1    0.0000
     74 H15B       3.7660   19.9197   -1.5927 H         1 RES1    0.0000
@<TRIPOS>BOND
     1    1    2 1
     2    3    1 ar
     3    4    6 1
     4    5    8 ar
     5    6    7 1
     6    8    9 ar
     7    9   20 ar
     8   10    3 ar
     9   11   10 1
    10   12    1 ar
    11   13   12 1
    12   14    5 ar
    13   15   14 ar
    14   16    4 ar
    15   17   16 1
    16   18    5 1
    17   19   18 1
    18   20   15 ar
    19   21   20 1
    20   22   14 ar
    21   23   22 1
    22   24   25 1
    23   26   15 ar
    24   27   26 1
    25   28    9 ar
    26   29   28 1
    27   30   26 ar
    28   31   30 1
    29   32   22 ar
    30   33   32 1
    31   34    8 ar
    32   35   34 1
    33   36   24 ar
    34   37   36 1
    35   38   39 1
    36   40    3 1
    37   41   43 1
    38   42   45 ar
    39   43   44 1
    40   45   46 ar
    41   46   57 ar
    42   47   40 ar
    43   48   47 1
    44   49   38 ar
    45   50   49 1
    46   51   42 ar
    47   52   51 ar
    48   53   41 ar
    49   54   53 1
    50   55   42 1
    51   56   55 1
    52   57   52 ar
    53   58   57 1
    54   59   51 ar
    55   60   59 1
    56   61   62 1
    57   63   52 ar
    58   64   63 1
    59   65   46 ar
    60   66   65 1
    61   67   63 ar
    62   68   67 1
    63   69   59 ar
    64   70   69 1
    65   71   45 ar
    66   72   71 1
    67   73   61 ar
    68   74   73 1
    69    4   12 ar
    70    6   18 2
    71   10   16 ar
    72   24   34 ar
    73   28   36 ar
    74   30   32 ar
    75   38   40 ar
    76   41   49 ar
    77   43   55 2
    78   47   53 ar
    79   61   71 ar
    80   65   73 ar
    81   67   69 ar
@<TRIPOS>SUBSTRUCTURE
     1 RES1 1

@<TRIPOS>CRYSIN
   6.4897   19.3020   12.4540  90.0000  99.8480  90.0000  14 1

