# MOL2 file generated by ConQuest
# Please check atom types

@<TRIPOS>MOLECULE
MASWUB
    48    54     1
SMALL
NO_CHARGES
****
Generated from CSD

@<TRIPOS>ATOM
      1 C1         1.6073    2.4253    0.2176 C.ar      1 RES1    0.0000
      2 H1         1.0818    3.0711   -0.2403 H         1 RES1    0.0000
      3 C2         2.3002    1.4855   -0.4977 C.ar      1 RES1    0.0000
      4 H2         2.2595    1.4865   -1.4463 H         1 RES1    0.0000
      5 C3         3.0640    0.5297    0.1635 C.ar      1 RES1    0.0000
      6 H3         3.5489   -0.1161   -0.3370 H         1 RES1    0.0000
      7 C4         3.1211    0.5137    1.5473 C.ar      1 RES1    0.0000
      8 H4         3.6337   -0.1532    1.9881 H         1 RES1    0.0000
      9 C5         2.4340    1.4659    2.3024 C.ar      1 RES1    0.0000
     10 C6         1.6648    2.4449    1.6255 C.ar      1 RES1    0.0000
     11 C7         0.9657    3.4533    2.3849 C.ar      1 RES1    0.0000
     12 H5         0.4513    4.1094    1.9298 H         1 RES1    0.0000
     13 C8         1.0304    3.4796    3.7416 C.ar      1 RES1    0.0000
     14 H6         0.5722    4.1630    4.2166 H         1 RES1    0.0000
     15 C9         1.7781    2.4960    4.4711 C.ar      1 RES1    0.0000
     16 C10        2.4879    1.4803    3.7629 C.ar      1 RES1    0.0000
     17 C11        3.2079    0.5591    4.5166 C.ar      1 RES1    0.0000
     18 H7         3.7113   -0.1078    4.0658 H         1 RES1    0.0000
     19 C12        3.2166    0.5808    5.9174 C.ar      1 RES1    0.0000
     20 C13        2.4483    1.5515    6.6327 C.ar      1 RES1    0.0000
     21 C14        1.7964    2.5217    5.8676 C.ar      1 RES1    0.0000
     22 H8         1.3470    3.2284    6.3156 H         1 RES1    0.0000
     23 C15        4.0187   -0.3389    6.6512 C.ar      1 RES1    0.0000
     24 H9         4.4645   -1.0399    6.1919 H         1 RES1    0.0000
     25 C16        4.1559   -0.2316    7.9923 C.ar      1 RES1    0.0000
     26 H10        4.7444   -0.8232    8.4474 H         1 RES1    0.0000
     27 C17        3.4358    0.7536    8.7460 C.ar      1 RES1    0.0000
     28 C18        2.4871    1.5448    8.0918 C.ar      1 RES1    0.0000
     29 C19        1.5879    2.3634    8.9010 C.ar      1 RES1    0.0000
     30 C20        0.3166    2.7822    8.4403 C.ar      1 RES1    0.0000
     31 H11        0.0083    2.4784    7.5941 H         1 RES1    0.0000
     32 C21       -0.4839    3.6152    9.1840 C.ar      1 RES1    0.0000
     33 H12       -1.3295    3.8902    8.8484 H         1 RES1    0.0000
     34 C22       -0.0480    4.0532   10.4284 C.ar      1 RES1    0.0000
     35 H13       -0.5623    4.6819   10.9204 H         1 RES1    0.0000
     36 C23        1.1254    3.5740   10.9403 C.ar      1 RES1    0.0000
     37 H14        1.3963    3.8535   11.8064 H         1 RES1    0.0000
     38 C24        1.9389    2.6863   10.2307 C.ar      1 RES1    0.0000
     39 C25        3.0606    1.9961   10.8635 C.ar      1 RES1    0.0000
     40 C26        3.4472    2.2721   12.1946 C.ar      1 RES1    0.0000
     41 H15        3.0312    2.9885   12.6597 H         1 RES1    0.0000
     42 C27        4.4158    1.5242   12.8346 C.ar      1 RES1    0.0000
     43 H16        4.6540    1.7181   13.7334 H         1 RES1    0.0000
     44 C28        5.0413    0.4833   12.1534 C.ar      1 RES1    0.0000
     45 H17        5.7025   -0.0387   12.5914 H         1 RES1    0.0000
     46 C29        4.7035    0.2089   10.8479 C.ar      1 RES1    0.0000
     47 H18        5.1394   -0.5045   10.3957 H         1 RES1    0.0000
     48 C30        3.7221    0.9635   10.1624 C.ar      1 RES1    0.0000
@<TRIPOS>BOND
     1    1    2 1
     2    3    1 ar
     3    4    3 1
     4    5    3 ar
     5    6    5 1
     6    7    5 ar
     7    8    7 1
     8    9    7 ar
     9   10    1 ar
    10   11   10 ar
    11   12   11 1
    12   13   11 ar
    13   14   13 1
    14   15   13 ar
    15   16    9 ar
    16   17   16 ar
    17   18   17 1
    18   19   17 ar
    19   20   19 ar
    20   21   15 ar
    21   22   21 1
    22   23   19 ar
    23   24   23 1
    24   25   23 ar
    25   26   25 1
    26   27   25 ar
    27   28   20 ar
    28   29   28 ar
    29   30   29 ar
    30   31   30 1
    31   32   30 ar
    32   33   32 1
    33   34   32 ar
    34   35   34 1
    35   36   34 ar
    36   37   36 1
    37   38   29 ar
    38   39   38 ar
    39   40   39 ar
    40   41   40 1
    41   42   40 ar
    42   43   42 1
    43   44   42 ar
    44   45   44 1
    45   46   44 ar
    46   47   46 1
    47   48   27 ar
    48    9   10 ar
    49   15   16 ar
    50   20   21 ar
    51   27   28 ar
    52   36   38 ar
    53   39   48 ar
    54   46   48 ar
@<TRIPOS>SUBSTRUCTURE
     1 RES1 1

@<TRIPOS>CRYSIN
  12.7780    5.1580   14.3630  90.0000  98.0590  90.0000   4 1

