# MOL2 file generated by ConQuest
# Please check atom types

@<TRIPOS>MOLECULE
MCHLAN20
    37    41     1
SMALL
NO_CHARGES
****
Generated from CSD

@<TRIPOS>ATOM
      1 C1        -2.9372    4.6815    8.3299 C.ar      1 RES1    0.0000
      2 C2        -0.0022    2.4481   -0.2029 C.ar      1 RES1    0.0000
      3 C3        -0.9880    1.5211    0.2280 C.ar      1 RES1    0.0000
      4 C4        -1.6103    1.5972    1.4505 C.ar      1 RES1    0.0000
      5 C5        -1.2597    2.6298    2.3750 C.ar      1 RES1    0.0000
      6 C6        -1.7992    2.8525    3.6451 C.ar      1 RES1    0.0000
      7 C7        -1.3728    3.9351    4.4343 C.ar      1 RES1    0.0000
      8 C8        -1.9390    4.1782    5.7646 C.ar      1 RES1    0.0000
      9 C9        -2.9293    3.3557    6.3282 C.ar      1 RES1    0.0000
     10 C10       -3.4311    3.6045    7.5934 C.ar      1 RES1    0.0000
     11 C11        1.2255    5.3676    1.8739 C.3       1 RES1    0.0000
     12 C12       -1.9881    5.5062    7.8088 C.ar      1 RES1    0.0000
     13 C13        1.3406    4.5769    0.5386 C.3       1 RES1    0.0000
     14 C14        0.6318    2.3038   -1.5733 C.3       1 RES1    0.0000
     15 C15       -1.4690    5.2744    6.5161 C.ar      1 RES1    0.0000
     16 C16       -0.4813    6.1583    5.9700 C.ar      1 RES1    0.0000
     17 C17        0.0504    5.9549    4.7474 C.ar      1 RES1    0.0000
     18 C18       -0.3703    4.8496    3.9332 C.ar      1 RES1    0.0000
     19 C19        0.1711    4.6133    2.6756 C.ar      1 RES1    0.0000
     20 C20       -0.2870    3.5250    1.9215 C.ar      1 RES1    0.0000
     21 C21        0.3439    3.4478    0.6539 C.ar      1 RES1    0.0000
     22 H1        -3.3213    4.8621    9.2443 H         1 RES1    0.0000
     23 H2        -1.2706    0.7498   -0.4008 H         1 RES1    0.0000
     24 H3        -2.3474    0.9202    1.7036 H         1 RES1    0.0000
     25 H4        -2.4659    2.2038    3.9833 H         1 RES1    0.0000
     26 H5        -3.2844    2.5333    5.8372 H         1 RES1    0.0000
     27 H6        -4.1970    2.9763    7.9667 H         1 RES1    0.0000
     28 H7         2.1083    5.3619    2.4050 H         1 RES1    0.0000
     29 H8        -1.5455    6.2253    8.3174 H         1 RES1    0.0000
     30 H9         2.2894    4.1805    0.4008 H         1 RES1    0.0000
     31 H10        1.4817    1.9653   -1.4530 H         1 RES1    0.0000
     32 H11        0.9564    6.3275    1.7286 H         1 RES1    0.0000
     33 H12        1.0908    5.1915   -0.3006 H         1 RES1    0.0000
     34 H13        0.1388    1.8517   -2.1295 H         1 RES1    0.0000
     35 H14        0.9139    3.1581   -1.8789 H         1 RES1    0.0000
     36 H15       -0.2173    6.9410    6.5136 H         1 RES1    0.0000
     37 H16        0.7443    6.5888    4.3842 H         1 RES1    0.0000
@<TRIPOS>BOND
     1    1   10 ar
     2    2    3 ar
     3    3    4 ar
     4    4    5 ar
     5    5    6 ar
     6    6    7 ar
     7    7    8 ar
     8    8    9 ar
     9    9   10 ar
    10   10   27 1
    11   11   13 1
    12   12    1 ar
    13   13   21 1
    14   14    2 1
    15   15    8 ar
    16   16   15 ar
    17   17   16 ar
    18   18    7 ar
    19   19   11 1
    20   20    5 ar
    21   21    2 ar
    22   22    1 1
    23   23    3 1
    24   24    4 1
    25   25    6 1
    26   26    9 1
    27   28   11 1
    28   29   12 1
    29   30   13 1
    30   31   14 1
    31   32   11 1
    32   33   13 1
    33   34   14 1
    34   35   14 1
    35   36   16 1
    36   37   17 1
    37   12   15 ar
    38   17   18 ar
    39   18   19 ar
    40   19   20 ar
    41   20   21 ar
@<TRIPOS>SUBSTRUCTURE
     1 RES1 1

@<TRIPOS>CRYSIN
   4.8980   11.3600   25.1600  90.0000  95.3000  90.0000  14 1

