# MOL2 file generated by ConQuest
# Please check atom types

@<TRIPOS>MOLECULE
MILFIY
    56    62     1
SMALL
NO_CHARGES
****
Generated from CSD

@<TRIPOS>ATOM
      1 C1        15.5571    1.1207    2.8908 C.ar      1 RES1    0.0000
      2 H1        14.6557    1.1338    3.1910 H         1 RES1    0.0000
      3 C2        16.3283    0.0166    3.1436 C.ar      1 RES1    0.0000
      4 H2        15.9574   -0.7160    3.6219 H         1 RES1    0.0000
      5 C3        17.6659   -0.0427    2.7026 C.ar      1 RES1    0.0000
      6 H3        18.1785   -0.8338    2.8216 H         1 RES1    0.0000
      7 C4        18.2132    1.0570    2.0991 C.ar      1 RES1    0.0000
      8 H4        19.1232    1.0338    1.8284 H         1 RES1    0.0000
      9 C5        17.4532    2.2288    1.8689 C.ar      1 RES1    0.0000
     10 C6        18.0852    3.4151    1.3820 C.ar      1 RES1    0.0000
     11 H5        18.9920    3.3906    1.1005 H         1 RES1    0.0000
     12 C7        17.3902    4.5724    1.3229 C.ar      1 RES1    0.0000
     13 H6        17.8364    5.3689    1.0569 H         1 RES1    0.0000
     14 C8        16.0014    4.6264    1.6496 C.ar      1 RES1    0.0000
     15 C9        15.3774    5.8992    1.7600 C.ar      1 RES1    0.0000
     16 H7        15.8648    6.6848    1.5383 H         1 RES1    0.0000
     17 C10       14.0989    5.9997    2.1784 C.ar      1 RES1    0.0000
     18 H8        13.7386    6.8527    2.3892 H         1 RES1    0.0000
     19 C11       13.2773    4.8326    2.3067 C.ar      1 RES1    0.0000
     20 C12       11.9204    4.9776    2.6256 C.ar      1 RES1    0.0000
     21 H9        11.5900    5.8367    2.8581 H         1 RES1    0.0000
     22 C13       11.0493    3.9052    2.6124 C.ar      1 RES1    0.0000
     23 C14        9.6749    4.0286    2.9935 C.ar      1 RES1    0.0000
     24 H10        9.3617    4.8547    3.3419 H         1 RES1    0.0000
     25 C15        8.8121    2.9934    2.8683 C.ar      1 RES1    0.0000
     26 H11        7.9068    3.1032    3.1358 H         1 RES1    0.0000
     27 C16        9.2470    1.7273    2.3355 C.ar      1 RES1    0.0000
     28 C17        8.3731    0.6399    2.2305 C.ar      1 RES1    0.0000
     29 H12        7.4696    0.7481    2.5058 H         1 RES1    0.0000
     30 C18        8.7851   -0.6030    1.7343 C.ar      1 RES1    0.0000
     31 C19       10.1030   -0.7256    1.3081 C.ar      1 RES1    0.0000
     32 H13       10.3947   -1.5552    0.9465 H         1 RES1    0.0000
     33 C20       11.0187    0.3387    1.3937 C.ar      1 RES1    0.0000
     34 C21       12.3684    0.2426    0.9372 C.ar      1 RES1    0.0000
     35 H14       12.6488   -0.5446    0.4845 H         1 RES1    0.0000
     36 C22       13.2617    1.2475    1.1324 C.ar      1 RES1    0.0000
     37 H15       14.1505    1.1427    0.8135 H         1 RES1    0.0000
     38 C23       12.9041    2.4674    1.8074 C.ar      1 RES1    0.0000
     39 C24       13.8337    3.5465    2.0400 C.ar      1 RES1    0.0000
     40 C25       15.2834    3.4419    1.9342 C.ar      1 RES1    0.0000
     41 C26       16.0674    2.2472    2.1916 C.ar      1 RES1    0.0000
     42 C27       10.5965    1.5798    1.9420 C.ar      1 RES1    0.0000
     43 C28       11.5303    2.6488    2.1209 C.ar      1 RES1    0.0000
     44 C29        7.8216   -1.8064    1.7328 C.3       1 RES1    0.0000
     45 C30        8.0316   -2.5897    3.0456 C.3       1 RES1    0.0000
     46 H16        8.9689   -2.8711    3.1125 H         1 RES1    0.0000
     47 H17        7.4520   -3.3799    3.0502 H         1 RES1    0.0000
     48 H18        7.8077   -2.0158    3.8077 H         1 RES1    0.0000
     49 C31        8.1064   -2.7441    0.5467 C.3       1 RES1    0.0000
     50 H19        8.0902   -2.2301   -0.2870 H         1 RES1    0.0000
     51 H20        7.4221   -3.4442    0.5125 H         1 RES1    0.0000
     52 H21        8.9879   -3.1549    0.6603 H         1 RES1    0.0000
     53 C32        6.3433   -1.3687    1.6597 C.3       1 RES1    0.0000
     54 H22        6.1223   -0.8302    2.4483 H         1 RES1    0.0000
     55 H23        5.7691   -2.1622    1.6332 H         1 RES1    0.0000
     56 H24        6.2002   -0.8356    0.8501 H         1 RES1    0.0000
@<TRIPOS>BOND
     1    1    2 1
     2    3    1 ar
     3    4    3 1
     4    5    3 ar
     5    6    5 1
     6    7    5 ar
     7    8    7 1
     8    9    7 ar
     9   10    9 ar
    10   11   10 1
    11   12   10 ar
    12   13   12 1
    13   14   12 ar
    14   15   14 ar
    15   16   15 1
    16   17   15 ar
    17   18   17 1
    18   19   17 ar
    19   20   19 ar
    20   21   20 1
    21   22   20 ar
    22   23   22 ar
    23   24   23 1
    24   25   23 ar
    25   26   25 1
    26   27   25 ar
    27   28   27 ar
    28   29   28 1
    29   30   28 ar
    30   31   30 ar
    31   32   31 1
    32   33   31 ar
    33   34   33 ar
    34   35   34 1
    35   36   34 ar
    36   37   36 1
    37   38   36 ar
    38   39   19 ar
    39   40   14 ar
    40   41    1 ar
    41   42   27 ar
    42   43   22 ar
    43   44   30 1
    44   45   44 1
    45   46   45 1
    46   47   45 1
    47   48   45 1
    48   49   44 1
    49   50   49 1
    50   51   49 1
    51   52   49 1
    52   53   44 1
    53   54   53 1
    54   55   53 1
    55   56   53 1
    56    9   41 ar
    57   33   42 ar
    58   38   39 ar
    59   38   43 ar
    60   39   40 ar
    61   40   41 ar
    62   42   43 ar
@<TRIPOS>SUBSTRUCTURE
     1 RES1 1

@<TRIPOS>CRYSIN
  14.8180   17.8548    7.8940  90.0000  99.8660  90.0000  14 1

