# MOL2 file generated by ConQuest
# Please check atom types

@<TRIPOS>MOLECULE
MIVFED
    52    56     1
SMALL
NO_CHARGES
****
Generated from CSD

@<TRIPOS>ATOM
      1 C1         3.0760    9.9110    2.7074 C.1       1 RES1    0.0000
      2 C2         3.3734    8.9419    2.0774 C.1       1 RES1    0.0000
      3 C3         3.8505    7.6352    1.5388 C.3       1 RES1    0.0000
      4 H1         3.0602    7.0934    1.2899 H         1 RES1    0.0000
      5 H2         4.3638    7.8099    0.7103 H         1 RES1    0.0000
      6 C4         4.6260    6.9010    2.3751 C.3       1 RES1    0.0000
      7 H3         5.4534    6.6676    1.8837 H         1 RES1    0.0000
      8 H4         4.1479    6.0538    2.5562 H         1 RES1    0.0000
      9 C5         5.0226    7.4663    3.6603 C.1       1 RES1    0.0000
     10 C6         5.1606    7.9802    4.6998 C.1       1 RES1    0.0000
     11 C7         5.1198    8.8215    5.9000 C.ar      1 RES1    0.0000
     12 C8         3.9052    9.1314    6.4418 C.ar      1 RES1    0.0000
     13 H5         3.1195    8.7114    6.1110 H         1 RES1    0.0000
     14 C9         3.8107   10.0623    7.4813 C.ar      1 RES1    0.0000
     15 H6         2.9620   10.2605    7.8593 H         1 RES1    0.0000
     16 C10        4.9281   10.6892    7.9553 C.ar      1 RES1    0.0000
     17 C11        6.2011   10.3339    7.4655 C.ar      1 RES1    0.0000
     18 C12        7.3694   10.9388    7.9585 C.ar      1 RES1    0.0000
     19 H7         7.3027   11.5952    8.6420 H         1 RES1    0.0000
     20 C13        8.6007   10.5997    7.4687 C.ar      1 RES1    0.0000
     21 H8         9.3864   11.0152    7.8057 H         1 RES1    0.0000
     22 C14        8.6841    9.6262    6.4622 C.ar      1 RES1    0.0000
     23 H9         9.5392    9.3560    6.1488 H         1 RES1    0.0000
     24 C15        7.5686    9.0594    5.9236 C.ar      1 RES1    0.0000
     25 H10        7.6529    8.4427    5.2069 H         1 RES1    0.0000
     26 C16        6.2965    9.3810    6.4197 C.ar      1 RES1    0.0000
     27 C17        4.7316   11.7993    8.8673 C.1       1 RES1    0.0000
     28 C18        4.5102   12.7757    9.4847 C.1       1 RES1    0.0000
     29 C19        4.0284   14.0722   10.0044 C.3       1 RES1    0.0000
     30 H11        3.8190   13.9650   10.9652 H         1 RES1    0.0000
     31 H12        4.7622   14.7315    9.9304 H         1 RES1    0.0000
     32 C20        2.9592   14.5655    9.3949 C.3       1 RES1    0.0000
     33 H13        3.0436   15.5522    9.3933 H         1 RES1    0.0000
     34 H14        2.1689   14.3424    9.9477 H         1 RES1    0.0000
     35 C21        2.6655   14.1339    7.9947 C.1       1 RES1    0.0000
     36 C22        2.6340   13.6097    6.9332 C.1       1 RES1    0.0000
     37 C23        2.7267   12.8550    5.7220 C.ar      1 RES1    0.0000
     38 C24        1.6260   12.2427    5.2101 C.ar      1 RES1    0.0000
     39 H15        0.7690   12.4556    5.5598 H         1 RES1    0.0000
     40 C25        1.7316   11.3074    4.1738 C.ar      1 RES1    0.0000
     41 H16        0.9460   10.8786    3.8556 H         1 RES1    0.0000
     42 C26        2.9277   10.9946    3.6146 C.ar      1 RES1    0.0000
     43 C27        4.1137   11.6891    4.0698 C.ar      1 RES1    0.0000
     44 C28        5.3691   11.4160    3.5406 C.ar      1 RES1    0.0000
     45 H17        5.4580   10.7612    2.8571 H         1 RES1    0.0000
     46 C29        6.4670   12.0709    3.9863 C.ar      1 RES1    0.0000
     47 H18        7.3138   11.8918    3.5942 H         1 RES1    0.0000
     48 C30        6.3641   13.0106    5.0195 C.ar      1 RES1    0.0000
     49 H19        7.1424   13.4628    5.3235 H         1 RES1    0.0000
     50 C31        5.1588   13.2852    5.5960 C.ar      1 RES1    0.0000
     51 H20        5.0995   13.9151    6.3063 H         1 RES1    0.0000
     52 C32        4.0099   12.6318    5.1345 C.ar      1 RES1    0.0000
@<TRIPOS>BOND
     1    1    2 3
     2    2    3 1
     3    3    4 1
     4    5    3 1
     5    6    3 1
     6    7    6 1
     7    8    6 1
     8    9    6 1
     9   10    9 3
    10   11   10 1
    11   12   11 ar
    12   13   12 1
    13   14   12 ar
    14   15   14 1
    15   16   14 ar
    16   17   16 ar
    17   18   17 ar
    18   19   18 1
    19   20   18 ar
    20   21   20 1
    21   22   20 ar
    22   23   22 1
    23   24   22 ar
    24   25   24 1
    25   26   11 ar
    26   27   16 1
    27   28   27 3
    28   29   28 1
    29   30   29 1
    30   31   29 1
    31   32   29 1
    32   33   32 1
    33   34   32 1
    34   35   32 1
    35   36   35 3
    36   37   36 1
    37   38   37 ar
    38   39   38 1
    39   40   38 ar
    40   41   40 1
    41   42    1 1
    42   43   42 ar
    43   44   43 ar
    44   45   44 1
    45   46   44 ar
    46   47   46 1
    47   48   46 ar
    48   49   48 1
    49   50   48 ar
    50   51   50 1
    51   52   37 ar
    52   17   26 ar
    53   24   26 ar
    54   40   42 ar
    55   43   52 ar
    56   50   52 ar
@<TRIPOS>SUBSTRUCTURE
     1 RES1 1

@<TRIPOS>CRYSIN
   9.2650   14.6830   15.7500  90.0000  90.0000  90.0000  29 1

