# MOL2 file generated by ConQuest
# Please check atom types

@<TRIPOS>MOLECULE
MOKQAE
    72    74     1
SMALL
NO_CHARGES
****
Generated from CSD

@<TRIPOS>ATOM
      1 C1         6.8609    8.3433    1.7568 C.ar      1 RES1    0.0000
      2 C2         6.4786    9.0931    2.8436 C.ar      1 RES1    0.0000
      3 C3         5.0937    9.3816    3.1002 C.ar      1 RES1    0.0000
      4 C4         4.1059    8.9071    2.2664 C.ar      1 RES1    0.0000
      5 C5         4.4701    8.1265    1.1146 C.ar      1 RES1    0.0000
      6 C6         5.8476    7.8321    0.8650 C.ar      1 RES1    0.0000
      7 C7         3.5167    7.6095    0.2349 C.ar      1 RES1    0.0000
      8 C8         8.3042    7.9859    1.5072 C.3       1 RES1    0.0000
      9 C9         8.6957    6.6562    2.0991 C.3       1 RES1    0.0000
     10 C10        7.5344    9.6467    3.7883 C.3       1 RES1    0.0000
     11 C11        8.0033   11.0321    3.3983 C.3       1 RES1    0.0000
     12 C12        4.7273   10.1695    4.3491 C.3       1 RES1    0.0000
     13 C13        4.5414    9.2586    5.5512 C.3       1 RES1    0.0000
     14 C14        2.6294    9.1473    2.5507 C.3       1 RES1    0.0000
     15 C15        2.0491   10.2954    1.8019 C.3       1 RES1    0.0000
     16 H1         8.4470    7.9522    0.5720 H         1 RES1    0.0000
     17 H2         8.8574    8.6552    1.8894 H         1 RES1    0.0000
     18 H3         7.1679    9.6803    4.6628 H         1 RES1    0.0000
     19 H4         8.2848    9.0653    3.7874 H         1 RES1    0.0000
     20 H5         5.4276   10.7934    4.5328 H         1 RES1    0.0000
     21 H6         3.9196   10.6469    4.1948 H         1 RES1    0.0000
     22 H7         2.1479    8.3623    2.3141 H         1 RES1    0.0000
     23 H8         2.5236    9.3142    3.4841 H         1 RES1    0.0000
     24 H9         8.5668    6.6781    3.0421 H         1 RES1    0.0000
     25 H10        8.1563    5.9752    1.7247 H         1 RES1    0.0000
     26 H11        9.6109    6.4877    1.9067 H         1 RES1    0.0000
     27 H12        8.6495   11.3352    4.0301 H         1 RES1    0.0000
     28 H13        8.4011   10.9984    2.5307 H         1 RES1    0.0000
     29 H14        7.2665   11.6281    3.3888 H         1 RES1    0.0000
     30 H15        4.2950    9.7829    6.3095 H         1 RES1    0.0000
     31 H16        3.8597    8.6259    5.3648 H         1 RES1    0.0000
     32 H17        5.3556    8.8016    5.7288 H         1 RES1    0.0000
     33 H18        2.5342   11.0863    2.0107 H         1 RES1    0.0000
     34 H19        2.1077   10.1343    0.8667 H         1 RES1    0.0000
     35 H20        1.1369   10.4126    2.0454 H         1 RES1    0.0000
     36 H21        2.6657    7.8058    0.3813 H         1 RES1    0.0000
     37 C7B        6.1643    7.0355   -0.2349 C.ar      1 RES1    0.0000
     38 C5B        5.2109    6.5185   -1.1146 C.ar      1 RES1    0.0000
     39 C4B        5.5751    5.7379   -2.2664 C.ar      1 RES1    0.0000
     40 C3B        4.5873    5.2634   -3.1002 C.ar      1 RES1    0.0000
     41 C2B        3.2024    5.5519   -2.8436 C.ar      1 RES1    0.0000
     42 C1B        2.8201    6.3017   -1.7568 C.ar      1 RES1    0.0000
     43 C6B        3.8334    6.8129   -0.8650 C.ar      1 RES1    0.0000
     44 C8B        1.3768    6.6591   -1.5072 C.3       1 RES1    0.0000
     45 C9B        0.9853    7.9888   -2.0991 C.3       1 RES1    0.0000
     46 H9B        1.1142    7.9669   -3.0421 H         1 RES1    0.0000
     47 H10B       1.5247    8.6698   -1.7247 H         1 RES1    0.0000
     48 H11B       0.0701    8.1573   -1.9067 H         1 RES1    0.0000
     49 H1B        1.2340    6.6928   -0.5720 H         1 RES1    0.0000
     50 H2B        0.8236    5.9898   -1.8894 H         1 RES1    0.0000
     51 C10B       2.1466    4.9983   -3.7883 C.3       1 RES1    0.0000
     52 C11B       1.6777    3.6129   -3.3983 C.3       1 RES1    0.0000
     53 H12B       1.0315    3.3098   -4.0301 H         1 RES1    0.0000
     54 H13B       1.2799    3.6466   -2.5307 H         1 RES1    0.0000
     55 H14B       2.4145    3.0169   -3.3888 H         1 RES1    0.0000
     56 H3B        2.5131    4.9647   -4.6628 H         1 RES1    0.0000
     57 H4B        1.3962    5.5797   -3.7874 H         1 RES1    0.0000
     58 C12B       4.9537    4.4755   -4.3491 C.3       1 RES1    0.0000
     59 C13B       5.1396    5.3864   -5.5512 C.3       1 RES1    0.0000
     60 H15B       5.3860    4.8621   -6.3095 H         1 RES1    0.0000
     61 H16B       5.8213    6.0191   -5.3648 H         1 RES1    0.0000
     62 H17B       4.3254    5.8434   -5.7288 H         1 RES1    0.0000
     63 H5B        4.2534    3.8516   -4.5328 H         1 RES1    0.0000
     64 H6B        5.7614    3.9981   -4.1948 H         1 RES1    0.0000
     65 C14B       7.0516    5.4977   -2.5507 C.3       1 RES1    0.0000
     66 C15B       7.6319    4.3496   -1.8019 C.3       1 RES1    0.0000
     67 H18B       7.1468    3.5587   -2.0107 H         1 RES1    0.0000
     68 H19B       7.5733    4.5107   -0.8667 H         1 RES1    0.0000
     69 H20B       8.5441    4.2324   -2.0454 H         1 RES1    0.0000
     70 H7B        7.5331    6.2827   -2.3141 H         1 RES1    0.0000
     71 H8B        7.1574    5.3308   -3.4841 H         1 RES1    0.0000
     72 H21B       7.0153    6.8392   -0.3813 H         1 RES1    0.0000
@<TRIPOS>BOND
     1    1    2 ar
     2    2    3 ar
     3    3    4 ar
     4    4    5 ar
     5    5    6 ar
     6    6    1 ar
     7    7    5 ar
     8    8    1 1
     9    9    8 1
    10   10    2 1
    11   11   10 1
    12   12    3 1
    13   13   12 1
    14   14    4 1
    15   15   14 1
    16   16    8 1
    17   17    8 1
    18   18   10 1
    19   19   10 1
    20   20   12 1
    21   21   12 1
    22   22   14 1
    23   23   14 1
    24   24    9 1
    25   25    9 1
    26   26    9 1
    27   27   11 1
    28   28   11 1
    29   29   11 1
    30   30   13 1
    31   31   13 1
    32   32   13 1
    33   33   15 1
    34   34   15 1
    35   35   15 1
    36   36    7 1
    37   37    6 ar
    38   38   37 ar
    39   39   38 ar
    40   40   39 ar
    41   41   40 ar
    42   42   41 ar
    43   43    7 ar
    44   44   42 1
    45   45   44 1
    46   46   45 1
    47   47   45 1
    48   48   45 1
    49   49   44 1
    50   50   44 1
    51   51   41 1
    52   52   51 1
    53   53   52 1
    54   54   52 1
    55   55   52 1
    56   56   51 1
    57   57   51 1
    58   58   40 1
    59   59   58 1
    60   60   59 1
    61   61   59 1
    62   62   59 1
    63   63   58 1
    64   64   58 1
    65   65   39 1
    66   66   65 1
    67   67   66 1
    68   68   66 1
    69   69   66 1
    70   70   65 1
    71   71   65 1
    72   72   37 1
    73   38   43 ar
    74   42   43 ar
@<TRIPOS>SUBSTRUCTURE
     1 RES1 1

@<TRIPOS>CRYSIN
   9.6810   14.6450    8.7040  90.0000  95.2900  90.0000  14 1

