# MOL2 file generated by ConQuest
# Please check atom types

@<TRIPOS>MOLECULE
MUDRIN
    36    40     1
SMALL
NO_CHARGES
****
Generated from CSD

@<TRIPOS>ATOM
      1 C1        -0.5291    3.7438   12.8790 C.1       1 RES1    0.0000
      2 C2        -1.3778    5.8253   11.5209 C.ar      1 RES1    0.0000
      3 C3         1.6086    3.6155   11.1079 C.1       1 RES1    0.0000
      4 C4        -0.9527    4.6994   12.2951 C.1       1 RES1    0.0000
      5 C5         2.0507    2.5029   11.8834 C.ar      1 RES1    0.0000
      6 C6         0.7221    7.3660    8.1199 C.ar      1 RES1    0.0000
      7 C7         3.0405    0.3064   13.3218 C.ar      1 RES1    0.0000
      8 C8        -1.1327    7.4356    9.6825 C.ar      1 RES1    0.0000
      9 C9         1.8285    0.9025   13.7425 C.ar      1 RES1    0.0000
     10 C10        1.1466    0.3915   14.8805 C.ar      1 RES1    0.0000
     11 C11       -2.5241    6.4878   11.8977 C.ar      1 RES1    0.0000
     12 C12        1.1815    4.5645   10.5150 C.1       1 RES1    0.0000
     13 C13       -0.4283    7.9422    8.5601 C.ar      1 RES1    0.0000
     14 C14        3.2296    1.8691   11.5248 C.ar      1 RES1    0.0000
     15 C15        1.3124    2.0295   13.0305 C.ar      1 RES1    0.0000
     16 C16       -2.9957    7.6082   11.1986 C.ar      1 RES1    0.0000
     17 C17       -0.0195    0.9655   15.3038 C.ar      1 RES1    0.0000
     18 C18       -0.5427    2.0671   14.6319 C.ar      1 RES1    0.0000
     19 C19        1.2343    6.2423    8.7905 C.ar      1 RES1    0.0000
     20 C20       -0.6295    6.2909   10.3765 C.ar      1 RES1    0.0000
     21 C21        0.0813    2.6068   13.5160 C.ar      1 RES1    0.0000
     22 C22       -2.3152    8.0694   10.1201 C.ar      1 RES1    0.0000
     23 C23        3.7277    0.7742   12.2369 C.ar      1 RES1    0.0000
     24 C24        0.5924    5.6992    9.8845 C.ar      1 RES1    0.0000
     25 H1         1.1759    7.7210    7.3652 H         1 RES1    0.0000
     26 H2         3.3839   -0.4358   13.8047 H         1 RES1    0.0000
     27 H3         1.5063   -0.3528   15.3492 H         1 RES1    0.0000
     28 H4        -3.0097    6.1770   12.6524 H         1 RES1    0.0000
     29 H5        -0.7684    8.7031    8.1057 H         1 RES1    0.0000
     30 H6         3.7143    2.1888   10.7713 H         1 RES1    0.0000
     31 H7        -3.7913    8.0428   11.4821 H         1 RES1    0.0000
     32 H8        -0.4753    0.6105   16.0586 H         1 RES1    0.0000
     33 H9        -1.3500    2.4609   14.9452 H         1 RES1    0.0000
     34 H10        2.0409    5.8463    8.4837 H         1 RES1    0.0000
     35 H11       -2.6399    8.8303    9.6528 H         1 RES1    0.0000
     36 H12        4.5400    0.3583   11.9689 H         1 RES1    0.0000
@<TRIPOS>BOND
     1    1    4 3
     2    2    4 1
     3    3    5 1
     4    5   14 ar
     5    6   13 ar
     6    7    9 ar
     7    8   13 ar
     8    9   10 ar
     9   10   17 ar
    10   11    2 ar
    11   12    3 3
    12   13   29 1
    13   14   23 ar
    14   15    5 ar
    15   16   11 ar
    16   17   18 ar
    17   18   21 ar
    18   19    6 ar
    19   20    2 ar
    20   21    1 1
    21   22    8 ar
    22   23    7 ar
    23   24   12 1
    24   25    6 1
    25   26    7 1
    26   27   10 1
    27   28   11 1
    28   30   14 1
    29   31   16 1
    30   32   17 1
    31   33   18 1
    32   34   19 1
    33   35   22 1
    34   36   23 1
    35    8   20 ar
    36    9   15 ar
    37   15   21 ar
    38   16   22 ar
    39   19   24 ar
    40   20   24 ar
@<TRIPOS>SUBSTRUCTURE
     1 RES1 1

@<TRIPOS>CRYSIN
  19.9320   11.0600   15.9930  90.0000 125.9530  90.0000  15 1

