# MOL2 file generated by ConQuest
# Please check atom types

@<TRIPOS>MOLECULE
NAMQOJ
    53    59     1
SMALL
NO_CHARGES
****
Generated from CSD

@<TRIPOS>ATOM
      1 C1        15.0351   18.4951    3.5825 C.3       1 RES1    0.0000
      2 C2        13.5719   18.0309    3.5149 C.ar      1 RES1    0.0000
      3 C3        12.6296   18.2638    2.4625 C.ar      1 RES1    0.0000
      4 C4        12.8798   19.1189    1.3581 C.ar      1 RES1    0.0000
      5 H1        13.7219   19.5284    1.2760 H         1 RES1    0.0000
      6 C5        11.9162   19.3615    0.4045 C.ar      1 RES1    0.0000
      7 H2        12.1088   19.9193   -0.3276 H         1 RES1    0.0000
      8 C6        10.6477   18.7764    0.5252 C.ar      1 RES1    0.0000
      9 H3         9.9813   18.9605   -0.1113 H         1 RES1    0.0000
     10 C7        10.3837   17.9408    1.5692 C.ar      1 RES1    0.0000
     11 H4         9.5286   17.5572    1.6389 H         1 RES1    0.0000
     12 C8        11.3557   17.6305    2.5540 C.ar      1 RES1    0.0000
     13 C9        11.1171   16.6474    3.5950 C.ar      1 RES1    0.0000
     14 C10        9.9879   15.8104    3.5648 C.ar      1 RES1    0.0000
     15 H5         9.3249   15.9606    2.9149 H         1 RES1    0.0000
     16 C11        9.8272   14.7892    4.4519 C.ar      1 RES1    0.0000
     17 H6         9.0533   14.2569    4.4228 H         1 RES1    0.0000
     18 C12       10.8197   14.5318    5.4097 C.ar      1 RES1    0.0000
     19 H7        10.7343   13.7981    5.9920 H         1 RES1    0.0000
     20 C13       11.9150   15.3524    5.4939 C.ar      1 RES1    0.0000
     21 H8        12.5718   15.1828    6.1449 H         1 RES1    0.0000
     22 C14       12.0720   16.4519    4.6162 C.ar      1 RES1    0.0000
     23 C15       13.2586   17.2859    4.6183 C.ar      1 RES1    0.0000
     24 C16       14.3795   17.3420    5.5667 C.ar      1 RES1    0.0000
     25 C17       14.4581   16.9941    6.9654 C.ar      1 RES1    0.0000
     26 C18       13.3281   16.8297    7.7848 C.ar      1 RES1    0.0000
     27 H9        12.4730   16.9523    7.4136 H         1 RES1    0.0000
     28 C19       13.4388   16.4941    9.1118 C.ar      1 RES1    0.0000
     29 H10       12.6664   16.3885    9.6380 H         1 RES1    0.0000
     30 C20       14.7040   16.3114    9.6765 C.ar      1 RES1    0.0000
     31 H11       14.7836   16.0223   10.5677 H         1 RES1    0.0000
     32 C21       15.8279   16.5538    8.9308 C.ar      1 RES1    0.0000
     33 H12       16.6725   16.4564    9.3333 H         1 RES1    0.0000
     34 C22       15.7556   16.9468    7.5685 C.ar      1 RES1    0.0000
     35 C23       16.9270   17.3544    6.8167 C.ar      1 RES1    0.0000
     36 C24       18.2346   17.2488    7.3346 C.ar      1 RES1    0.0000
     37 H13       18.3618   16.8412    8.1717 H         1 RES1    0.0000
     38 C25       19.3146   17.7181    6.6607 C.ar      1 RES1    0.0000
     39 H14       20.1745   17.6169    7.0278 H         1 RES1    0.0000
     40 C26       19.1562   18.3543    5.4159 C.ar      1 RES1    0.0000
     41 H15       19.9008   18.7095    4.9656 H         1 RES1    0.0000
     42 C27       17.8959   18.4504    4.8627 C.ar      1 RES1    0.0000
     43 H16       17.7959   18.8576    4.0224 H         1 RES1    0.0000
     44 C28       16.7606   17.9550    5.5220 C.ar      1 RES1    0.0000
     45 C29       15.4581   17.9288    4.9323 C.ar      1 RES1    0.0000
     46 C30       15.1721   20.0317    3.6189 C.3       1 RES1    0.0000
     47 H17       14.9071   20.4008    2.7620 H         1 RES1    0.0000
     48 H18       16.0943   20.2691    3.8030 H         1 RES1    0.0000
     49 H19       14.6005   20.3905    4.3157 H         1 RES1    0.0000
     50 C31       15.8137   17.8665    2.4147 C.3       1 RES1    0.0000
     51 H20       15.5141   18.2568    1.5796 H         1 RES1    0.0000
     52 H21       15.6561   16.9091    2.3991 H         1 RES1    0.0000
     53 H22       16.7610   18.0367    2.5301 H         1 RES1    0.0000
@<TRIPOS>BOND
     1    1    2 1
     2    2    3 ar
     3    3    4 ar
     4    4    5 1
     5    6    4 ar
     6    7    6 1
     7    8    6 ar
     8    9    8 1
     9   10    8 ar
    10   11   10 1
    11   12    3 ar
    12   13   12 ar
    13   14   13 ar
    14   15   14 1
    15   16   14 ar
    16   17   16 1
    17   18   16 ar
    18   19   18 1
    19   20   18 ar
    20   21   20 1
    21   22   13 ar
    22   23    2 ar
    23   24   23 1
    24   25   24 ar
    25   26   25 ar
    26   27   26 1
    27   28   26 ar
    28   29   28 1
    29   30   28 ar
    30   31   30 1
    31   32   30 ar
    32   33   32 1
    33   34   25 ar
    34   35   34 ar
    35   36   35 ar
    36   37   36 1
    37   38   36 ar
    38   39   38 1
    39   40   38 ar
    40   41   40 1
    41   42   40 ar
    42   43   42 1
    43   44   35 ar
    44   45    1 1
    45   46    1 1
    46   47   46 1
    47   48   46 1
    48   49   46 1
    49   50    1 1
    50   51   50 1
    51   52   50 1
    52   53   50 1
    53   10   12 ar
    54   20   22 ar
    55   22   23 ar
    56   24   45 ar
    57   32   34 ar
    58   42   44 ar
    59   44   45 ar
@<TRIPOS>SUBSTRUCTURE
     1 RES1 1

@<TRIPOS>CRYSIN
  20.5757   20.5757   10.3992  90.0000  90.0000  90.0000  79 1

