# MOL2 file generated by ConQuest
# Please check atom types

@<TRIPOS>MOLECULE
NAMQEZ
    59    65     1
SMALL
NO_CHARGES
****
Generated from CSD

@<TRIPOS>ATOM
      1 C1         8.7630    2.2109   17.0446 C.3       1 RES1    0.0000
      2 C2         9.2823    1.1210   17.9829 C.ar      1 RES1    0.0000
      3 C3         9.9603   -0.1003   17.6395 C.ar      1 RES1    0.0000
      4 C4        10.0972   -0.5640   16.3053 C.ar      1 RES1    0.0000
      5 H1         9.7494   -0.0465   15.6031 H         1 RES1    0.0000
      6 C5        10.7248   -1.7486   16.0162 C.ar      1 RES1    0.0000
      7 H2        10.8011   -2.0340   15.1232 H         1 RES1    0.0000
      8 C6        11.2454   -2.5237   17.0399 C.ar      1 RES1    0.0000
      9 H3        11.6865   -3.3285   16.8382 H         1 RES1    0.0000
     10 C7        11.1193   -2.1211   18.3461 C.ar      1 RES1    0.0000
     11 H4        11.4591   -2.6681   19.0311 H         1 RES1    0.0000
     12 C8        10.4910   -0.9027   18.6832 C.ar      1 RES1    0.0000
     13 C9        10.4475   -0.4153   20.0581 C.ar      1 RES1    0.0000
     14 C10       11.1165   -1.0843   21.1037 C.ar      1 RES1    0.0000
     15 H5        11.5146   -1.9193   20.9344 H         1 RES1    0.0000
     16 C11       11.2006   -0.5487   22.3584 C.ar      1 RES1    0.0000
     17 H6        11.6410   -1.0232   23.0402 H         1 RES1    0.0000
     18 C12       10.6394    0.6914   22.6312 C.ar      1 RES1    0.0000
     19 H7        10.7286    1.0728   23.4857 H         1 RES1    0.0000
     20 C13        9.9521    1.3610   21.6445 C.ar      1 RES1    0.0000
     21 H8         9.5817    2.2045   21.8314 H         1 RES1    0.0000
     22 C14        9.7921    0.8057   20.3594 C.ar      1 RES1    0.0000
     23 C15        9.0972    1.4872   19.2919 C.ar      1 RES1    0.0000
     24 C16        8.2670    2.7146   19.3150 C.ar      1 RES1    0.0000
     25 C17        7.5031    3.3142   20.3863 C.ar      1 RES1    0.0000
     26 C18        7.1832    2.6231   21.5692 C.ar      1 RES1    0.0000
     27 H9         7.4656    1.7332   21.6735 H         1 RES1    0.0000
     28 C19        6.4687    3.2231   22.5717 C.ar      1 RES1    0.0000
     29 H10        6.2661    2.7487   23.3581 H         1 RES1    0.0000
     30 C20        6.0444    4.5393   22.4218 C.ar      1 RES1    0.0000
     31 H11        5.6081    4.9749   23.1313 H         1 RES1    0.0000
     32 C21        6.2578    5.2019   21.2456 C.ar      1 RES1    0.0000
     33 H12        5.9378    6.0803   21.1490 H         1 RES1    0.0000
     34 C22        6.9465    4.6002   20.1745 C.ar      1 RES1    0.0000
     35 C23        7.0229    5.2186   18.8525 C.ar      1 RES1    0.0000
     36 C24        6.5122    6.5074   18.5984 C.ar      1 RES1    0.0000
     37 H13        6.1836    7.0198   19.3146 H         1 RES1    0.0000
     38 C25        6.4824    7.0317   17.3327 C.ar      1 RES1    0.0000
     39 H14        6.1353    7.8926   17.1885 H         1 RES1    0.0000
     40 C26        6.9646    6.2922   16.2638 C.ar      1 RES1    0.0000
     41 H15        6.9212    6.6446   15.3925 H         1 RES1    0.0000
     42 C27        7.5062    5.0453   16.4724 C.ar      1 RES1    0.0000
     43 H16        7.8408    4.5579   15.7428 H         1 RES1    0.0000
     44 C28        7.5665    4.4847   17.7739 C.ar      1 RES1    0.0000
     45 C29        8.1834    3.2079   18.0391 C.ar      1 RES1    0.0000
     46 C30        7.6280    1.7123   16.1038 C.3       1 RES1    0.0000
     47 H17        7.2581    2.4805   15.6193 H         1 RES1    0.0000
     48 H18        8.0127    1.1007   15.4411 H         1 RES1    0.0000
     49 C31        6.4983    1.0010   16.8281 C.3       1 RES1    0.0000
     50 H19        6.8459    0.2139   17.2756 H         1 RES1    0.0000
     51 H20        5.8198    0.7364   16.1883 H         1 RES1    0.0000
     52 H21        6.1069    1.5999   17.4841 H         1 RES1    0.0000
     53 C32        9.9592    2.7856   16.2306 C.3       1 RES1    0.0000
     54 H22       10.3918    2.0510   15.7448 H         1 RES1    0.0000
     55 H23        9.6130    3.4169   15.5667 H         1 RES1    0.0000
     56 C33       11.0035    3.4924   17.0772 C.3       1 RES1    0.0000
     57 H24       10.6078    4.2742   17.4922 H         1 RES1    0.0000
     58 H25       11.7448    3.7657   16.5143 H         1 RES1    0.0000
     59 H26       11.3241    2.8882   17.7656 H         1 RES1    0.0000
@<TRIPOS>BOND
     1    1    2 1
     2    2    3 ar
     3    3    4 ar
     4    4    5 1
     5    6    4 ar
     6    7    6 1
     7    8    6 ar
     8    9    8 1
     9   10    8 ar
    10   11   10 1
    11   12    3 ar
    12   13   12 ar
    13   14   13 ar
    14   15   14 1
    15   16   14 ar
    16   17   16 1
    17   18   16 ar
    18   19   18 1
    19   20   18 ar
    20   21   20 1
    21   22   13 ar
    22   23    2 ar
    23   24   23 1
    24   25   24 ar
    25   26   25 ar
    26   27   26 1
    27   28   26 ar
    28   29   28 1
    29   30   28 ar
    30   31   30 1
    31   32   30 ar
    32   33   32 1
    33   34   25 ar
    34   35   34 ar
    35   36   35 ar
    36   37   36 1
    37   38   36 ar
    38   39   38 1
    39   40   38 ar
    40   41   40 1
    41   42   40 ar
    42   43   42 1
    43   44   35 ar
    44   45    1 1
    45   46    1 1
    46   47   46 1
    47   48   46 1
    48   49   46 1
    49   50   49 1
    50   51   49 1
    51   52   49 1
    52   53    1 1
    53   54   53 1
    54   55   53 1
    55   56   53 1
    56   57   56 1
    57   58   56 1
    58   59   56 1
    59   10   12 ar
    60   20   22 ar
    61   22   23 ar
    62   24   45 ar
    63   32   34 ar
    64   42   44 ar
    65   44   45 ar
@<TRIPOS>SUBSTRUCTURE
     1 RES1 1

@<TRIPOS>CRYSIN
  14.2120   15.5030   20.2480  90.0000  90.0000  90.0000  61 3

