# MOL2 file generated by ConQuest
# Please check atom types

@<TRIPOS>MOLECULE
NAMYUV01
    31    34     1
SMALL
NO_CHARGES
****
Generated from CSD

@<TRIPOS>ATOM
      1 C1         4.2358    3.3871    6.9731 C.ar      1 RES1    0.0000
      2 C2         5.2805    4.0134    7.6660 C.ar      1 RES1    0.0000
      3 C3         6.0064    5.0385    7.0932 C.ar      1 RES1    0.0000
      4 C4         6.4900    6.5193    5.1555 C.ar      1 RES1    0.0000
      5 C5         6.1855    6.9493    3.9166 C.ar      1 RES1    0.0000
      6 C6         4.7389    6.8283    1.8953 C.ar      1 RES1    0.0000
      7 C7         3.6882    6.2410    1.2115 C.ar      1 RES1    0.0000
      8 C8         2.9667    5.2148    1.7744 C.ar      1 RES1    0.0000
      9 C9         2.5283    3.6791    3.6788 C.ar      1 RES1    0.0000
     10 C10        2.8368    3.2405    4.9201 C.ar      1 RES1    0.0000
     11 C11        5.7348    5.4756    5.7939 C.ar      1 RES1    0.0000
     12 C12        5.0910    6.3884    3.1806 C.ar      1 RES1    0.0000
     13 C13        3.2634    4.7427    3.0582 C.ar      1 RES1    0.0000
     14 C14        3.9155    3.8156    5.6702 C.ar      1 RES1    0.0000
     15 C15        4.6679    4.8740    5.0792 C.ar      1 RES1    0.0000
     16 C16        4.3392    5.3332    3.7732 C.ar      1 RES1    0.0000
     17 C17        3.5060    2.3282    7.6051 C.1       1 RES1    0.0000
     18 C18        2.9254    1.4468    8.1617 C.1       1 RES1    0.0000
     19 C19        2.2443    0.3750    8.8699 C.3       1 RES1    0.0000
     20 H1         5.4984    3.7294    8.5566 H         1 RES1    0.0000
     21 H2         6.7116    5.4559    7.5931 H         1 RES1    0.0000
     22 H3         7.2273    6.9094    5.6307 H         1 RES1    0.0000
     23 H4         6.7024    7.6491    3.5103 H         1 RES1    0.0000
     24 H5         5.2233    7.5550    1.4964 H         1 RES1    0.0000
     25 H6         3.4640    6.5400    0.3276 H         1 RES1    0.0000
     26 H7         2.2510    4.8086    1.2803 H         1 RES1    0.0000
     27 H8         1.8050    3.2822    3.1881 H         1 RES1    0.0000
     28 H9         2.3272    2.5257    5.3095 H         1 RES1    0.0000
     29 H10        1.5006    0.0764    8.3414 H         1 RES1    0.0000
     30 H11        2.8498   -0.3564    9.0117 H         1 RES1    0.0000
     31 H12        1.9258    0.6962    9.7169 H         1 RES1    0.0000
@<TRIPOS>BOND
     1    1    2 ar
     2    2    3 ar
     3    3   11 ar
     4    4    5 ar
     5    5   12 ar
     6    6    7 ar
     7    7    8 ar
     8    8   13 ar
     9    9   10 ar
    10   10   14 ar
    11   11    4 ar
    12   12    6 ar
    13   13    9 ar
    14   14    1 ar
    15   15   11 ar
    16   16   12 ar
    17   17    1 1
    18   18   17 3
    19   19   18 1
    20   20    2 1
    21   21    3 1
    22   22    4 1
    23   23    5 1
    24   24    6 1
    25   25    7 1
    26   26    8 1
    27   27    9 1
    28   28   10 1
    29   29   19 1
    30   30   19 1
    31   31   19 1
    32   13   16 ar
    33   14   15 ar
    34   15   16 ar
@<TRIPOS>SUBSTRUCTURE
     1 RES1 1

@<TRIPOS>CRYSIN
   8.9700   10.1400   14.0800  90.0000  99.8000  90.0000 231 1

