# MOL2 file generated by ConQuest
# Please check atom types

@<TRIPOS>MOLECULE
NAMZIK
    29    31     1
SMALL
NO_CHARGES
****
Generated from CSD

@<TRIPOS>ATOM
      1 C1         7.3130    1.2344    5.8031 C.ar      1 RES1    0.0000
      2 C2         7.3119    0.0741    6.6103 C.ar      1 RES1    0.0000
      3 C3         6.3376   -0.1186    7.5525 C.ar      1 RES1    0.0000
      4 C4         5.3381    0.8113    7.6994 C.ar      1 RES1    0.0000
      5 C5         5.3045    1.9405    6.9382 C.ar      1 RES1    0.0000
      6 C6         6.2835    2.1885    5.9723 C.ar      1 RES1    0.0000
      7 C7         6.3164    3.3919    5.1503 C.ar      1 RES1    0.0000
      8 C8         5.3716    4.4242    5.2808 C.ar      1 RES1    0.0000
      9 C9         5.4081    5.5467    4.5108 C.ar      1 RES1    0.0000
     10 C10        6.4230    5.7111    3.5804 C.ar      1 RES1    0.0000
     11 C11        7.3654    4.7395    3.4172 C.ar      1 RES1    0.0000
     12 C12        7.3354    3.5550    4.1784 C.ar      1 RES1    0.0000
     13 C13        8.3108    2.5187    3.9988 C.ar      1 RES1    0.0000
     14 C14        8.3038    1.4258    4.7971 C.ar      1 RES1    0.0000
     15 C15        9.3192    2.6305    2.9646 C.1       1 RES1    0.0000
     16 C16       10.1469    2.6844    2.1159 C.1       1 RES1    0.0000
     17 C17       11.1906    2.7181    1.1099 C.3       1 RES1    0.0000
     18 H1         7.9941   -0.5768    6.4990 H         1 RES1    0.0000
     19 H2         6.3523   -0.8921    8.1030 H         1 RES1    0.0000
     20 H3         4.6564    0.6644    8.3449 H         1 RES1    0.0000
     21 H4         4.6040    2.5699    7.0644 H         1 RES1    0.0000
     22 H5         4.6835    4.3352    5.9293 H         1 RES1    0.0000
     23 H6         4.7400    6.2151    4.6087 H         1 RES1    0.0000
     24 H7         6.4630    6.5035    3.0566 H         1 RES1    0.0000
     25 H8         8.0559    4.8635    2.7777 H         1 RES1    0.0000
     26 H9         8.9784    0.7668    4.6829 H         1 RES1    0.0000
     27 H10       12.0142    2.4499    1.4986 H         1 RES1    0.0000
     28 H11       11.2736    3.6021    0.7701 H         1 RES1    0.0000
     29 H12       10.9669    2.1265    0.4021 H         1 RES1    0.0000
@<TRIPOS>BOND
     1    1    2 ar
     2    2    3 ar
     3    3    4 ar
     4    4    5 ar
     5    5    6 ar
     6    6    1 ar
     7    7    6 ar
     8    8    7 ar
     9    9    8 ar
    10   10    9 ar
    11   11   10 ar
    12   12    7 ar
    13   13   12 ar
    14   14    1 ar
    15   15   13 1
    16   16   15 3
    17   17   16 1
    18   18    2 1
    19   19    3 1
    20   20    4 1
    21   21    5 1
    22   22    8 1
    23   23    9 1
    24   24   10 1
    25   25   11 1
    26   26   14 1
    27   27   17 1
    28   28   17 1
    29   29   17 1
    30   11   12 ar
    31   13   14 ar
@<TRIPOS>SUBSTRUCTURE
     1 RES1 1

@<TRIPOS>CRYSIN
   5.8867   13.4760   14.8380  90.0000  90.0000  90.0000  19 1

