# MOL2 file generated by ConQuest
# Please check atom types

@<TRIPOS>MOLECULE
NAPANT01
    52    60     1
SMALL
NO_CHARGES
****
Generated from CSD

@<TRIPOS>ATOM
      1 C1         8.5023    3.0915   13.9748 C.ar      1 RES1    0.0000
      2 C2         9.2686    3.1992   15.1442 C.ar      1 RES1    0.0000
      3 C3        10.4581    2.5750   15.2485 C.ar      1 RES1    0.0000
      4 C4        12.2844    1.2703   14.1987 C.ar      1 RES1    0.0000
      5 C5        12.7979    0.6679   13.1119 C.ar      1 RES1    0.0000
      6 C6        12.0938    0.6383   11.9121 C.ar      1 RES1    0.0000
      7 C7        10.6693    0.8123    9.3571 C.ar      1 RES1    0.0000
      8 C8         9.9651    0.8443    8.1616 C.ar      1 RES1    0.0000
      9 C9         8.6882    1.3164    8.1041 C.ar      1 RES1    0.0000
     10 C10        6.6759    3.1774    6.9173 C.ar      1 RES1    0.0000
     11 C11        5.9982    3.5433    5.7512 C.ar      1 RES1    0.0000
     12 C12        4.6626    3.4169    5.6795 C.ar      1 RES1    0.0000
     13 C13        2.4982    2.9456    6.7858 C.ar      1 RES1    0.0000
     14 C14        1.8083    2.6273    7.8889 C.ar      1 RES1    0.0000
     15 C15        2.4661    2.4119    9.0984 C.ar      1 RES1    0.0000
     16 C16        3.8951    2.3620   11.6632 C.ar      1 RES1    0.0000
     17 C17        4.5706    2.1880   12.8728 C.ar      1 RES1    0.0000
     18 C18        5.9085    2.0943   12.8989 C.ar      1 RES1    0.0000
     19 C19       11.0107    1.8657   14.1563 C.ar      1 RES1    0.0000
     20 C20       10.8324    1.1915   11.8034 C.ar      1 RES1    0.0000
     21 C21       10.1041    1.2298   10.5286 C.ar      1 RES1    0.0000
     22 C22        8.0405    1.7869    9.2658 C.ar      1 RES1    0.0000
     23 C23        6.7013    2.2566    9.2484 C.ar      1 RES1    0.0000
     24 C24        6.0084    2.6983    8.0225 C.ar      1 RES1    0.0000
     25 C25        3.8980    3.0143    6.7923 C.ar      1 RES1    0.0000
     26 C26        3.8436    2.4696    9.1952 C.ar      1 RES1    0.0000
     27 C27        4.5588    2.3721   10.4710 C.ar      1 RES1    0.0000
     28 C28        6.6914    2.1770   11.7143 C.ar      1 RES1    0.0000
     29 C29        8.1043    2.0873   11.7143 C.ar      1 RES1    0.0000
     30 C30        8.9300    2.3237   12.9195 C.ar      1 RES1    0.0000
     31 C31       10.2487    1.7806   12.9587 C.ar      1 RES1    0.0000
     32 C32        8.7470    1.7135   10.5167 C.ar      1 RES1    0.0000
     33 C33        4.5875    2.7022    8.0084 C.ar      1 RES1    0.0000
     34 C34        5.9945    2.2793   10.4613 C.ar      1 RES1    0.0000
     35 H1         7.6557    3.6206   13.9107 H         1 RES1    0.0000
     36 H2         8.9417    3.6986   15.8995 H         1 RES1    0.0000
     37 H3        10.9944    2.6296   16.0190 H         1 RES1    0.0000
     38 H4        12.7436    1.3499   15.0300 H         1 RES1    0.0000
     39 H5        13.7602    0.2419   13.0847 H         1 RES1    0.0000
     40 H6        12.4973    0.2419   11.1177 H         1 RES1    0.0000
     41 H7        11.5606    0.5150    9.3354 H         1 RES1    0.0000
     42 H8        10.3213    0.5618    7.3683 H         1 RES1    0.0000
     43 H9         8.2337    1.2953    7.2270 H         1 RES1    0.0000
     44 H10        7.6258    3.2304    6.9662 H         1 RES1    0.0000
     45 H11        6.5167    3.8625    4.9883 H         1 RES1    0.0000
     46 H12        4.1923    3.6440    4.8687 H         1 RES1    0.0000
     47 H13        2.0154    3.1368    5.9555 H         1 RES1    0.0000
     48 H14        0.8218    2.6296    7.8900 H         1 RES1    0.0000
     49 H15        1.9411    2.2863    9.9331 H         1 RES1    0.0000
     50 H16        2.9371    2.4814   11.7045 H         1 RES1    0.0000
     51 H17        4.0575    2.1380   13.7042 H         1 RES1    0.0000
     52 H18        6.3384    1.9351   13.6716 H         1 RES1    0.0000
@<TRIPOS>BOND
     1    1    2 ar
     2    2    3 ar
     3    3   19 ar
     4    4    5 ar
     5    5    6 ar
     6    6   20 ar
     7    7    8 ar
     8    8    9 ar
     9    9   22 ar
    10   10   11 ar
    11   11   12 ar
    12   12   25 ar
    13   13   14 ar
    14   14   15 ar
    15   15   26 ar
    16   16   17 ar
    17   17   18 ar
    18   18   28 ar
    19   19    4 ar
    20   20   21 ar
    21   21    7 ar
    22   22   23 ar
    23   23   24 ar
    24   24   10 ar
    25   25   13 ar
    26   26   27 ar
    27   27   16 ar
    28   28   29 ar
    29   29   30 ar
    30   30    1 ar
    31   31   19 ar
    32   32   21 ar
    33   33   24 ar
    34   34   23 ar
    35   35    1 1
    36   36    2 1
    37   37    3 1
    38   38    4 1
    39   39    5 1
    40   40    6 1
    41   41    7 1
    42   42    8 1
    43   43    9 1
    44   44   10 1
    45   45   11 1
    46   46   12 1
    47   47   13 1
    48   48   14 1
    49   49   15 1
    50   50   16 1
    51   51   17 1
    52   52   18 1
    53   20   31 ar
    54   22   32 ar
    55   25   33 ar
    56   26   33 ar
    57   27   34 ar
    58   28   34 ar
    59   29   32 ar
    60   30   31 ar
@<TRIPOS>SUBSTRUCTURE
     1 RES1 1

@<TRIPOS>CRYSIN
  11.8140    7.8030   10.8710  90.0000  91.4100  90.0000   4 1

