# MOL2 file generated by ConQuest
# Please check atom types

@<TRIPOS>MOLECULE
NAPANT
    34    42     1
SMALL
NO_CHARGES
****
Generated from CSD

@<TRIPOS>ATOM
      1 C1         1.0694    2.2394    1.6407 C.ar      1 RES1    0.0000
      2 C2         0.4614    2.2394    0.4130 C.ar      1 RES1    0.0000
      3 C3         2.3263    2.0436    1.5849 C.ar      1 RES1    0.0000
      4 C4         3.0299    1.7618    2.8126 C.ar      1 RES1    0.0000
      5 C5         4.5223    1.8949    2.8461 C.ar      1 RES1    0.0000
      6 C6         5.2886    1.5425    1.6183 C.ar      1 RES1    0.0000
      7 C7        -0.8535    1.8949    0.4241 C.ar      1 RES1    0.0000
      8 C8        -1.7186    1.8949    1.7300 C.ar      1 RES1    0.0000
      9 C9        -3.2637    1.5895    1.8192 C.ar      1 RES1    0.0000
     10 C10       -3.9743    1.5425    3.1474 C.ar      1 RES1    0.0000
     11 C11       -3.3326    2.0436    4.1296 C.ar      1 RES1    0.0000
     12 C12       -1.8495    2.0201    4.0961 C.ar      1 RES1    0.0000
     13 C13       -1.3229    3.2181    5.2680 C.ar      1 RES1    0.0000
     14 C14       -0.0373    2.7405    5.3908 C.ar      1 RES1    0.0000
     15 C15        0.7065    3.3043    4.1296 C.ar      1 RES1    0.0000
     16 C16        0.2406    2.6779    2.9353 C.ar      1 RES1    0.0000
     17 C17       -1.1690    2.5448    2.9242 C.ar      1 RES1    0.0000
     18 C18        2.6051    1.9575   -0.8929 C.ar      1 RES1    0.0000
     19 C19        3.0922    1.8244    0.3683 C.ar      1 RES1    0.0000
     20 C20        1.3220    1.8949   -0.7813 C.ar      1 RES1    0.0000
     21 C21        0.6140    1.6991   -1.8974 C.ar      1 RES1    0.0000
     22 C22       -0.7209    1.6286   -1.9867 C.ar      1 RES1    0.0000
     23 C23       -1.6200    1.9105   -0.7255 C.ar      1 RES1    0.0000
     24 C24        4.6121    1.4564    0.3125 C.ar      1 RES1    0.0000
     25 C25        5.2916    1.0022   -0.8371 C.ar      1 RES1    0.0000
     26 C26        6.8532    1.1510   -1.0380 C.ar      1 RES1    0.0000
     27 C27        7.5354    1.4172   -2.2545 C.ar      1 RES1    0.0000
     28 C28        7.0048    1.2606   -3.3260 C.ar      1 RES1    0.0000
     29 C29        5.6186    1.7148   -3.3260 C.ar      1 RES1    0.0000
     30 C30        5.1036    1.7148   -4.4867 C.ar      1 RES1    0.0000
     31 C31        3.8524    2.3725   -4.5760 C.ar      1 RES1    0.0000
     32 C32        3.0250    2.2159   -3.3148 C.ar      1 RES1    0.0000
     33 C33        3.5180    1.8714   -2.1987 C.ar      1 RES1    0.0000
     34 C34        4.6510    1.6756   -2.1429 C.ar      1 RES1    0.0000
@<TRIPOS>BOND
     1    1    2 ar
     2    2    7 ar
     3    3    1 ar
     4    4    3 ar
     5    5    4 ar
     6    6    5 ar
     7    7    8 ar
     8    8    9 ar
     9    9   10 ar
    10   10   11 ar
    11   11   12 ar
    12   12   13 ar
    13   13   14 ar
    14   14   15 ar
    15   15   16 ar
    16   16    1 ar
    17   17    8 ar
    18   18   19 ar
    19   19    3 ar
    20   20    2 ar
    21   21   20 ar
    22   22   21 ar
    23   23    7 ar
    24   24    6 ar
    25   25   24 ar
    26   26   25 ar
    27   27   26 ar
    28   28   27 ar
    29   29   28 ar
    30   30   29 ar
    31   31   30 ar
    32   32   31 ar
    33   33   18 ar
    34   34   25 ar
    35   12   17 ar
    36   16   17 ar
    37   18   20 ar
    38   19   24 ar
    39   22   23 ar
    40   29   34 ar
    41   32   33 ar
    42   33   34 ar
@<TRIPOS>SUBSTRUCTURE
     1 RES1 1

@<TRIPOS>CRYSIN
  11.9500    7.8300   11.1700  90.0000  92.3000  90.0000   4 1

