# MOL2 file generated by ConQuest
# Please check atom types

@<TRIPOS>MOLECULE
NAPCPR
    19    21     1
SMALL
NO_CHARGES
****
Generated from CSD

@<TRIPOS>ATOM
      1 C1         2.8967    3.2837    4.7574 C.ar      1 RES1    0.0000
      2 C2         3.5118    4.0479    3.8493 C.ar      1 RES1    0.0000
      3 C3         4.9369    3.9866    1.8218 C.ar      1 RES1    0.0000
      4 C4         5.6226    3.3014    0.8652 C.ar      1 RES1    0.0000
      5 C5         4.2261    3.3190    2.8378 C.ar      1 RES1    0.0000
      6 C6         2.1461    2.5995    5.8667 C.3       1 RES1    0.0000
      7 H1         3.4287    5.0410    3.8385 H         1 RES1    0.0000
      8 H2         4.9198    4.9827    1.8473 H         1 RES1    0.0000
      9 H3         6.1944    3.8327    0.2518 H         1 RES1    0.0000
     10 H4         2.5630    2.5995    6.7766 H         1 RES1    0.0000
     11 H5         1.0616    2.5995    5.7746 H         1 RES1    0.0000
     12 C1B        2.8967    1.9153    4.7574 C.ar      1 RES1    0.0000
     13 C5B        4.2261    1.8800    2.8378 C.ar      1 RES1    0.0000
     14 C4B        5.6226    1.8976    0.8652 C.ar      1 RES1    0.0000
     15 C2B        3.5118    1.1511    3.8493 C.ar      1 RES1    0.0000
     16 C3B        4.9369    1.2124    1.8218 C.ar      1 RES1    0.0000
     17 H3B        6.1944    1.3663    0.2518 H         1 RES1    0.0000
     18 H1B        3.4287    0.1580    3.8385 H         1 RES1    0.0000
     19 H2B        4.9198    0.2163    1.8473 H         1 RES1    0.0000
@<TRIPOS>BOND
     1    1    2 ar
     2    2    5 ar
     3    3    4 ar
     4    4    9 1
     5    5    3 ar
     6    6    1 1
     7    7    2 1
     8    8    3 1
     9   10    6 1
    10   11    6 1
    11   12    1 ar
    12   13    5 ar
    13   14    4 ar
    14   15   12 ar
    15   16   13 ar
    16   17   14 1
    17   18   15 1
    18   19   16 1
    19    6   12 1
    20   13   15 ar
    21   14   16 ar
@<TRIPOS>SUBSTRUCTURE
     1 RES1 1

@<TRIPOS>CRYSIN
  11.3910   10.3980    6.3900  90.0000  90.0000  90.0000  62 1

