# MOL2 file generated by ConQuest
# Please check atom types

@<TRIPOS>MOLECULE
NAPHTA24
    18    19     1
SMALL
NO_CHARGES
****
Generated from CSD

@<TRIPOS>ATOM
      1 C1        -0.9538    0.1175    2.3400 C.ar      1 RES1    0.0000
      2 C2        -0.1855    0.9759    1.5866 C.ar      1 RES1    0.0000
      3 C3         0.2048    0.6287    0.2665 C.ar      1 RES1    0.0000
      4 C4         0.9914    1.4995   -0.5352 C.ar      1 RES1    0.0000
      5 C5        -1.3630   -1.1347    1.8084 C.ar      1 RES1    0.0000
      6 H1        -1.2364    0.3694    3.2867 H         1 RES1    0.0000
      7 H2         0.1193    1.8326    1.9321 H         1 RES1    0.0000
      8 H3         1.2672    2.3344   -0.1783 H         1 RES1    0.0000
      9 H4        -1.9402   -1.7512    2.3526 H         1 RES1    0.0000
     10 C1B        0.9538   -0.1175   -2.3400 C.ar      1 RES1    0.0000
     11 C2B        0.1855   -0.9759   -1.5866 C.ar      1 RES1    0.0000
     12 C3B       -0.2048   -0.6287   -0.2665 C.ar      1 RES1    0.0000
     13 C4B       -0.9914   -1.4995    0.5352 C.ar      1 RES1    0.0000
     14 C5B        1.3630    1.1347   -1.8084 C.ar      1 RES1    0.0000
     15 H1B        1.2364   -0.3694   -3.2867 H         1 RES1    0.0000
     16 H2B       -0.1193   -1.8326   -1.9321 H         1 RES1    0.0000
     17 H3B       -1.2672   -2.3344    0.1783 H         1 RES1    0.0000
     18 H4B        1.9402    1.7512   -2.3526 H         1 RES1    0.0000
@<TRIPOS>BOND
     1    1    2 ar
     2    2    3 ar
     3    3    4 ar
     4    4    8 1
     5    5    1 ar
     6    6    1 1
     7    7    2 1
     8    9    5 1
     9   10   11 ar
    10   11   12 ar
    11   12    3 ar
    12   13    5 ar
    13   14    4 ar
    14   15   10 1
    15   16   11 1
    16   17   13 1
    17   18   14 1
    18   10   14 ar
    19   12   13 ar
@<TRIPOS>SUBSTRUCTURE
     1 RES1 1

@<TRIPOS>CRYSIN
   8.0847    5.9384    8.6343  90.0000 124.6460  90.0000  14 2

