# MOL2 file generated by ConQuest
# Please check atom types

@<TRIPOS>MOLECULE
NAPHTA34
    18    19     1
SMALL
NO_CHARGES
****
Generated from CSD

@<TRIPOS>ATOM
      1 C1        -0.9149    0.1125    2.3533 C.ar      1 RES1    0.0000
      2 C2        -0.1544    0.9699    1.5937 C.ar      1 RES1    0.0000
      3 C3         0.2116    0.6232    0.2664 C.ar      1 RES1    0.0000
      4 C4         0.9907    1.4922   -0.5420 C.ar      1 RES1    0.0000
      5 C5        -1.3388   -1.1302    1.8244 C.ar      1 RES1    0.0000
      6 H1        -1.1904    0.3942    3.3597 H         1 RES1    0.0000
      7 H2         0.1752    1.9250    1.9929 H         1 RES1    0.0000
      8 H3         1.3147    2.4442   -0.1276 H         1 RES1    0.0000
      9 H4        -1.9442   -1.7976    2.4274 H         1 RES1    0.0000
     10 C1B        0.9149   -0.1125   -2.3533 C.ar      1 RES1    0.0000
     11 C2B        0.1544   -0.9699   -1.5937 C.ar      1 RES1    0.0000
     12 C3B       -0.2116   -0.6232   -0.2664 C.ar      1 RES1    0.0000
     13 C4B       -0.9907   -1.4922    0.5420 C.ar      1 RES1    0.0000
     14 C5B        1.3388    1.1302   -1.8244 C.ar      1 RES1    0.0000
     15 H1B        1.1904   -0.3942   -3.3597 H         1 RES1    0.0000
     16 H2B       -0.1752   -1.9250   -1.9929 H         1 RES1    0.0000
     17 H3B       -1.3147   -2.4442    0.1276 H         1 RES1    0.0000
     18 H4B        1.9442    1.7976   -2.4274 H         1 RES1    0.0000
@<TRIPOS>BOND
     1    1    2 ar
     2    2    3 ar
     3    3    4 ar
     4    4    8 1
     5    5    1 ar
     6    6    1 1
     7    7    2 1
     8    9    5 1
     9   10   11 ar
    10   11   12 ar
    11   12    3 ar
    12   13    5 ar
    13   14    4 ar
    14   15   10 1
    15   16   11 1
    16   17   13 1
    17   18   14 1
    18   10   14 ar
    19   12   13 ar
@<TRIPOS>SUBSTRUCTURE
     1 RES1 1

@<TRIPOS>CRYSIN
   8.1450    5.9542    8.6590  90.0000 124.0890  90.0000  14 2

