# MOL2 file generated by ConQuest
# Please check atom types

@<TRIPOS>MOLECULE
NAPHTA49
    18    19     1
SMALL
NO_CHARGES
****
Generated from CSD

@<TRIPOS>ATOM
      1 C1         5.0323    4.8275    1.9809 C.ar      1 RES1    0.0000
      2 H1         5.2955    4.2387    2.6783 H         1 RES1    0.0000
      3 C2         4.0238    4.4666    1.1349 C.ar      1 RES1    0.0000
      4 H2         3.5938    3.6273    1.2500 H         1 RES1    0.0000
      5 C3         3.6050    5.3321    0.0802 C.ar      1 RES1    0.0000
      6 C4         2.5581    4.9957   -0.8148 C.ar      1 RES1    0.0000
      7 H3         2.1088    4.1648   -0.7145 H         1 RES1    0.0000
      8 C5         2.1792    5.8499   -1.8257 C.ar      1 RES1    0.0000
      9 H4         1.4790    5.6047   -2.4184 H         1 RES1    0.0000
     10 C1B        2.8407    7.1025   -1.9809 C.ar      1 RES1    0.0000
     11 H1B        2.5775    7.6913   -2.6783 H         1 RES1    0.0000
     12 C2B        3.8492    7.4634   -1.1349 C.ar      1 RES1    0.0000
     13 H2B        4.2792    8.3027   -1.2500 H         1 RES1    0.0000
     14 C3B        4.2680    6.5979   -0.0802 C.ar      1 RES1    0.0000
     15 C4B        5.3149    6.9343    0.8148 C.ar      1 RES1    0.0000
     16 H3B        5.7642    7.7652    0.7145 H         1 RES1    0.0000
     17 C5B        5.6938    6.0801    1.8257 C.ar      1 RES1    0.0000
     18 H4B        6.3940    6.3253    2.4184 H         1 RES1    0.0000
@<TRIPOS>BOND
     1    1    2 1
     2    3    1 ar
     3    4    3 1
     4    5    3 ar
     5    6    5 ar
     6    7    6 1
     7    8    6 ar
     8    9    8 1
     9   10    8 ar
    10   11   10 1
    11   12   10 ar
    12   13   12 1
    13   14    5 ar
    14   15   14 ar
    15   16   15 1
    16   17    1 ar
    17   18   17 1
    18   12   14 ar
    19   15   17 ar
@<TRIPOS>SUBSTRUCTURE
     1 RES1 1

@<TRIPOS>CRYSIN
   7.8730    5.9650    8.1520  90.0000 114.3400  90.0000  14 1

