# MOL2 file generated by ConQuest
# Please check atom types

@<TRIPOS>MOLECULE
NAPHTA15
    18    19     1
SMALL
NO_CHARGES
****
Generated from CSD

@<TRIPOS>ATOM
      1 C1        -1.7480    0.1142   -1.8161 C.ar      1 RES1    0.0000
      2 C2        -1.3755    0.9707   -0.8092 C.ar      1 RES1    0.0000
      3 C3        -0.3281    0.6255    0.0798 C.ar      1 RES1    0.0000
      4 C4         0.0798    1.4941    1.1225 C.ar      1 RES1    0.0000
      5 C5        -1.0930   -1.1313   -1.9761 C.ar      1 RES1    0.0000
      6 H1        -2.5443    0.4005   -2.4924 H         1 RES1    0.0000
      7 H2        -1.8629    1.9294   -0.6802 H         1 RES1    0.0000
      8 H3        -0.4306    2.4428    1.2346 H         1 RES1    0.0000
      9 H4        -1.3818   -1.8047   -2.7740 H         1 RES1    0.0000
     10 C3B        0.3281   -0.6255   -0.0798 C.ar      1 RES1    0.0000
     11 C2B        1.3755   -0.9707    0.8092 C.ar      1 RES1    0.0000
     12 C1B        1.7480   -0.1142    1.8161 C.ar      1 RES1    0.0000
     13 C5B        1.0930    1.1313    1.9761 C.ar      1 RES1    0.0000
     14 H4B        1.3818    1.8047    2.7740 H         1 RES1    0.0000
     15 H1B        2.5443   -0.4005    2.4924 H         1 RES1    0.0000
     16 H2B        1.8629   -1.9294    0.6802 H         1 RES1    0.0000
     17 C4B       -0.0798   -1.4941   -1.1225 C.ar      1 RES1    0.0000
     18 H3B        0.4306   -2.4428   -1.2346 H         1 RES1    0.0000
@<TRIPOS>BOND
     1    1    2 ar
     2    2    3 ar
     3    3    4 ar
     4    4    8 1
     5    5    1 ar
     6    6    1 1
     7    7    2 1
     8    9    5 1
     9   10    3 ar
    10   11   10 ar
    11   12   11 ar
    12   13    4 ar
    13   14   13 1
    14   15   12 1
    15   16   11 1
    16   17    5 ar
    17   18   17 1
    18   10   17 ar
    19   12   13 ar
@<TRIPOS>SUBSTRUCTURE
     1 RES1 1

@<TRIPOS>CRYSIN
   7.8248    5.9349    8.0997  90.0000 114.4410  90.0000  14 1

