# MOL2 file generated by ConQuest
# Please check atom types

@<TRIPOS>MOLECULE
NAPHTA18
    18    19     1
SMALL
NO_CHARGES
****
Generated from CSD

@<TRIPOS>ATOM
      1 C1        -1.7613    0.1072   -1.8055 C.ar      1 RES1    0.0000
      2 C2        -1.3882    0.9619   -0.7976 C.ar      1 RES1    0.0000
      3 C3        -0.3321    0.6211    0.0838 C.ar      1 RES1    0.0000
      4 C4         0.0758    1.4866    1.1277 C.ar      1 RES1    0.0000
      5 C5        -1.0980   -1.1300   -1.9732 C.ar      1 RES1    0.0000
      6 H1        -2.5651    0.4084   -2.4656 H         1 RES1    0.0000
      7 H2        -1.8756    1.9178   -0.6482 H         1 RES1    0.0000
      8 H3        -0.4478    2.4283    1.2359 H         1 RES1    0.0000
      9 H4        -1.3750   -1.8152   -2.7645 H         1 RES1    0.0000
     10 C3B        0.3321   -0.6211   -0.0838 C.ar      1 RES1    0.0000
     11 C2B        1.3882   -0.9619    0.7976 C.ar      1 RES1    0.0000
     12 C1B        1.7613   -0.1072    1.8055 C.ar      1 RES1    0.0000
     13 C5B        1.0980    1.1300    1.9732 C.ar      1 RES1    0.0000
     14 H4B        1.3750    1.8152    2.7645 H         1 RES1    0.0000
     15 H1B        2.5651   -0.4084    2.4656 H         1 RES1    0.0000
     16 H2B        1.8756   -1.9178    0.6482 H         1 RES1    0.0000
     17 C4B       -0.0758   -1.4866   -1.1277 C.ar      1 RES1    0.0000
     18 H3B        0.4478   -2.4283   -1.2359 H         1 RES1    0.0000
@<TRIPOS>BOND
     1    1    2 ar
     2    2    3 ar
     3    3    4 ar
     4    4    8 1
     5    5    1 ar
     6    6    1 1
     7    7    2 1
     8    9    5 1
     9   10    3 ar
    10   11   10 ar
    11   12   11 ar
    12   13    4 ar
    13   14   13 1
    14   15   12 1
    15   16   11 1
    16   17    5 ar
    17   18   17 1
    18   10   17 ar
    19   12   13 ar
@<TRIPOS>SUBSTRUCTURE
     1 RES1 1

@<TRIPOS>CRYSIN
   7.9435    5.9534    8.1645  90.0000 114.9980  90.0000  14 1

