# MOL2 file generated by ConQuest
# Please check atom types

@<TRIPOS>MOLECULE
NAPHTA20
    18    19     1
SMALL
NO_CHARGES
****
Generated from CSD

@<TRIPOS>ATOM
      1 C1        -0.8829    0.1110    2.3593 C.ar      1 RES1    0.0000
      2 H1        -1.1101    0.3506    3.2294 H         1 RES1    0.0000
      3 C2        -0.1356    0.9702    1.5880 C.ar      1 RES1    0.0000
      4 H2         0.1439    1.7841    1.9413 H         1 RES1    0.0000
      5 C3         0.2133    0.6219    0.2509 C.ar      1 RES1    0.0000
      6 C4         0.9809    1.4911   -0.5722 C.ar      1 RES1    0.0000
      7 H3         1.2616    2.3126   -0.2388 H         1 RES1    0.0000
      8 C5        -1.3099   -1.1340    1.8411 C.ar      1 RES1    0.0000
      9 H4        -1.8154   -1.7083    2.3692 H         1 RES1    0.0000
     10 C1B        0.8829   -0.1110   -2.3593 C.ar      1 RES1    0.0000
     11 H1B        1.1101   -0.3506   -3.2294 H         1 RES1    0.0000
     12 C2B        0.1356   -0.9702   -1.5880 C.ar      1 RES1    0.0000
     13 H2B       -0.1439   -1.7841   -1.9413 H         1 RES1    0.0000
     14 C3B       -0.2133   -0.6219   -0.2509 C.ar      1 RES1    0.0000
     15 C4B       -0.9809   -1.4911    0.5722 C.ar      1 RES1    0.0000
     16 H3B       -1.2616   -2.3126    0.2388 H         1 RES1    0.0000
     17 C5B        1.3099    1.1340   -1.8411 C.ar      1 RES1    0.0000
     18 H4B        1.8154    1.7083   -2.3692 H         1 RES1    0.0000
@<TRIPOS>BOND
     1    1    2 1
     2    3    1 ar
     3    4    3 1
     4    5    3 ar
     5    6    5 ar
     6    7    6 1
     7    8    1 ar
     8    9    8 1
     9   10   11 1
    10   12   10 ar
    11   13   12 1
    12   14    5 ar
    13   15    8 ar
    14   16   15 1
    15   17    6 ar
    16   18   17 1
    17   10   17 ar
    18   12   14 ar
    19   14   15 ar
@<TRIPOS>SUBSTRUCTURE
     1 RES1 1

@<TRIPOS>CRYSIN
   7.9948    5.8726    8.5420  90.0000 123.6770  90.0000  14 2

