# MOL2 file generated by ConQuest
# Please check atom types

@<TRIPOS>MOLECULE
NEHYUW
    44    47     1
SMALL
NO_CHARGES
****
Generated from CSD

@<TRIPOS>ATOM
      1 C1         8.1607    4.1821    3.8640 C.ar      1 RES1    0.0000
      2 C2         7.1415    3.4434    3.1461 C.ar      1 RES1    0.0000
      3 C3         6.3781    4.0797    2.1554 C.ar      1 RES1    0.0000
      4 C4         6.6260    5.4655    1.8582 C.ar      1 RES1    0.0000
      5 H1         6.1005    5.8997    1.1972 H         1 RES1    0.0000
      6 C5         7.6056    6.1739    2.5086 C.ar      1 RES1    0.0000
      7 H2         7.7568    7.0828    2.2794 H         1 RES1    0.0000
      8 C6         8.4010    5.5644    3.5263 C.ar      1 RES1    0.0000
      9 C7         9.4388    6.2763    4.2161 C.ar      1 RES1    0.0000
     10 H3         9.6060    7.1847    3.9939 H         1 RES1    0.0000
     11 C8        10.1983    5.6728    5.1943 C.ar      1 RES1    0.0000
     12 H4        10.8906    6.1575    5.6285 H         1 RES1    0.0000
     13 C9         9.9406    4.3231    5.5502 C.ar      1 RES1    0.0000
     14 H5        10.4522    3.9125    6.2383 H         1 RES1    0.0000
     15 C10        8.9567    3.6009    4.9087 C.ar      1 RES1    0.0000
     16 H6         8.8022    2.6990    5.1636 H         1 RES1    0.0000
     17 C11        6.8716    2.0060    3.5355 C.ar      1 RES1    0.0000
     18 C12        7.8121    0.9846    3.3194 C.ar      1 RES1    0.0000
     19 H7         8.6425    1.1886    2.9042 H         1 RES1    0.0000
     20 C13        7.5343   -0.3327    3.7110 C.ar      1 RES1    0.0000
     21 H8         8.1794   -1.0098    3.5465 H         1 RES1    0.0000
     22 C14        6.3271   -0.6779    4.3411 C.ar      1 RES1    0.0000
     23 C15        5.3921    0.3457    4.5508 C.ar      1 RES1    0.0000
     24 H9         4.5666    0.1441    4.9737 H         1 RES1    0.0000
     25 C16        5.6549    1.6593    4.1461 C.ar      1 RES1    0.0000
     26 H10        4.9972    2.3295    4.2863 H         1 RES1    0.0000
     27 C17        5.3377    3.3785    1.3146 C.ar      1 RES1    0.0000
     28 C18        5.6244    2.1919    0.6068 C.ar      1 RES1    0.0000
     29 H11        6.4696    1.7726    0.7198 H         1 RES1    0.0000
     30 C19        4.6820    1.6210   -0.2607 C.ar      1 RES1    0.0000
     31 H12        4.9063    0.8278   -0.7323 H         1 RES1    0.0000
     32 C20        3.4142    2.1961   -0.4469 C.ar      1 RES1    0.0000
     33 C21        3.1229    3.3605    0.2857 C.ar      1 RES1    0.0000
     34 H13        2.2652    3.7597    0.1999 H         1 RES1    0.0000
     35 C22        4.0642    3.9453    1.1384 C.ar      1 RES1    0.0000
     36 H14        3.8386    4.7403    1.6071 H         1 RES1    0.0000
     37 C23        6.0383   -2.1065    4.7887 C.3       1 RES1    0.0000
     38 H15        6.8396   -2.6567    4.6637 H         1 RES1    0.0000
     39 H16        5.3027   -2.4736    4.2538 H         1 RES1    0.0000
     40 H17        5.7863   -2.1074    5.7359 H         1 RES1    0.0000
     41 C24        2.4127    1.6033   -1.4404 C.3       1 RES1    0.0000
     42 H18        1.5043    1.8712   -1.1872 H         1 RES1    0.0000
     43 H19        2.4803    0.6252   -1.4271 H         1 RES1    0.0000
     44 H20        2.6125    1.9330   -2.3419 H         1 RES1    0.0000
@<TRIPOS>BOND
     1    1    2 ar
     2    2    3 ar
     3    3    4 ar
     4    4    5 1
     5    6    4 ar
     6    7    6 1
     7    8    1 ar
     8    9    8 ar
     9   10    9 1
    10   11    9 ar
    11   12   11 1
    12   13   11 ar
    13   14   13 1
    14   15    1 ar
    15   16   15 1
    16   17    2 1
    17   18   17 ar
    18   19   18 1
    19   20   18 ar
    20   21   20 1
    21   22   20 ar
    22   23   22 ar
    23   24   23 1
    24   25   17 ar
    25   26   25 1
    26   27    3 1
    27   28   27 ar
    28   29   28 1
    29   30   28 ar
    30   31   30 1
    31   32   30 ar
    32   33   32 ar
    33   34   33 1
    34   35   27 ar
    35   36   35 1
    36   37   22 1
    37   38   37 1
    38   39   37 1
    39   40   37 1
    40   41   32 1
    41   42   41 1
    42   43   41 1
    43   44   41 1
    44    6    8 ar
    45   13   15 ar
    46   23   25 ar
    47   33   35 ar
@<TRIPOS>SUBSTRUCTURE
     1 RES1 1

@<TRIPOS>CRYSIN
   6.5620   10.8350   25.0280  90.0000  93.0200  90.0000  14 1

