# MOL2 file generated by ConQuest
# Please check atom types

@<TRIPOS>MOLECULE
NEJGUE
    80    90     1
SMALL
NO_CHARGES
****
Generated from CSD

@<TRIPOS>ATOM
      1 C1         4.2403    5.6728    3.9711 C.ar      1 RES1    0.0000
      2 C2         3.8308    6.4842    2.9112 C.ar      1 RES1    0.0000
      3 C3         4.4347    7.7437    2.6111 C.ar      1 RES1    0.0000
      4 C4         4.0052    8.5053    1.5524 C.ar      1 RES1    0.0000
      5 C5         2.9243    8.0658    0.7516 C.ar      1 RES1    0.0000
      6 C6         2.3164    6.8633    1.0026 C.ar      1 RES1    0.0000
      7 C7         3.6702    4.4271    4.2423 C.ar      1 RES1    0.0000
      8 C8         5.5684    8.3874    3.3746 C.3       1 RES1    0.0000
      9 C9         6.7516    8.5866    2.4150 C.3       1 RES1    0.0000
     10 C10        5.0896    9.7616    3.8526 C.3       1 RES1    0.0000
     11 C11        4.8072    9.7728    1.3657 C.3       1 RES1    0.0000
     12 C12        6.2795    9.3653    1.1722 C.3       1 RES1    0.0000
     13 C13        4.7006   10.6200    2.6375 C.3       1 RES1    0.0000
     14 C14        2.3008    8.8255   -0.3966 C.3       1 RES1    0.0000
     15 C15        2.3718    7.9464   -1.6482 C.3       1 RES1    0.0000
     16 C16        0.8276    9.0590   -0.0504 C.3       1 RES1    0.0000
     17 C17        1.1655    6.5797    0.0668 C.3       1 RES1    0.0000
     18 C18        1.6672    6.6120   -1.3708 C.3       1 RES1    0.0000
     19 C19        0.1468    7.7210    0.2472 C.3       1 RES1    0.0000
     20 H1         4.8812    5.9705    4.5273 H         1 RES1    0.0000
     21 H2         5.8112    7.8937    4.1111 H         1 RES1    0.0000
     22 H3         7.1529    7.7187    2.1501 H         1 RES1    0.0000
     23 H4         7.4596    9.1126    2.8689 H         1 RES1    0.0000
     24 H5         4.2863    9.6476    4.4831 H         1 RES1    0.0000
     25 H6         5.8184   10.1715    4.3507 H         1 RES1    0.0000
     26 H7         4.5293   10.2791    0.5486 H         1 RES1    0.0000
     27 H8         6.3634    8.7566    0.3909 H         1 RES1    0.0000
     28 H9         6.8619   10.1546    0.9899 H         1 RES1    0.0000
     29 H10        3.8410   10.9709    2.7807 H         1 RES1    0.0000
     30 H11        5.3557   11.3784    2.5032 H         1 RES1    0.0000
     31 H12        2.7543    9.6291   -0.5233 H         1 RES1    0.0000
     32 H13        3.2942    7.8300   -1.9421 H         1 RES1    0.0000
     33 H14        1.9582    8.4203   -2.4150 H         1 RES1    0.0000
     34 H15        0.7804    9.6506    0.7062 H         1 RES1    0.0000
     35 H16        0.3642    9.5136   -0.7629 H         1 RES1    0.0000
     36 H17        0.7590    5.7120    0.2459 H         1 RES1    0.0000
     37 H18        2.2848    5.9020   -1.5763 H         1 RES1    0.0000
     38 H19        0.8647    6.4930   -1.9673 H         1 RES1    0.0000
     39 H20       -0.2126    7.7016    1.1476 H         1 RES1    0.0000
     40 H21       -0.6152    7.5389   -0.3846 H         1 RES1    0.0000
     41 C7A        2.7580    6.0215    2.0631 C.ar      1 RES1    0.0000
     42 C1A        2.1879    4.7758    2.3342 C.ar      1 RES1    0.0000
     43 C2A        2.5974    3.9644    3.3942 C.ar      1 RES1    0.0000
     44 C3A        1.9936    2.7049    3.6943 C.ar      1 RES1    0.0000
     45 C4A        2.4230    1.9433    4.7530 C.ar      1 RES1    0.0000
     46 C5A        3.5040    2.3828    5.5538 C.ar      1 RES1    0.0000
     47 C6A        4.1118    3.5853    5.3028 C.ar      1 RES1    0.0000
     48 C17A       5.2628    3.8689    6.2385 C.3       1 RES1    0.0000
     49 C18A       4.7610    3.8366    7.6762 C.3       1 RES1    0.0000
     50 C15A       4.0565    2.5022    7.9536 C.3       1 RES1    0.0000
     51 C14A       4.1274    1.6231    6.7020 C.3       1 RES1    0.0000
     52 C16A       5.6006    1.3896    6.3558 C.3       1 RES1    0.0000
     53 C19A       6.2814    2.7276    6.0582 C.3       1 RES1    0.0000
     54 H17A       5.6692    4.7367    6.0595 H         1 RES1    0.0000
     55 H20A       6.6408    2.7470    5.1578 H         1 RES1    0.0000
     56 H21A       7.0435    2.9097    6.6900 H         1 RES1    0.0000
     57 H15A       5.6479    0.7980    5.5992 H         1 RES1    0.0000
     58 H16A       6.0640    0.9350    7.0683 H         1 RES1    0.0000
     59 H12A       3.6739    0.8195    6.8287 H         1 RES1    0.0000
     60 H13A       3.1340    2.6186    8.2474 H         1 RES1    0.0000
     61 H14A       4.4700    2.0283    8.7203 H         1 RES1    0.0000
     62 H18A       4.1434    4.5466    7.8817 H         1 RES1    0.0000
     63 H19A       5.5635    3.9556    8.2726 H         1 RES1    0.0000
     64 C11A       1.6210    0.6759    4.9396 C.3       1 RES1    0.0000
     65 C12A       0.1488    1.0833    5.1332 C.3       1 RES1    0.0000
     66 C9A       -0.3233    1.8620    3.8904 C.3       1 RES1    0.0000
     67 C8A        0.8598    2.0613    2.9307 C.3       1 RES1    0.0000
     68 C10A       1.3387    0.6870    2.4528 C.3       1 RES1    0.0000
     69 C13A       1.7276   -0.1714    3.6678 C.3       1 RES1    0.0000
     70 H7A        1.8989    0.1695    5.7568 H         1 RES1    0.0000
     71 H10A       2.5872   -0.5223    3.5247 H         1 RES1    0.0000
     72 H11A       1.0725   -0.9298    3.8021 H         1 RES1    0.0000
     73 H5A        2.1419    0.8010    1.8223 H         1 RES1    0.0000
     74 H6A        0.6099    0.2771    1.9547 H         1 RES1    0.0000
     75 H2A        0.6170    2.5550    2.1943 H         1 RES1    0.0000
     76 H3A       -0.7247    2.7299    4.1552 H         1 RES1    0.0000
     77 H4A       -1.0314    1.3360    3.4364 H         1 RES1    0.0000
     78 H8A        0.0648    1.6921    5.9144 H         1 RES1    0.0000
     79 H9A       -0.4337    0.2940    5.3154 H         1 RES1    0.0000
     80 H1A        1.5470    4.4782    1.7781 H         1 RES1    0.0000
@<TRIPOS>BOND
     1    1    2 ar
     2    2    3 ar
     3    3    4 ar
     4    4    5 ar
     5    5    6 ar
     6    6   17 1
     7    7    1 ar
     8    8    3 1
     9    9    8 1
    10   10    8 1
    11   11    4 1
    12   12    9 1
    13   13   10 1
    14   14    5 1
    15   15   14 1
    16   16   14 1
    17   17   18 1
    18   18   15 1
    19   19   16 1
    20   20    1 1
    21   21    8 1
    22   22    9 1
    23   23    9 1
    24   24   10 1
    25   25   10 1
    26   26   11 1
    27   27   12 1
    28   28   12 1
    29   29   13 1
    30   30   13 1
    31   31   14 1
    32   32   15 1
    33   33   15 1
    34   34   16 1
    35   35   16 1
    36   36   17 1
    37   37   18 1
    38   38   18 1
    39   39   19 1
    40   40   19 1
    41   41    2 ar
    42   42   41 ar
    43   43    7 ar
    44   44   43 ar
    45   45   44 ar
    46   46   45 ar
    47   47    7 ar
    48   48   47 1
    49   49   48 1
    50   50   49 1
    51   51   46 1
    52   52   51 1
    53   53   48 1
    54   54   48 1
    55   55   53 1
    56   56   53 1
    57   57   52 1
    58   58   52 1
    59   59   51 1
    60   60   50 1
    61   61   50 1
    62   62   49 1
    63   63   49 1
    64   64   45 1
    65   65   64 1
    66   66   65 1
    67   67   44 1
    68   68   67 1
    69   69   64 1
    70   70   64 1
    71   71   69 1
    72   72   69 1
    73   73   68 1
    74   74   68 1
    75   75   67 1
    76   76   66 1
    77   77   66 1
    78   78   65 1
    79   79   65 1
    80   80   42 1
    81    6   41 ar
    82   11   12 1
    83   11   13 1
    84   17   19 1
    85   42   43 ar
    86   46   47 ar
    87   50   51 1
    88   52   53 1
    89   66   67 1
    90   68   69 1
@<TRIPOS>SUBSTRUCTURE
     1 RES1 1

@<TRIPOS>CRYSIN
   9.6120   11.3310    6.6460  95.1400 106.9400  96.3200   2 1

