# MOL2 file generated by ConQuest
# Please check atom types

@<TRIPOS>MOLECULE
NEKFAL
    76    84     1
SMALL
NO_CHARGES
****
Generated from CSD

@<TRIPOS>ATOM
      1 C1         4.1063    4.7064    5.2857 C.3       1 RES1    0.0000
      2 C2         5.2349    5.3501    6.1251 C.3       1 RES1    0.0000
      3 H1         6.0600    4.8087    6.0449 H         1 RES1    0.0000
      4 H2         5.4269    6.2598    5.7829 H         1 RES1    0.0000
      5 C3         4.8103    5.4306    7.6002 C.3       1 RES1    0.0000
      6 H3         5.5440    5.8489    8.1355 H         1 RES1    0.0000
      7 C4         4.5313    4.0181    8.1311 C.3       1 RES1    0.0000
      8 H4         5.3499    3.4663    8.0595 H         1 RES1    0.0000
      9 H5         4.2717    4.0646    9.0853 H         1 RES1    0.0000
     10 C5         3.4010    3.3763    7.3168 C.3       1 RES1    0.0000
     11 H6         3.2192    2.4564    7.6656 H         1 RES1    0.0000
     12 C6         3.8238    3.2919    5.8428 C.3       1 RES1    0.0000
     13 H7         3.1037    2.8643    5.3150 H         1 RES1    0.0000
     14 H8         4.6380    2.7348    5.7619 H         1 RES1    0.0000
     15 C7         2.8203    5.5555    5.4266 C.3       1 RES1    0.0000
     16 H9         2.9817    6.4657    5.0720 H         1 RES1    0.0000
     17 H10        2.0901    5.1442    4.8991 H         1 RES1    0.0000
     18 C8         2.4060    5.6417    6.9011 C.3       1 RES1    0.0000
     19 H11        1.5786    6.1968    6.9827 H         1 RES1    0.0000
     20 C9         2.1308    4.2316    7.4409 C.3       1 RES1    0.0000
     21 H12        1.3948    3.8145    6.9267 H         1 RES1    0.0000
     22 H13        1.8546    4.2847    8.3904 H         1 RES1    0.0000
     23 C10        3.5399    6.2902    7.7112 C.3       1 RES1    0.0000
     24 H14        3.2707    6.3678    8.6604 H         1 RES1    0.0000
     25 H15        3.7204    7.2006    7.3646 H         1 RES1    0.0000
     26 C11        4.5152    4.6544    3.8784 C.1       1 RES1    0.0000
     27 C12        4.8680    4.6826    2.7196 C.1       1 RES1    0.0000
     28 C13        5.2794    4.7983    1.3557 C.ar      1 RES1    0.0000
     29 C14        4.4553    4.3005    0.3194 C.ar      1 RES1    0.0000
     30 C15        3.2409    3.6052    0.6042 C.ar      1 RES1    0.0000
     31 H16        2.9928    3.4471    1.5077 H         1 RES1    0.0000
     32 C16        2.4293    3.1629   -0.4039 C.ar      1 RES1    0.0000
     33 H17        1.6271    2.6990   -0.1960 H         1 RES1    0.0000
     34 C17        2.7813    3.3945   -1.7621 C.ar      1 RES1    0.0000
     35 H18        2.2013    3.1050   -2.4565 H         1 RES1    0.0000
     36 C18        3.9515    4.0318   -2.0733 C.ar      1 RES1    0.0000
     37 H19        4.1830    4.1654   -2.9844 H         1 RES1    0.0000
     38 C19        6.4921    5.4622    1.0477 C.ar      1 RES1    0.0000
     39 C1A        7.2165    5.2546   -5.2857 C.3       1 RES1    0.0000
     40 C2A        6.0879    4.6109   -6.1251 C.3       1 RES1    0.0000
     41 H1A        5.2627    5.1523   -6.0449 H         1 RES1    0.0000
     42 H2A        5.8959    3.7012   -5.7829 H         1 RES1    0.0000
     43 C3A        6.5125    4.5303   -7.6002 C.3       1 RES1    0.0000
     44 H3A        5.7788    4.1121   -8.1355 H         1 RES1    0.0000
     45 C4A        6.7914    5.9428   -8.1311 C.3       1 RES1    0.0000
     46 H4A        5.9729    6.4947   -8.0595 H         1 RES1    0.0000
     47 H5A        7.0511    5.8964   -9.0853 H         1 RES1    0.0000
     48 C5A        7.9217    6.5847   -7.3168 C.3       1 RES1    0.0000
     49 H6A        8.1036    7.5046   -7.6656 H         1 RES1    0.0000
     50 C6A        7.4990    6.6691   -5.8428 C.3       1 RES1    0.0000
     51 H7A        8.2190    7.0966   -5.3150 H         1 RES1    0.0000
     52 H8A        6.6848    7.2261   -5.7619 H         1 RES1    0.0000
     53 C7A        8.5025    4.4054   -5.4266 C.3       1 RES1    0.0000
     54 H9A        8.3410    3.4953   -5.0720 H         1 RES1    0.0000
     55 H10A       9.2326    4.8167   -4.8991 H         1 RES1    0.0000
     56 C8A        8.9168    4.3193   -6.9011 C.3       1 RES1    0.0000
     57 H11A       9.7441    3.7641   -6.9827 H         1 RES1    0.0000
     58 C9A        9.1920    5.7293   -7.4409 C.3       1 RES1    0.0000
     59 H12A       9.9279    6.1465   -6.9267 H         1 RES1    0.0000
     60 H13A       9.4682    5.6763   -8.3904 H         1 RES1    0.0000
     61 C10A       7.7829    3.6707   -7.7112 C.3       1 RES1    0.0000
     62 H14A       8.0520    3.5931   -8.6604 H         1 RES1    0.0000
     63 H15A       7.6024    2.7604   -7.3646 H         1 RES1    0.0000
     64 C11A       6.8076    5.3065   -3.8784 C.1       1 RES1    0.0000
     65 C12A       6.4547    5.2783   -2.7196 C.1       1 RES1    0.0000
     66 C13A       6.0433    5.1626   -1.3557 C.ar      1 RES1    0.0000
     67 C14A       6.8675    5.6604   -0.3194 C.ar      1 RES1    0.0000
     68 C15A       8.0818    6.3558   -0.6042 C.ar      1 RES1    0.0000
     69 H16A       8.3299    6.5139   -1.5077 H         1 RES1    0.0000
     70 C16A       8.8934    6.7980    0.4039 C.ar      1 RES1    0.0000
     71 H17A       9.6956    7.2620    0.1960 H         1 RES1    0.0000
     72 C17A       8.5415    6.5665    1.7621 C.ar      1 RES1    0.0000
     73 H18A       9.1214    6.8559    2.4565 H         1 RES1    0.0000
     74 C18A       7.3712    5.9292    2.0733 C.ar      1 RES1    0.0000
     75 H19A       7.1397    5.7956    2.9844 H         1 RES1    0.0000
     76 C19A       4.8306    4.4988   -1.0477 C.ar      1 RES1    0.0000
@<TRIPOS>BOND
     1    1    2 1
     2    2    3 1
     3    4    2 1
     4    5    2 1
     5    6    5 1
     6    7    5 1
     7    8    7 1
     8    9    7 1
     9   10    7 1
    10   11   10 1
    11   12    1 1
    12   13   12 1
    13   14   12 1
    14   15    1 1
    15   16   15 1
    16   17   15 1
    17   18   15 1
    18   19   18 1
    19   20   10 1
    20   21   20 1
    21   22   20 1
    22   23    5 1
    23   24   23 1
    24   25   23 1
    25   26    1 1
    26   27   26 3
    27   28   27 1
    28   29   28 ar
    29   30   29 ar
    30   31   30 1
    31   32   30 ar
    32   33   32 1
    33   34   32 ar
    34   35   34 1
    35   36   34 ar
    36   37   36 1
    37   38   28 ar
    38   39   40 1
    39   40   41 1
    40   42   40 1
    41   43   40 1
    42   44   43 1
    43   45   43 1
    44   46   45 1
    45   47   45 1
    46   48   45 1
    47   49   48 1
    48   50   39 1
    49   51   50 1
    50   52   50 1
    51   53   39 1
    52   54   53 1
    53   55   53 1
    54   56   53 1
    55   57   56 1
    56   58   48 1
    57   59   58 1
    58   60   58 1
    59   61   43 1
    60   62   61 1
    61   63   61 1
    62   64   39 1
    63   65   64 3
    64   66   65 1
    65   67   38 ar
    66   68   67 ar
    67   69   68 1
    68   70   68 ar
    69   71   70 1
    70   72   70 ar
    71   73   72 1
    72   74   38 ar
    73   75   74 1
    74   76   29 ar
    75   10   12 1
    76   18   20 1
    77   18   23 1
    78   36   76 ar
    79   48   50 1
    80   56   58 1
    81   56   61 1
    82   66   67 ar
    83   66   76 ar
    84   72   74 ar
@<TRIPOS>SUBSTRUCTURE
     1 RES1 1

@<TRIPOS>CRYSIN
   6.6620   10.1600   11.1284 114.7440  92.7340 101.3600   2 1

