# MOL2 file generated by ConQuest
# Please check atom types

@<TRIPOS>MOLECULE
NERYIT
    42    45     1
SMALL
NO_CHARGES
****
Generated from CSD

@<TRIPOS>ATOM
      1 C1        -2.5192    9.8676    7.7694 C.ar      1 RES1    0.0000
      2 H1        -2.5525    9.4482    6.9402 H         1 RES1    0.0000
      3 C2        -3.3923   10.8978    8.0361 C.ar      1 RES1    0.0000
      4 H2        -4.0075   11.1594    7.3910 H         1 RES1    0.0000
      5 C3        -3.3626   11.5257    9.2184 C.ar      1 RES1    0.0000
      6 H3        -3.9556   12.2195    9.3962 H         1 RES1    0.0000
      7 C4        -2.4575   11.1385   10.1569 C.ar      1 RES1    0.0000
      8 H4        -2.4290   11.5758   10.9773 H         1 RES1    0.0000
      9 C5        -1.5749   10.0971    9.9004 C.ar      1 RES1    0.0000
     10 H5        -0.9618    9.8392   10.5506 H         1 RES1    0.0000
     11 C6        -1.6024    9.4452    8.6927 C.ar      1 RES1    0.0000
     12 C7        -0.6596    8.3028    8.3955 C.3       1 RES1    0.0000
     13 H6        -0.3072    8.2012    9.3035 H         1 RES1    0.0000
     14 C8        -1.1924    7.0222    8.2774 C.3       1 RES1    0.0000
     15 H7        -1.8970    7.0558    7.6120 H         1 RES1    0.0000
     16 H8        -1.6080    6.7957    9.1232 H         1 RES1    0.0000
     17 C9        -0.2691    5.9038    7.9079 C.2       1 RES1    0.0000
     18 H9        -0.5878    5.0321    7.8494 H         1 RES1    0.0000
     19 C10        1.0708    6.1819    7.6539 C.2       1 RES1    0.0000
     20 C11        1.5476    7.5179    7.5942 C.3       1 RES1    0.0000
     21 H10        1.9795    7.6397    6.7344 H         1 RES1    0.0000
     22 H11        2.2320    7.6188    8.2749 H         1 RES1    0.0000
     23 C12        0.5609    8.6295    7.7720 C.3       1 RES1    0.0000
     24 H12        0.9859    9.3300    8.2901 H         1 RES1    0.0000
     25 H13        0.3613    8.9989    6.8970 H         1 RES1    0.0000
     26 C13        2.0461    5.0747    7.4393 C.ar      1 RES1    0.0000
     27 C14        2.5961    4.8557    6.2011 C.ar      1 RES1    0.0000
     28 H14        2.3320    5.3880    5.4861 H         1 RES1    0.0000
     29 C15        3.5463    3.8539    5.9877 C.ar      1 RES1    0.0000
     30 H15        3.8975    3.7268    5.1356 H         1 RES1    0.0000
     31 C16        3.9621    3.0622    7.0087 C.ar      1 RES1    0.0000
     32 H16        4.6008    2.4028    6.8538 H         1 RES1    0.0000
     33 C17        3.4299    3.2364    8.3041 C.ar      1 RES1    0.0000
     34 C18        3.8506    2.4372    9.3899 C.ar      1 RES1    0.0000
     35 H17        4.4832    1.7718    9.2464 H         1 RES1    0.0000
     36 C19        3.3494    2.6203   10.6382 C.ar      1 RES1    0.0000
     37 H18        3.6377    2.0821   11.3405 H         1 RES1    0.0000
     38 C20        2.4041    3.6146   10.8643 C.ar      1 RES1    0.0000
     39 H19        2.0656    3.7373   11.7227 H         1 RES1    0.0000
     40 C21        1.9648    4.4093    9.8534 C.ar      1 RES1    0.0000
     41 H20        1.3298    5.0650   10.0286 H         1 RES1    0.0000
     42 C22        2.4634    4.2523    8.5343 C.ar      1 RES1    0.0000
@<TRIPOS>BOND
     1    1    2 1
     2    3    1 ar
     3    4    3 1
     4    5    3 ar
     5    6    5 1
     6    7    5 ar
     7    8    7 1
     8    9    7 ar
     9   10    9 1
    10   11    1 ar
    11   12   11 1
    12   13   12 1
    13   14   12 1
    14   15   14 1
    15   16   14 1
    16   17   14 1
    17   18   17 1
    18   19   17 2
    19   20   19 1
    20   21   20 1
    21   22   20 1
    22   23   12 1
    23   24   23 1
    24   25   23 1
    25   26   19 1
    26   27   26 ar
    27   28   27 1
    28   29   27 ar
    29   30   29 1
    30   31   29 ar
    31   32   31 1
    32   33   31 ar
    33   34   33 ar
    34   35   34 1
    35   36   34 ar
    36   37   36 1
    37   38   36 ar
    38   39   38 1
    39   40   38 ar
    40   41   40 1
    41   42   26 ar
    42    9   11 ar
    43   20   23 1
    44   33   42 ar
    45   40   42 ar
@<TRIPOS>SUBSTRUCTURE
     1 RES1 1

@<TRIPOS>CRYSIN
  17.1940    7.4760   13.7950  90.0000 112.9900  90.0000  14 1

