# MOL2 file generated by ConQuest
# Please check atom types

@<TRIPOS>MOLECULE
NOHFIA
    39    42     1
SMALL
NO_CHARGES
****
Generated from CSD

@<TRIPOS>ATOM
      1 C1         3.4572   19.6288    2.3896 C.ar      1 RES1    0.0000
      2 C2         4.0761   20.1382    3.5555 C.ar      1 RES1    0.0000
      3 H1         4.2790   21.0635    3.6162 H         1 RES1    0.0000
      4 C3         4.3828   19.3048    4.5948 C.ar      1 RES1    0.0000
      5 H2         4.8152   19.6575    5.3632 H         1 RES1    0.0000
      6 C4         4.0702   17.9301    4.5485 C.ar      1 RES1    0.0000
      7 C5         4.3761   17.0657    5.6395 C.ar      1 RES1    0.0000
      8 H3         4.7962   17.4220    6.4127 H         1 RES1    0.0000
      9 C6         4.0782   15.7436    5.5951 C.ar      1 RES1    0.0000
     10 H4         4.2959   15.1949    6.3389 H         1 RES1    0.0000
     11 C7         3.4443   15.1567    4.4535 C.ar      1 RES1    0.0000
     12 C8         3.1371   13.7379    4.4106 C.ar      1 RES1    0.0000
     13 C9         3.4477   12.8523    5.4709 C.ar      1 RES1    0.0000
     14 H5         3.8863   13.1852    6.2446 H         1 RES1    0.0000
     15 C10        3.1247   11.5195    5.3984 C.ar      1 RES1    0.0000
     16 H6         3.3375   10.9455    6.1250 H         1 RES1    0.0000
     17 C11        2.4867   10.9959    4.2698 C.ar      1 RES1    0.0000
     18 H7         2.2588   10.0736    4.2333 H         1 RES1    0.0000
     19 C12        2.1916   11.8211    3.2156 C.ar      1 RES1    0.0000
     20 H8         1.7690   11.4627    2.4438 H         1 RES1    0.0000
     21 C13        2.5064   13.1992    3.2591 C.ar      1 RES1    0.0000
     22 C14        2.1978   14.0653    2.1722 C.ar      1 RES1    0.0000
     23 H9         1.7732   13.7088    1.4009 H         1 RES1    0.0000
     24 C15        2.4969   15.3872    2.2146 C.ar      1 RES1    0.0000
     25 H10        2.2820   15.9338    1.4687 H         1 RES1    0.0000
     26 C16        3.1281   15.9793    3.3549 C.ar      1 RES1    0.0000
     27 C17        3.4449   17.3948    3.3937 C.ar      1 RES1    0.0000
     28 C18        3.1623   18.2833    2.3307 C.ar      1 RES1    0.0000
     29 H11        2.7527   17.9392    1.5450 H         1 RES1    0.0000
     30 C19        3.0681   20.5458    1.2499 C.3       1 RES1    0.0000
     31 H12        2.8498   19.9742    0.4597 H         1 RES1    0.0000
     32 C20        4.1785   21.5074    0.8354 C.3       1 RES1    0.0000
     33 H13        5.0030   21.0044    0.6729 H         1 RES1    0.0000
     34 H14        4.3296   22.1591    1.5510 H         1 RES1    0.0000
     35 H15        3.9159   21.9775    0.0166 H         1 RES1    0.0000
     36 C21        1.8051   21.3275    1.6248 C.3       1 RES1    0.0000
     37 H16        1.9970   21.9100    2.3893 H         1 RES1    0.0000
     38 H17        1.0914   20.7004    1.8632 H         1 RES1    0.0000
     39 H18        1.5199   21.8720    0.8622 H         1 RES1    0.0000
@<TRIPOS>BOND
     1    1    2 ar
     2    2    3 1
     3    4    2 ar
     4    5    4 1
     5    6    4 ar
     6    7    6 ar
     7    8    7 1
     8    9    7 ar
     9   10    9 1
    10   11    9 ar
    11   12   11 ar
    12   13   12 ar
    13   14   13 1
    14   15   13 ar
    15   16   15 1
    16   17   15 ar
    17   18   17 1
    18   19   17 ar
    19   20   19 1
    20   21   12 ar
    21   22   21 ar
    22   23   22 1
    23   24   22 ar
    24   25   24 1
    25   26   11 ar
    26   27    6 ar
    27   28    1 ar
    28   29   28 1
    29   30    1 1
    30   31   30 1
    31   32   30 1
    32   33   32 1
    33   34   32 1
    34   35   32 1
    35   36   30 1
    36   37   36 1
    37   38   36 1
    38   39   36 1
    39   19   21 ar
    40   24   26 ar
    41   26   27 ar
    42   27   28 ar
@<TRIPOS>SUBSTRUCTURE
     1 RES1 1

@<TRIPOS>CRYSIN
  21.1099   21.1099    6.6425  90.0000  90.0000  90.0000  82 1

