# MOL2 file generated by ConQuest
# Please check atom types

@<TRIPOS>MOLECULE
NOTVAT01
    58    63     1
SMALL
NO_CHARGES
****
Generated from CSD

@<TRIPOS>ATOM
      1 C1        -0.2797    2.1549    6.2450 C.ar      1 RES1    0.0000
      2 C2        -0.1454    0.7584    6.1924 C.ar      1 RES1    0.0000
      3 C3         0.2075    0.0922    5.0373 C.ar      1 RES1    0.0000
      4 C4         0.3290    0.7793    3.8101 C.ar      1 RES1    0.0000
      5 C5         0.0173    3.1296    1.3116 C.ar      1 RES1    0.0000
      6 C6         0.1736    4.3565    0.5518 C.ar      1 RES1    0.0000
      7 C7         0.4316    7.7831   -0.3022 C.ar      1 RES1    0.0000
      8 C8         0.7061    9.1502   -0.2141 C.ar      1 RES1    0.0000
      9 C9         0.9380    9.7869    0.9764 C.ar      1 RES1    0.0000
     10 C10        0.7867    9.1239    2.2061 C.ar      1 RES1    0.0000
     11 C11       -0.0639    6.8129    4.6311 C.ar      1 RES1    0.0000
     12 C12       -0.0888    5.5812    5.3971 C.ar      1 RES1    0.0000
     13 C13       -0.1134    2.8828    5.0606 C.ar      1 RES1    0.0000
     14 C14        0.0704    2.1489    3.8138 C.ar      1 RES1    0.0000
     15 C15        0.1020    3.1247    2.7040 C.ar      1 RES1    0.0000
     16 C16        0.1005    4.3842    3.3391 C.ar      1 RES1    0.0000
     17 C17       -0.0456    4.3385    4.7425 C.ar      1 RES1    0.0000
     18 C18        0.1915    5.5423    2.6343 C.ar      1 RES1    0.0000
     19 C19        0.2474    5.5902    1.2211 C.ar      1 RES1    0.0000
     20 C20        0.3521    7.0575    0.9018 C.ar      1 RES1    0.0000
     21 C21        0.4150    7.7810    2.1645 C.ar      1 RES1    0.0000
     22 C22        0.1944    6.8077    3.2681 C.ar      1 RES1    0.0000
     23 C23       -0.6049    2.7133    7.6105 C.3       1 RES1    0.0000
     24 C24        0.8204   -0.0307    2.6355 C.3       1 RES1    0.0000
     25 C25       -0.4152    1.8981    0.5249 C.3       1 RES1    0.0000
     26 C26        0.2796    4.1963   -0.9531 C.3       1 RES1    0.0000
     27 C27        0.1985    7.2491   -1.6958 C.3       1 RES1    0.0000
     28 C28        1.1842    9.8915    3.4480 C.3       1 RES1    0.0000
     29 C29       -0.4470    8.0865    5.3518 C.3       1 RES1    0.0000
     30 C30       -0.1569    5.7456    6.8983 C.3       1 RES1    0.0000
     31 H1        -0.3031    0.2538    6.9815 H         1 RES1    0.0000
     32 H2         0.3709   -0.8427    5.0679 H         1 RES1    0.0000
     33 H3         0.7327    9.6609   -1.0155 H         1 RES1    0.0000
     34 H4         1.2083   10.6970    0.9703 H         1 RES1    0.0000
     35 H5         0.1963    2.9939    8.0375 H         1 RES1    0.0000
     36 H6        -1.0251    2.0425    8.1354 H         1 RES1    0.0000
     37 H7        -1.1913    3.4558    7.5175 H         1 RES1    0.0000
     38 H8         0.0780   -0.4101    2.1791 H         1 RES1    0.0000
     39 H9         1.3898   -0.7252    2.9451 H         1 RES1    0.0000
     40 H10        1.3024    0.5323    2.0421 H         1 RES1    0.0000
     41 H11        0.3412    1.5131    0.0979 H         1 RES1    0.0000
     42 H12       -1.0550    2.1497   -0.1309 H         1 RES1    0.0000
     43 H13       -0.8015    1.2635    1.1171 H         1 RES1    0.0000
     44 H14        0.8105    4.8989   -1.3080 H         1 RES1    0.0000
     45 H15       -0.5883    4.2294   -1.3373 H         1 RES1    0.0000
     46 H16        0.6837    3.3609   -1.1550 H         1 RES1    0.0000
     47 H17       -0.6122    6.7546   -1.7142 H         1 RES1    0.0000
     48 H18        0.9204    6.6835   -1.9430 H         1 RES1    0.0000
     49 H19        0.1401    7.9745   -2.3064 H         1 RES1    0.0000
     50 H20        1.7044    9.3327    4.0132 H         1 RES1    0.0000
     51 H21        0.4028   10.1707    3.9105 H         1 RES1    0.0000
     52 H22        1.6944   10.6539    3.1996 H         1 RES1    0.0000
     53 H23       -0.7105    8.7422    4.7168 H         1 RES1    0.0000
     54 H24        0.2983    8.4067    5.8461 H         1 RES1    0.0000
     55 H25       -1.1685    7.9116    5.9428 H         1 RES1    0.0000
     56 H26        0.3201    6.5269    7.1553 H         1 RES1    0.0000
     57 H27        0.2303    4.9866    7.3180 H         1 RES1    0.0000
     58 H28       -1.0644    5.8279    7.1663 H         1 RES1    0.0000
@<TRIPOS>BOND
     1    1    2 ar
     2    2    3 ar
     3    3    4 ar
     4    4   14 ar
     5    5    6 ar
     6    6   19 ar
     7    7    8 ar
     8    8    9 ar
     9    9   10 ar
    10   10   21 ar
    11   11   12 ar
    12   12   17 ar
    13   13    1 ar
    14   14   13 ar
    15   15    5 ar
    16   16   15 ar
    17   17   13 1
    18   18   16 ar
    19   19   18 ar
    20   20    7 ar
    21   21   20 ar
    22   22   11 ar
    23   23    1 1
    24   24    4 1
    25   25    5 1
    26   26    6 1
    27   27    7 1
    28   28   10 1
    29   29   11 1
    30   30   12 1
    31   31    2 1
    32   32    3 1
    33   33    8 1
    34   34    9 1
    35   35   23 1
    36   36   23 1
    37   37   23 1
    38   38   24 1
    39   39   24 1
    40   40   24 1
    41   41   25 1
    42   42   25 1
    43   43   25 1
    44   44   26 1
    45   45   26 1
    46   46   26 1
    47   47   27 1
    48   48   27 1
    49   49   27 1
    50   50   28 1
    51   51   28 1
    52   52   28 1
    53   53   29 1
    54   54   29 1
    55   55   29 1
    56   56   30 1
    57   57   30 1
    58   58   30 1
    59   14   15 1
    60   16   17 ar
    61   18   22 ar
    62   19   20 1
    63   21   22 1
@<TRIPOS>SUBSTRUCTURE
     1 RES1 1

@<TRIPOS>CRYSIN
   7.2780   11.6840   12.5890 101.1700  94.3100 105.9700   2 1

