# MOL2 file generated by ConQuest
# Please check atom types

@<TRIPOS>MOLECULE
NPCBCP
    34    39     1
SMALL
NO_CHARGES
****
Generated from CSD

@<TRIPOS>ATOM
      1 C1         0.0057   -1.5758   -1.0156 C.ar      1 RES1    0.0000
      2 C2        -1.1304   -2.1129   -0.4760 C.ar      1 RES1    0.0000
      3 C3        -1.8844   -1.4490    0.5354 C.ar      1 RES1    0.0000
      4 C4        -1.5437   -0.2351    1.0468 C.ar      1 RES1    0.0000
      5 C5         0.3672   -0.3172   -0.4984 C.ar      1 RES1    0.0000
      6 C6         1.0448   -1.9558   -2.0847 C.3       1 RES1    0.0000
      7 C7        -2.0697   -3.3172   -0.5057 C.3       1 RES1    0.0000
      8 C8        -2.8929   -2.5935    0.6378 C.3       1 RES1    0.0000
      9 C9        -2.0573    0.7522    2.0883 C.3       1 RES1    0.0000
     10 H1         0.5633   -2.1777   -3.0071 H         1 RES1    0.0000
     11 H2         1.4246   -2.8455   -1.9250 H         1 RES1    0.0000
     12 H3        -1.6119   -4.2693   -0.2393 H         1 RES1    0.0000
     13 H4        -2.6004   -3.4674   -1.3995 H         1 RES1    0.0000
     14 H5        -3.7918   -2.3498    0.4266 H         1 RES1    0.0000
     15 H6        -2.8633   -3.0695    1.5192 H         1 RES1    0.0000
     16 H7        -2.0834    0.3094    2.9603 H         1 RES1    0.0000
     17 H8        -2.9937    1.0572    1.8365 H         1 RES1    0.0000
     18 C5A       -0.3672    0.3172    0.4984 C.ar      1 RES1    0.0000
     19 C4A        1.5437    0.2351   -1.0468 C.ar      1 RES1    0.0000
     20 C9A        2.0573   -0.7522   -2.0883 C.3       1 RES1    0.0000
     21 C6A       -1.0448    1.9558    2.0847 C.3       1 RES1    0.0000
     22 C1A       -0.0057    1.5758    1.0156 C.ar      1 RES1    0.0000
     23 C3A        1.8844    1.4490   -0.5354 C.ar      1 RES1    0.0000
     24 H7A        2.0834   -0.3094   -2.9603 H         1 RES1    0.0000
     25 H8A        2.9937   -1.0572   -1.8365 H         1 RES1    0.0000
     26 H1A       -0.5633    2.1777    3.0071 H         1 RES1    0.0000
     27 H2A       -1.4246    2.8455    1.9250 H         1 RES1    0.0000
     28 C2A        1.1304    2.1129    0.4760 C.ar      1 RES1    0.0000
     29 C8A        2.8929    2.5935   -0.6378 C.3       1 RES1    0.0000
     30 C7A        2.0697    3.3172    0.5057 C.3       1 RES1    0.0000
     31 H5A        3.7918    2.3498   -0.4266 H         1 RES1    0.0000
     32 H6A        2.8633    3.0695   -1.5192 H         1 RES1    0.0000
     33 H3A        1.6119    4.2693    0.2393 H         1 RES1    0.0000
     34 H4A        2.6004    3.4674    1.3995 H         1 RES1    0.0000
@<TRIPOS>BOND
     1    1    2 ar
     2    2    3 ar
     3    3    4 ar
     4    4    9 1
     5    5    1 ar
     6    6    1 1
     7    7    2 1
     8    8    3 1
     9    9   16 1
    10   10    6 1
    11   11    6 1
    12   12    7 1
    13   13    7 1
    14   14    8 1
    15   15    8 1
    16   17    9 1
    17   18    4 ar
    18   19    5 ar
    19   20    6 1
    20   21    9 1
    21   22   18 ar
    22   23   19 ar
    23   24   20 1
    24   25   20 1
    25   26   21 1
    26   27   21 1
    27   28   22 ar
    28   29   23 1
    29   30   28 1
    30   31   29 1
    31   32   29 1
    32   33   30 1
    33   34   30 1
    34    5   18 ar
    35    7    8 1
    36   19   20 1
    37   21   22 1
    38   23   28 ar
    39   29   30 1
@<TRIPOS>SUBSTRUCTURE
     1 RES1 1

@<TRIPOS>CRYSIN
   6.6030    8.5450    5.2380  95.1000  94.7200  84.8000   2 1

