# MOL2 file generated by ConQuest
# Please check atom types

@<TRIPOS>MOLECULE
NTCHPE
    24    28     1
SMALL
NO_CHARGES
****
Generated from CSD

@<TRIPOS>ATOM
      1 C1         2.2303    3.3894    0.0000 C.ar      1 RES1    0.0000
      2 C2         3.0666    3.2917    1.1284 C.ar      1 RES1    0.0000
      3 C3         3.6242    2.0364    1.3605 C.ar      1 RES1    0.0000
      4 C4         3.4325    0.9903    0.5762 C.ar      1 RES1    0.0000
      5 C5         2.6136    1.0879   -0.5602 C.ar      1 RES1    0.0000
      6 C6         1.9863    2.2735   -0.8723 C.ar      1 RES1    0.0000
      7 C7         1.1151    2.5246   -1.9927 C.3       1 RES1    0.0000
      8 C8         1.1500    3.8775   -2.6730 C.3       1 RES1    0.0000
      9 C9         3.2757    4.4355    1.9287 C.ar      1 RES1    0.0000
     10 C10        2.7007    5.5931    1.5926 C.ar      1 RES1    0.0000
     11 C11        1.8644    5.7187    0.4802 C.ar      1 RES1    0.0000
     12 C12        1.6204    4.6307   -0.2961 C.ar      1 RES1    0.0000
     13 C13        0.7667    4.7005   -1.5046 C.3       1 RES1    0.0000
     14 C14       -0.0174    3.4870   -1.8727 C.3       1 RES1    0.0000
     15 H1         4.0598    1.9806    2.2168 H         1 RES1    0.0000
     16 H2         3.9030    0.1255    0.9684 H         1 RES1    0.0000
     17 H3         2.4916    0.2929   -1.1764 H         1 RES1    0.0000
     18 H4         0.9409    1.6598   -2.6570 H         1 RES1    0.0000
     19 H5         1.1500    3.9054   -3.7534 H         1 RES1    0.0000
     20 H6         3.8159    4.3099    2.8731 H         1 RES1    0.0000
     21 H7         2.8575    6.4440    2.1368 H         1 RES1    0.0000
     22 H8         1.5159    6.5835    0.2161 H         1 RES1    0.0000
     23 H9         0.2962    5.5513   -1.8167 H         1 RES1    0.0000
     24 H10       -0.8538    3.3615   -2.0968 H         1 RES1    0.0000
@<TRIPOS>BOND
     1    1    2 ar
     2    2    3 ar
     3    3    4 ar
     4    4    5 ar
     5    5    6 ar
     6    6    1 ar
     7    7    6 1
     8    8    7 1
     9    9    2 ar
    10   10    9 ar
    11   11   10 ar
    12   12    1 ar
    13   13    8 1
    14   14    7 1
    15   15    3 1
    16   16    4 1
    17   17    5 1
    18   18    7 1
    19   19    8 1
    20   20    9 1
    21   21   10 1
    22   22   11 1
    23   23   13 1
    24   24   14 1
    25    8   14 1
    26   11   12 ar
    27   12   13 1
    28   13   14 1
@<TRIPOS>SUBSTRUCTURE
     1 RES1 1

@<TRIPOS>CRYSIN
  17.4240   13.9480    8.0030  90.0000  90.0000  90.0000  45 1

