# MOL2 file generated by ConQuest
# Please check atom types

@<TRIPOS>MOLECULE
OBOHUL
    94   102     1
SMALL
NO_CHARGES
****
Generated from CSD

@<TRIPOS>ATOM
      1 C1         5.2293    0.5981    4.6565 C.ar      1 RES1    0.0000
      2 C2         6.1338    0.2433    3.6390 C.ar      1 RES1    0.0000
      3 H1         6.9436   -0.1885    3.8842 H         1 RES1    0.0000
      4 C3         5.9034    0.4902    2.3158 C.ar      1 RES1    0.0000
      5 H2         6.5087    0.1679    1.6584 H         1 RES1    0.0000
      6 C4         4.7625    1.2260    1.9286 C.ar      1 RES1    0.0000
      7 C5         3.8456    1.6422    2.9364 C.ar      1 RES1    0.0000
      8 C6         4.5364    1.5665    0.5710 C.ar      1 RES1    0.0000
      9 H3         5.1392    1.2634   -0.0978 H         1 RES1    0.0000
     10 C7         3.4560    2.3287    0.2168 C.ar      1 RES1    0.0000
     11 H4         3.3062    2.5438   -0.6963 H         1 RES1    0.0000
     12 C8         2.5730    2.7909    1.1959 C.ar      1 RES1    0.0000
     13 H5         1.8417    3.3392    0.9370 H         1 RES1    0.0000
     14 C9         2.7362    2.4696    2.5411 C.ar      1 RES1    0.0000
     15 C10        1.8129    2.9480    3.5385 C.ar      1 RES1    0.0000
     16 C11        1.8975    2.4921    4.8398 C.ar      1 RES1    0.0000
     17 C12        0.8756    2.8280    5.7899 C.ar      1 RES1    0.0000
     18 H6         0.2509    3.5013    5.5473 H         1 RES1    0.0000
     19 C13        2.9398    1.5581    5.2456 C.ar      1 RES1    0.0000
     20 C14        4.0313    1.2482    4.3022 C.ar      1 RES1    0.0000
     21 C15        5.6718    0.2603    6.0666 C.3       1 RES1    0.0000
     22 H7         6.6465    0.1611    6.0882 H         1 RES1    0.0000
     23 H8         5.2517   -0.5789    6.3487 H         1 RES1    0.0000
     24 H9         5.4033    0.9806    6.6746 H         1 RES1    0.0000
     25 C16        0.6647    3.8205    3.1437 C.ar      1 RES1    0.0000
     26 C17        0.6465    5.1886    3.3898 C.ar      1 RES1    0.0000
     27 H10        1.4174    5.6089    3.7525 H         1 RES1    0.0000
     28 C18       -0.4821    5.9506    3.1135 C.ar      1 RES1    0.0000
     29 H11       -0.4655    6.8844    3.2875 H         1 RES1    0.0000
     30 C19       -1.6374    5.3773    2.5874 C.ar      1 RES1    0.0000
     31 C20       -1.5970    4.0081    2.3233 C.ar      1 RES1    0.0000
     32 H12       -2.3622    3.5868    1.9499 H         1 RES1    0.0000
     33 C21       -0.4754    3.2487    2.5897 C.ar      1 RES1    0.0000
     34 H13       -0.4825    2.3197    2.3911 H         1 RES1    0.0000
     35 C22       -2.9350    6.1550    2.3387 C.3       1 RES1    0.0000
     36 C23       -4.0098    5.6132    3.2934 C.3       1 RES1    0.0000
     37 H14       -4.0816    4.6419    3.1871 H         1 RES1    0.0000
     38 H15       -4.8721    6.0295    3.0842 H         1 RES1    0.0000
     39 H16       -3.7614    5.8234    4.2179 H         1 RES1    0.0000
     40 C24       -2.7712    7.6515    2.5622 C.3       1 RES1    0.0000
     41 H17       -3.6126    8.1073    2.3508 H         1 RES1    0.0000
     42 H18       -2.0598    7.9926    1.9810 H         1 RES1    0.0000
     43 H19       -2.5359    7.8181    3.4989 H         1 RES1    0.0000
     44 C25       -3.4007    5.9331    0.8903 C.3       1 RES1    0.0000
     45 H20       -3.5901    4.9819    0.7501 H         1 RES1    0.0000
     46 H21       -2.6958    6.2203    0.2730 H         1 RES1    0.0000
     47 H22       -4.2129    6.4559    0.7247 H         1 RES1    0.0000
     48 C1A       -1.5512    3.2072    7.6081 C.ar      1 RES1    0.0000
     49 C2A       -2.4556    3.5619    8.6256 C.ar      1 RES1    0.0000
     50 H1A       -3.2654    3.9938    8.3805 H         1 RES1    0.0000
     51 C3A       -2.2252    3.3151    9.9488 C.ar      1 RES1    0.0000
     52 H2A       -2.8305    3.6373   10.6063 H         1 RES1    0.0000
     53 C4A       -1.0843    2.5793   10.3360 C.ar      1 RES1    0.0000
     54 C5A       -0.1674    2.1631    9.3283 C.ar      1 RES1    0.0000
     55 C6A       -0.8582    2.2388   11.6936 C.ar      1 RES1    0.0000
     56 H3A       -1.4610    2.5419   12.3624 H         1 RES1    0.0000
     57 C7A        0.2222    1.4765   12.0478 C.ar      1 RES1    0.0000
     58 H4A        0.3719    1.2614   12.9609 H         1 RES1    0.0000
     59 C8A        1.1052    1.0143   11.0687 C.ar      1 RES1    0.0000
     60 H5A        1.8364    0.4660   11.3276 H         1 RES1    0.0000
     61 C9A        0.9420    1.3357    9.7235 C.ar      1 RES1    0.0000
     62 C10A       1.8653    0.8573    8.7262 C.ar      1 RES1    0.0000
     63 C11A       1.7807    1.3132    7.4249 C.ar      1 RES1    0.0000
     64 C12A       2.8026    0.9773    6.4748 C.ar      1 RES1    0.0000
     65 H6A        3.4273    0.3040    6.7174 H         1 RES1    0.0000
     66 C13A       0.7384    2.2471    7.0191 C.ar      1 RES1    0.0000
     67 C14A      -0.3531    2.5571    7.9625 C.ar      1 RES1    0.0000
     68 C15A      -1.9936    3.5449    6.1981 C.3       1 RES1    0.0000
     69 H7A       -2.9683    3.6442    6.1764 H         1 RES1    0.0000
     70 H8A       -1.5735    4.3841    5.9160 H         1 RES1    0.0000
     71 H9A       -1.7251    2.8247    5.5901 H         1 RES1    0.0000
     72 C16A       3.0135   -0.0152    9.1210 C.ar      1 RES1    0.0000
     73 C17A       3.0317   -1.3834    8.8748 C.ar      1 RES1    0.0000
     74 H10A       2.2607   -1.8037    8.5122 H         1 RES1    0.0000
     75 C18A       4.1603   -2.1453    9.1512 C.ar      1 RES1    0.0000
     76 H11A       4.1437   -3.0791    8.9772 H         1 RES1    0.0000
     77 C19A       5.3155   -1.5720    9.6773 C.ar      1 RES1    0.0000
     78 C20A       5.2752   -0.2028    9.9414 C.ar      1 RES1    0.0000
     79 H12A       6.0404    0.2185   10.3148 H         1 RES1    0.0000
     80 C21A       4.1536    0.5566    9.6750 C.ar      1 RES1    0.0000
     81 H13A       4.1607    1.4855    9.8736 H         1 RES1    0.0000
     82 C22A       6.6132   -2.3497    9.9259 C.3       1 RES1    0.0000
     83 C23A       7.6880   -1.8080    8.9712 C.3       1 RES1    0.0000
     84 H14A       7.7598   -0.8366    9.0776 H         1 RES1    0.0000
     85 H15A       8.5503   -2.2243    9.1804 H         1 RES1    0.0000
     86 H16A       7.4396   -2.0182    8.0468 H         1 RES1    0.0000
     87 C24A       6.4494   -3.8462    9.7025 C.3       1 RES1    0.0000
     88 H17A       7.2908   -4.3021    9.9139 H         1 RES1    0.0000
     89 H18A       5.7380   -4.1874   10.2837 H         1 RES1    0.0000
     90 H19A       6.2141   -4.0128    8.7658 H         1 RES1    0.0000
     91 C25A       7.0789   -2.1278   11.3744 C.3       1 RES1    0.0000
     92 H20A       7.2683   -1.1767   11.5146 H         1 RES1    0.0000
     93 H21A       6.3740   -2.4151   11.9917 H         1 RES1    0.0000
     94 H22A       7.8911   -2.6506   11.5400 H         1 RES1    0.0000
@<TRIPOS>BOND
     1    1    2 ar
     2    2    3 1
     3    4    2 ar
     4    5    4 1
     5    6    4 ar
     6    7    6 ar
     7    8    6 ar
     8    9    8 1
     9   10    8 ar
    10   11   10 1
    11   12   10 ar
    12   13   12 1
    13   14    7 ar
    14   15   14 ar
    15   16   15 ar
    16   17   16 ar
    17   18   17 1
    18   19   16 ar
    19   20    1 ar
    20   21    1 1
    21   22   21 1
    22   23   21 1
    23   24   21 1
    24   25   15 1
    25   26   25 ar
    26   27   26 1
    27   28   26 ar
    28   29   28 1
    29   30   28 ar
    30   31   30 ar
    31   32   31 1
    32   33   25 ar
    33   34   33 1
    34   35   30 1
    35   36   35 1
    36   37   36 1
    37   38   36 1
    38   39   36 1
    39   40   35 1
    40   41   40 1
    41   42   40 1
    42   43   40 1
    43   44   35 1
    44   45   44 1
    45   46   44 1
    46   47   44 1
    47   48   49 ar
    48   49   50 1
    49   51   49 ar
    50   52   51 1
    51   53   51 ar
    52   54   53 ar
    53   55   53 ar
    54   56   55 1
    55   57   55 ar
    56   58   57 1
    57   59   57 ar
    58   60   59 1
    59   61   54 ar
    60   62   61 ar
    61   63   62 ar
    62   64   19 ar
    63   65   64 1
    64   66   17 ar
    65   67   48 ar
    66   68   48 1
    67   69   68 1
    68   70   68 1
    69   71   68 1
    70   72   62 1
    71   73   72 ar
    72   74   73 1
    73   75   73 ar
    74   76   75 1
    75   77   75 ar
    76   78   77 ar
    77   79   78 1
    78   80   72 ar
    79   81   80 1
    80   82   77 1
    81   83   82 1
    82   84   83 1
    83   85   83 1
    84   86   83 1
    85   87   82 1
    86   88   87 1
    87   89   87 1
    88   90   87 1
    89   91   82 1
    90   92   91 1
    91   93   91 1
    92   94   91 1
    93    7   20 ar
    94   12   14 ar
    95   19   20 ar
    96   31   33 ar
    97   54   67 ar
    98   59   61 ar
    99   63   64 ar
   100   63   66 ar
   101   66   67 ar
   102   78   80 ar
@<TRIPOS>SUBSTRUCTURE
     1 RES1 1

@<TRIPOS>CRYSIN
   8.7644    9.2002   13.1212 105.8740  95.0800 115.2490   2 1

