# MOL2 file generated by ConQuest
# Please check atom types

@<TRIPOS>MOLECULE
OCAHIL
    36    37     1
SMALL
NO_CHARGES
****
Generated from CSD

@<TRIPOS>ATOM
      1 C1         5.6726    3.2230    3.6089 C.ar      1 RES1    0.0000
      2 C2         4.9606    1.9536    3.1512 C.3       1 RES1    0.0000
      3 H1         4.0567    1.9425    3.5796 H         1 RES1    0.0000
      4 C3         4.7556    1.8645    1.6385 C.3       1 RES1    0.0000
      5 H2         4.2934    1.0279    1.4197 H         1 RES1    0.0000
      6 H3         5.6269    1.8842    1.1894 H         1 RES1    0.0000
      7 H4         4.2145    2.6239    1.3359 H         1 RES1    0.0000
      8 C4         5.7230    0.7165    3.6437 C.3       1 RES1    0.0000
      9 H5         5.2597   -0.0936    3.3455 H         1 RES1    0.0000
     10 H6         5.7654    0.7266    4.6225 H         1 RES1    0.0000
     11 H7         6.6318    0.7258    3.2770 H         1 RES1    0.0000
     12 C5         6.4814    3.9372    2.7586 C.ar      1 RES1    0.0000
     13 H8         6.5480    3.6534    1.8536 H         1 RES1    0.0000
     14 C6         7.2235    5.0806    3.1661 C.ar      1 RES1    0.0000
     15 C7         8.1157    5.8077    2.1744 C.3       1 RES1    0.0000
     16 H9         8.5708    6.5507    2.6642 H         1 RES1    0.0000
     17 C8         7.3051    6.4306    1.0360 C.3       1 RES1    0.0000
     18 H10        7.9105    6.8914    0.4187 H         1 RES1    0.0000
     19 H11        6.6640    7.0736    1.4044 H         1 RES1    0.0000
     20 H12        6.8218    5.7264    0.5557 H         1 RES1    0.0000
     21 C9         9.2025    4.8777    1.6267 C.3       1 RES1    0.0000
     22 H13        9.7609    5.3685    0.9877 H         1 RES1    0.0000
     23 H14        8.7833    4.1156    1.1761 H         1 RES1    0.0000
     24 H15        9.7593    4.5549    2.3655 H         1 RES1    0.0000
     25 C10        7.1363    5.4833    4.4706 C.ar      1 RES1    0.0000
     26 H16        7.6303    6.2428    4.7576 H         1 RES1    0.0000
     27 C11        6.2595    5.1937    6.7639 C.ar      1 RES1    0.0000
     28 H17        6.7816    5.9308    7.0564 H         1 RES1    0.0000
     29 C12        5.4576    4.5397    7.6597 C.ar      1 RES1    0.0000
     30 H18        5.4304    4.8200    8.5674 H         1 RES1    0.0000
     31 C13        4.6737    3.4513    7.2355 C.ar      1 RES1    0.0000
     32 H19        4.1002    3.0139    7.8538 H         1 RES1    0.0000
     33 C14        4.7299    3.0170    5.9373 C.ar      1 RES1    0.0000
     34 H20        4.2016    2.2733    5.6729 H         1 RES1    0.0000
     35 C15        5.5642    3.6569    4.9778 C.ar      1 RES1    0.0000
     36 C16        6.3227    4.7884    5.4040 C.ar      1 RES1    0.0000
@<TRIPOS>BOND
     1    1    2 1
     2    2    3 1
     3    4    2 1
     4    5    4 1
     5    6    4 1
     6    7    4 1
     7    8    2 1
     8    9    8 1
     9   10    8 1
    10   11    8 1
    11   12    1 ar
    12   13   12 1
    13   14   12 ar
    14   15   14 1
    15   16   15 1
    16   17   15 1
    17   18   17 1
    18   19   17 1
    19   20   17 1
    20   21   15 1
    21   22   21 1
    22   23   21 1
    23   24   21 1
    24   25   14 ar
    25   26   25 1
    26   27   28 1
    27   29   27 ar
    28   30   29 1
    29   31   29 ar
    30   32   31 1
    31   33   31 ar
    32   34   33 1
    33   35    1 ar
    34   36   25 ar
    35   27   36 ar
    36   33   35 ar
    37   35   36 ar
@<TRIPOS>SUBSTRUCTURE
     1 RES1 1

@<TRIPOS>CRYSIN
  16.1044    8.2099   19.0303  90.0000  90.0000  90.0000  61 1

