# MOL2 file generated by ConQuest
# Please check atom types

@<TRIPOS>MOLECULE
OFABAB
    66    73     1
SMALL
NO_CHARGES
****
Generated from CSD

@<TRIPOS>ATOM
      1 C1         5.2031    2.4714    7.4007 C.ar      1 RES1    0.0000
      2 C2         6.5077    1.8712    7.8168 C.ar      1 RES1    0.0000
      3 C3         7.7092    2.3594    7.3290 C.ar      1 RES1    0.0000
      4 C4         6.5097    0.8431    8.7382 C.ar      1 RES1    0.0000
      5 C5         8.9128    1.8218    7.7837 C.ar      1 RES1    0.0000
      6 C6         8.9030    0.7969    8.6868 C.ar      1 RES1    0.0000
      7 C7         7.7104    0.3244    9.1819 C.ar      1 RES1    0.0000
      8 C8         2.9851    5.2978    8.5237 C.ar      1 RES1    0.0000
      9 C9         4.7215    3.6084    8.1406 C.ar      1 RES1    0.0000
     10 C10        3.4745    4.1843    7.8030 C.ar      1 RES1    0.0000
     11 C11        1.2218    7.0444    8.9542 C.ar      1 RES1    0.0000
     12 C12        1.7128    5.8847    8.1669 C.ar      1 RES1    0.0000
     13 C13        4.9828    5.2696    9.8821 C.ar      1 RES1    0.0000
     14 C14        5.4739    4.1835    9.1881 C.ar      1 RES1    0.0000
     15 C15        3.7690    5.8267    9.5640 C.ar      1 RES1    0.0000
     16 C16        0.5903    6.8336   10.1764 C.ar      1 RES1    0.0000
     17 C17        1.4265    8.3537    8.5489 C.ar      1 RES1    0.0000
     18 C18        0.1759    7.8852   10.9445 C.ar      1 RES1    0.0000
     19 C19        0.3695    9.1687   10.5409 C.ar      1 RES1    0.0000
     20 C20        1.0027    9.4178    9.3358 C.ar      1 RES1    0.0000
     21 H1         7.7039    3.0716    6.7006 H         1 RES1    0.0000
     22 H2         5.6830    0.5125    9.0672 H         1 RES1    0.0000
     23 H3         9.7408    2.1501    7.4541 H         1 RES1    0.0000
     24 H4         9.7219    0.4075    8.9714 H         1 RES1    0.0000
     25 H5         7.7221   -0.3628    9.8367 H         1 RES1    0.0000
     26 H6         5.4972    5.6371   10.5917 H         1 RES1    0.0000
     27 H7         6.3274    3.8223    9.3982 H         1 RES1    0.0000
     28 H8         3.4454    6.5727   10.0559 H         1 RES1    0.0000
     29 H9         0.4465    5.9450   10.4799 H         1 RES1    0.0000
     30 H10        1.8659    8.5152    7.7227 H         1 RES1    0.0000
     31 H11       -0.2559    7.7230   11.7750 H         1 RES1    0.0000
     32 H12        0.0728    9.8880   11.0853 H         1 RES1    0.0000
     33 H13        1.1456   10.3096    9.0411 H         1 RES1    0.0000
     34 C1B        0.9827    5.3644    7.1184 C.ar      1 RES1    0.0000
     35 C2B       -0.3219    5.9646    6.7023 C.ar      1 RES1    0.0000
     36 C3B       -1.5234    5.4764    7.1902 C.ar      1 RES1    0.0000
     37 C4B       -0.3239    6.9927    5.7809 C.ar      1 RES1    0.0000
     38 C5B       -2.7270    6.0140    6.7354 C.ar      1 RES1    0.0000
     39 C6B       -2.7172    7.0389    5.8323 C.ar      1 RES1    0.0000
     40 C7B       -1.5246    7.5114    5.3372 C.ar      1 RES1    0.0000
     41 C8B        3.2007    2.5380    5.9954 C.ar      1 RES1    0.0000
     42 C9B        1.4643    4.2274    6.3785 C.ar      1 RES1    0.0000
     43 C10B       2.7113    3.6515    6.7161 C.ar      1 RES1    0.0000
     44 C11B       4.9640    0.7914    5.5649 C.ar      1 RES1    0.0000
     45 C12B       4.4730    1.9511    6.3523 C.ar      1 RES1    0.0000
     46 C13B       1.2030    2.5662    4.6370 C.ar      1 RES1    0.0000
     47 C14B       0.7119    3.6523    5.3310 C.ar      1 RES1    0.0000
     48 C15B       2.4168    2.0091    4.9551 C.ar      1 RES1    0.0000
     49 C16B       5.5955    1.0022    4.3427 C.ar      1 RES1    0.0000
     50 C17B       4.7593   -0.5179    5.9703 C.ar      1 RES1    0.0000
     51 C18B       6.0099   -0.0494    3.5746 C.ar      1 RES1    0.0000
     52 C19B       5.8162   -1.3329    3.9782 C.ar      1 RES1    0.0000
     53 C20B       5.1831   -1.5820    5.1833 C.ar      1 RES1    0.0000
     54 H1B       -1.5181    4.7642    7.8185 H         1 RES1    0.0000
     55 H2B        0.5028    7.3233    5.4519 H         1 RES1    0.0000
     56 H3B       -3.5550    5.6857    7.0650 H         1 RES1    0.0000
     57 H4B       -3.5361    7.4283    5.5478 H         1 RES1    0.0000
     58 H5B       -1.5363    8.1986    4.6824 H         1 RES1    0.0000
     59 H6B        0.6886    2.1987    3.9274 H         1 RES1    0.0000
     60 H7B       -0.1416    4.0135    5.1209 H         1 RES1    0.0000
     61 H8B        2.7404    1.2631    4.4632 H         1 RES1    0.0000
     62 H9B        5.7393    1.8908    4.0392 H         1 RES1    0.0000
     63 H10B       4.3199   -0.6794    6.7964 H         1 RES1    0.0000
     64 H11B       6.4417    0.1128    2.7441 H         1 RES1    0.0000
     65 H12B       6.1130   -2.0522    3.4338 H         1 RES1    0.0000
     66 H13B       5.0402   -2.4738    5.4781 H         1 RES1    0.0000
@<TRIPOS>BOND
     1    1    2 1
     2    2    3 ar
     3    3    5 ar
     4    4    2 ar
     5    5    6 ar
     6    6    7 ar
     7    7    4 ar
     8    8   10 ar
     9    9    1 ar
    10   10    9 ar
    11   11   12 1
    12   12    8 ar
    13   13   14 ar
    14   14    9 ar
    15   15    8 ar
    16   16   11 ar
    17   17   11 ar
    18   18   16 ar
    19   19   18 ar
    20   20   17 ar
    21   21    3 1
    22   22    4 1
    23   23    5 1
    24   24    6 1
    25   25    7 1
    26   26   13 1
    27   27   14 1
    28   28   15 1
    29   29   16 1
    30   30   17 1
    31   31   18 1
    32   32   19 1
    33   33   20 1
    34   34   12 ar
    35   35   34 1
    36   36   35 ar
    37   37   35 ar
    38   38   36 ar
    39   39   38 ar
    40   40   37 ar
    41   41   43 ar
    42   42   34 ar
    43   43   10 ar
    44   44   45 1
    45   45    1 ar
    46   46   47 ar
    47   47   42 ar
    48   48   41 ar
    49   49   44 ar
    50   50   44 ar
    51   51   49 ar
    52   52   51 ar
    53   53   50 ar
    54   54   36 1
    55   55   37 1
    56   56   38 1
    57   57   39 1
    58   58   40 1
    59   59   46 1
    60   60   47 1
    61   61   48 1
    62   62   49 1
    63   63   50 1
    64   64   51 1
    65   65   52 1
    66   66   53 1
    67   13   15 ar
    68   19   20 ar
    69   39   40 ar
    70   41   45 ar
    71   42   43 ar
    72   46   48 ar
    73   52   53 ar
@<TRIPOS>SUBSTRUCTURE
     1 RES1 1

@<TRIPOS>CRYSIN
  11.5703    7.8358   15.4854  90.0000 110.3476  90.0000 231 1

