# MOL2 file generated by ConQuest
# Please check atom types

@<TRIPOS>MOLECULE
OHCHRY01
    38    41     1
SMALL
NO_CHARGES
****
Generated from CSD

@<TRIPOS>ATOM
      1 C1        -3.5960   -0.1290    1.8389 C.3       1 RES1    0.0000
      2 C2        -3.5863    1.0150    2.8464 C.3       1 RES1    0.0000
      3 C3        -3.0920    2.2765    2.1882 C.3       1 RES1    0.0000
      4 C4        -1.6467    2.1039    1.7369 C.3       1 RES1    0.0000
      5 C5        -0.8724   -1.6037   -0.3325 C.ar      1 RES1    0.0000
      6 C6        -2.0339   -1.4195    0.3444 C.ar      1 RES1    0.0000
      7 C7        -2.3030   -0.2262    1.0521 C.ar      1 RES1    0.0000
      8 C8        -1.3810    0.7953    1.0333 C.ar      1 RES1    0.0000
      9 C9         0.1367   -0.6090   -0.3434 C.ar      1 RES1    0.0000
     10 H1        -4.3365    0.0145    1.1975 H         1 RES1    0.0000
     11 H2        -3.7661   -1.0222    2.2763 H         1 RES1    0.0000
     12 H3        -2.9363    0.7685    3.6223 H         1 RES1    0.0000
     13 H4        -4.5463    1.1455    3.2561 H         1 RES1    0.0000
     14 H5        -3.1978    3.0522    2.7910 H         1 RES1    0.0000
     15 H6        -3.6983    2.4505    1.3460 H         1 RES1    0.0000
     16 H7        -1.0509    2.1895    2.5435 H         1 RES1    0.0000
     17 H8        -1.4438    2.8565    1.1085 H         1 RES1    0.0000
     18 H9        -0.6981   -2.4215   -0.7918 H         1 RES1    0.0000
     19 H10       -2.6937   -2.1605    0.3860 H         1 RES1    0.0000
     20 C8B        1.3810   -0.7953   -1.0333 C.ar      1 RES1    0.0000
     21 C4B        1.6467   -2.1039   -1.7369 C.3       1 RES1    0.0000
     22 C3B        3.0920   -2.2765   -2.1882 C.3       1 RES1    0.0000
     23 C2B        3.5863   -1.0150   -2.8464 C.3       1 RES1    0.0000
     24 C1B        3.5960    0.1290   -1.8389 C.3       1 RES1    0.0000
     25 C7B        2.3030    0.2262   -1.0521 C.ar      1 RES1    0.0000
     26 C6B        2.0339    1.4195   -0.3444 C.ar      1 RES1    0.0000
     27 C5B        0.8724    1.6037    0.3325 C.ar      1 RES1    0.0000
     28 C9B       -0.1367    0.6090    0.3434 C.ar      1 RES1    0.0000
     29 H9B        0.6981    2.4215    0.7918 H         1 RES1    0.0000
     30 H10B       2.6937    2.1605   -0.3860 H         1 RES1    0.0000
     31 H1B        4.3365   -0.0145   -1.1975 H         1 RES1    0.0000
     32 H2B        3.7661    1.0222   -2.2763 H         1 RES1    0.0000
     33 H3B        2.9363   -0.7685   -3.6223 H         1 RES1    0.0000
     34 H4B        4.5463   -1.1455   -3.2561 H         1 RES1    0.0000
     35 H5B        3.1978   -3.0522   -2.7910 H         1 RES1    0.0000
     36 H6B        3.6983   -2.4505   -1.3460 H         1 RES1    0.0000
     37 H7B        1.0509   -2.1895   -2.5435 H         1 RES1    0.0000
     38 H8B        1.4438   -2.8565   -1.1085 H         1 RES1    0.0000
@<TRIPOS>BOND
     1    1    2 1
     2    2    3 1
     3    3    4 1
     4    4    8 1
     5    5    6 ar
     6    6    7 ar
     7    7    1 1
     8    8    7 ar
     9    9    5 ar
    10   10    1 1
    11   11    1 1
    12   12    2 1
    13   13    2 1
    14   14    3 1
    15   15    3 1
    16   16    4 1
    17   17    4 1
    18   18    5 1
    19   19    6 1
    20   20    9 ar
    21   21   20 1
    22   22   21 1
    23   23   22 1
    24   24   23 1
    25   25   20 ar
    26   26   25 ar
    27   27   26 ar
    28   28    8 ar
    29   29   27 1
    30   30   26 1
    31   31   24 1
    32   32   24 1
    33   33   23 1
    34   34   23 1
    35   35   22 1
    36   36   22 1
    37   37   21 1
    38   38   21 1
    39    9   28 ar
    40   24   25 1
    41   27   28 ar
@<TRIPOS>SUBSTRUCTURE
     1 RES1 1

@<TRIPOS>CRYSIN
   9.1293    7.2499   10.0753  90.0000 100.7930  90.0000  14 1

