# MOL2 file generated by ConQuest
# Please check atom types

@<TRIPOS>MOLECULE
OMIRIM
    84    86     1
SMALL
NO_CHARGES
****
Generated from CSD

@<TRIPOS>ATOM
      1 C1         4.1116    1.6418    6.4306 C.ar      1 RES1    0.0000
      2 C2         4.1865    0.4338    7.0580 C.ar      1 RES1    0.0000
      3 H1         4.8371   -0.1831    6.7754 H         1 RES1    0.0000
      4 C3         3.3248    0.0728    8.1150 C.ar      1 RES1    0.0000
      5 H2         3.4226   -0.7743    8.5104 H         1 RES1    0.0000
      6 C4         2.3524    0.9101    8.5835 C.ar      1 RES1    0.0000
      7 C5         2.2250    2.2120    7.9742 C.ar      1 RES1    0.0000
      8 C6         3.1132    2.5841    6.9026 C.ar      1 RES1    0.0000
      9 C7         1.2607    3.1331    8.3932 C.ar      1 RES1    0.0000
     10 H3         0.6762    2.8868    9.0878 H         1 RES1    0.0000
     11 C8         5.0153    2.0276    5.2902 C.3       1 RES1    0.0000
     12 H4         5.5541    2.7947    5.5749 H         1 RES1    0.0000
     13 H5         4.4536    2.3264    4.5454 H         1 RES1    0.0000
     14 C9         5.9627    0.9521    4.7676 C.3       1 RES1    0.0000
     15 H6         6.5783    0.6907    5.4836 H         1 RES1    0.0000
     16 H7         5.4424    0.1615    4.5145 H         1 RES1    0.0000
     17 C10        6.7634    1.4257    3.5714 C.3       1 RES1    0.0000
     18 H8         7.2903    2.2077    3.8354 H         1 RES1    0.0000
     19 H9         6.1412    1.7101    2.8707 H         1 RES1    0.0000
     20 C11        7.6999    0.3823    2.9944 C.3       1 RES1    0.0000
     21 H10        7.1766   -0.4022    2.7278 H         1 RES1    0.0000
     22 H11        8.3280    0.0985    3.6911 H         1 RES1    0.0000
     23 C12        8.4874    0.8792    1.7955 C.3       1 RES1    0.0000
     24 H12        7.8758    1.0956    1.0752 H         1 RES1    0.0000
     25 H13        9.1019    0.1886    1.5038 H         1 RES1    0.0000
     26 H14        8.9877    1.6724    2.0444 H         1 RES1    0.0000
     27 C13        1.4505    0.4866    9.7101 C.3       1 RES1    0.0000
     28 H15        1.4426   -0.4920    9.7521 H         1 RES1    0.0000
     29 H16        0.5379    0.7814    9.5076 H         1 RES1    0.0000
     30 C14        1.8411    1.0255   11.0705 C.3       1 RES1    0.0000
     31 H17        1.8788    2.0042   11.0335 H         1 RES1    0.0000
     32 H18        2.7337    0.6964   11.3060 H         1 RES1    0.0000
     33 C15        0.8372    0.5947   12.1515 C.3       1 RES1    0.0000
     34 H19       -0.0376    0.9781   11.9320 H         1 RES1    0.0000
     35 H20        0.7467   -0.3806   12.1191 H         1 RES1    0.0000
     36 C16        1.1798    0.9789   13.5036 C.3       1 RES1    0.0000
     37 H21        1.2236    1.9560   13.5581 H         1 RES1    0.0000
     38 H22        2.0674    0.6259   13.7231 H         1 RES1    0.0000
     39 C17        0.1579    0.4584   14.5405 C.3       1 RES1    0.0000
     40 H23       -0.7065    0.8668   14.3756 H         1 RES1    0.0000
     41 H24        0.4586    0.6873   15.4346 H         1 RES1    0.0000
     42 H25        0.0800   -0.5051   14.4625 H         1 RES1    0.0000
     43 C1A        0.1279    5.3443    8.2985 C.ar      1 RES1    0.0000
     44 C2A        0.0530    6.5522    7.6710 C.ar      1 RES1    0.0000
     45 H1A       -0.5976    7.1692    7.9537 H         1 RES1    0.0000
     46 C3A        0.9147    6.9133    6.6141 C.ar      1 RES1    0.0000
     47 H2A        0.8169    7.7603    6.2186 H         1 RES1    0.0000
     48 C4A        1.8871    6.0760    6.1456 C.ar      1 RES1    0.0000
     49 C5A        2.0145    4.7741    6.7549 C.ar      1 RES1    0.0000
     50 C6A        1.1263    4.4019    7.8264 C.ar      1 RES1    0.0000
     51 C7A        2.9788    3.8530    6.3358 C.ar      1 RES1    0.0000
     52 H3A        3.5633    4.0993    5.6412 H         1 RES1    0.0000
     53 C8A       -0.7758    4.9585    9.4388 C.3       1 RES1    0.0000
     54 H4A       -1.3146    4.1914    9.1541 H         1 RES1    0.0000
     55 H5A       -0.2140    4.6597   10.1837 H         1 RES1    0.0000
     56 C9A       -1.7232    6.0340    9.9614 C.3       1 RES1    0.0000
     57 H6A       -2.3388    6.2954    9.2454 H         1 RES1    0.0000
     58 H7A       -1.2029    6.8246   10.2146 H         1 RES1    0.0000
     59 C10A      -2.5239    5.5604   11.1577 C.3       1 RES1    0.0000
     60 H8A       -3.0507    4.7784   10.8936 H         1 RES1    0.0000
     61 H9A       -1.9017    5.2760   11.8584 H         1 RES1    0.0000
     62 C11A      -3.4604    6.6038   11.7346 C.3       1 RES1    0.0000
     63 H10A      -2.9371    7.3882   12.0012 H         1 RES1    0.0000
     64 H11A      -4.0885    6.8876   11.0380 H         1 RES1    0.0000
     65 C12A      -4.2479    6.1069   12.9336 C.3       1 RES1    0.0000
     66 H12A      -3.6363    5.8905   13.6538 H         1 RES1    0.0000
     67 H13A      -4.8624    6.7975   13.2252 H         1 RES1    0.0000
     68 H14A      -4.7482    5.3137   12.6847 H         1 RES1    0.0000
     69 C13A       2.7890    6.4995    5.0189 C.3       1 RES1    0.0000
     70 H15A       2.7969    7.4780    4.9769 H         1 RES1    0.0000
     71 H16A       3.7016    6.2047    5.2214 H         1 RES1    0.0000
     72 C14A       2.3984    5.9606    3.6585 C.3       1 RES1    0.0000
     73 H17A       2.3607    4.9819    3.6955 H         1 RES1    0.0000
     74 H18A       1.5058    6.2896    3.4230 H         1 RES1    0.0000
     75 C15A       3.4023    6.3914    2.5776 C.3       1 RES1    0.0000
     76 H19A       4.2771    6.0080    2.7970 H         1 RES1    0.0000
     77 H20A       3.4928    7.3667    2.6100 H         1 RES1    0.0000
     78 C16A       3.0597    6.0072    1.2255 C.3       1 RES1    0.0000
     79 H21A       3.0160    5.0301    1.1710 H         1 RES1    0.0000
     80 H22A       2.1721    6.3602    1.0060 H         1 RES1    0.0000
     81 C17A       4.0816    6.5277    0.1885 C.3       1 RES1    0.0000
     82 H23A       4.9460    6.1193    0.3535 H         1 RES1    0.0000
     83 H24A       3.7809    6.2988   -0.7055 H         1 RES1    0.0000
     84 H25A       4.1595    7.4912    0.2666 H         1 RES1    0.0000
@<TRIPOS>BOND
     1    1    2 ar
     2    2    3 1
     3    4    2 ar
     4    5    4 1
     5    6    4 ar
     6    7    6 ar
     7    8    1 ar
     8    9    7 ar
     9   10    9 1
    10   11    1 1
    11   12   11 1
    12   13   11 1
    13   14   11 1
    14   15   14 1
    15   16   14 1
    16   17   14 1
    17   18   17 1
    18   19   17 1
    19   20   17 1
    20   21   20 1
    21   22   20 1
    22   23   20 1
    23   24   23 1
    24   25   23 1
    25   26   23 1
    26   27    6 1
    27   28   27 1
    28   29   27 1
    29   30   27 1
    30   31   30 1
    31   32   30 1
    32   33   30 1
    33   34   33 1
    34   35   33 1
    35   36   33 1
    36   37   36 1
    37   38   36 1
    38   39   36 1
    39   40   39 1
    40   41   39 1
    41   42   39 1
    42   43   44 ar
    43   44   45 1
    44   46   44 ar
    45   47   46 1
    46   48   46 ar
    47   49   48 ar
    48   50    9 ar
    49   51    8 ar
    50   52   51 1
    51   53   43 1
    52   54   53 1
    53   55   53 1
    54   56   53 1
    55   57   56 1
    56   58   56 1
    57   59   56 1
    58   60   59 1
    59   61   59 1
    60   62   59 1
    61   63   62 1
    62   64   62 1
    63   65   62 1
    64   66   65 1
    65   67   65 1
    66   68   65 1
    67   69   48 1
    68   70   69 1
    69   71   69 1
    70   72   69 1
    71   73   72 1
    72   74   72 1
    73   75   72 1
    74   76   75 1
    75   77   75 1
    76   78   75 1
    77   79   78 1
    78   80   78 1
    79   81   78 1
    80   82   81 1
    81   83   81 1
    82   84   81 1
    83    7    8 ar
    84   43   50 ar
    85   49   50 ar
    86   49   51 ar
@<TRIPOS>SUBSTRUCTURE
     1 RES1 1

@<TRIPOS>CRYSIN
   5.3500    9.5800   14.9460  99.6850  90.2430  96.2750   2 1

