# MOL2 file generated by ConQuest
# Please check atom types

@<TRIPOS>MOLECULE
OMNAPH02
    42    43     1
SMALL
NO_CHARGES
****
Generated from CSD

@<TRIPOS>ATOM
      1 C1         6.6986    1.9663   10.9339 C.ar      1 RES1    0.0000
      2 C2         5.5159    1.7254   11.7181 C.ar      1 RES1    0.0000
      3 C3         4.2099    1.4957   11.1508 C.ar      1 RES1    0.0000
      4 C4         3.0903    1.5986   11.9430 C.ar      1 RES1    0.0000
      5 C5         7.9448    1.9153   11.5289 C.ar      1 RES1    0.0000
      6 C6         6.5942    2.4339    9.4939 C.3       1 RES1    0.0000
      7 H1         7.2552    3.1386    9.3306 H         1 RES1    0.0000
      8 H2         5.6946    2.7844    9.3289 H         1 RES1    0.0000
      9 H3         6.7666    1.6796    8.8931 H         1 RES1    0.0000
     10 C7         4.0605    0.9726    9.7377 C.3       1 RES1    0.0000
     11 H4         3.3822    0.2649    9.7216 H         1 RES1    0.0000
     12 H5         4.9182    0.6102    9.4316 H         1 RES1    0.0000
     13 H6         3.7849    1.7036    9.1466 H         1 RES1    0.0000
     14 C8         1.6966    1.4267   11.3695 C.3       1 RES1    0.0000
     15 H7         1.7536    1.3351   10.3960 H         1 RES1    0.0000
     16 H8         1.1523    2.2110   11.5924 H         1 RES1    0.0000
     17 H9         1.2839    0.6237   11.7498 H         1 RES1    0.0000
     18 C9         9.2120    2.1352   10.7331 C.3       1 RES1    0.0000
     19 H10        9.0010    2.1337    9.7763 H         1 RES1    0.0000
     20 H11        9.8487    1.4162   10.9279 H         1 RES1    0.0000
     21 H12        9.6067    2.9975   10.9793 H         1 RES1    0.0000
     22 C1B        4.4564    1.9663   13.9211 C.ar      1 RES1    0.0000
     23 C2B        5.6391    1.7254   13.1369 C.ar      1 RES1    0.0000
     24 C3B        6.9451    1.4957   13.7042 C.ar      1 RES1    0.0000
     25 C4B        8.0647    1.5986   12.9120 C.ar      1 RES1    0.0000
     26 C5B        3.2102    1.9153   13.3261 C.ar      1 RES1    0.0000
     27 C6B        4.5608    2.4339   15.3611 C.3       1 RES1    0.0000
     28 H1B        3.8998    3.1386   15.5244 H         1 RES1    0.0000
     29 H2B        5.4604    2.7844   15.5261 H         1 RES1    0.0000
     30 H3B        4.3884    1.6796   15.9619 H         1 RES1    0.0000
     31 C7B        7.0945    0.9726   15.1173 C.3       1 RES1    0.0000
     32 H4B        7.7728    0.2649   15.1334 H         1 RES1    0.0000
     33 H5B        6.2368    0.6102   15.4234 H         1 RES1    0.0000
     34 H6B        7.3701    1.7036   15.7084 H         1 RES1    0.0000
     35 C8B        9.4584    1.4267   13.4855 C.3       1 RES1    0.0000
     36 H7B        9.4014    1.3351   14.4590 H         1 RES1    0.0000
     37 H8B       10.0027    2.2110   13.2626 H         1 RES1    0.0000
     38 H9B        9.8711    0.6237   13.1052 H         1 RES1    0.0000
     39 C9B        1.9430    2.1352   14.1219 C.3       1 RES1    0.0000
     40 H10B       2.1540    2.1337   15.0787 H         1 RES1    0.0000
     41 H11B       1.3063    1.4162   13.9271 H         1 RES1    0.0000
     42 H12B       1.5483    2.9975   13.8757 H         1 RES1    0.0000
@<TRIPOS>BOND
     1    1    2 ar
     2    2    3 ar
     3    3    4 ar
     4    4   14 1
     5    5    1 ar
     6    6    1 1
     7    7    6 1
     8    8    6 1
     9    9    6 1
    10   10    3 1
    11   11   10 1
    12   12   10 1
    13   13   10 1
    14   14   15 1
    15   16   14 1
    16   17   14 1
    17   18    5 1
    18   19   18 1
    19   20   18 1
    20   21   18 1
    21   22   23 ar
    22   23    2 ar
    23   24   23 ar
    24   25    5 ar
    25   26    4 ar
    26   27   22 1
    27   28   27 1
    28   29   27 1
    29   30   27 1
    30   31   24 1
    31   32   31 1
    32   33   31 1
    33   34   31 1
    34   35   25 1
    35   36   35 1
    36   37   35 1
    37   38   35 1
    38   39   26 1
    39   40   39 1
    40   41   39 1
    41   42   39 1
    42   22   26 ar
    43   24   25 ar
@<TRIPOS>SUBSTRUCTURE
     1 RES1 1

@<TRIPOS>CRYSIN
  11.1550    7.5050   16.5700  90.0000  90.0000  90.0000  60 1

