# MOL2 file generated by ConQuest
# Please check atom types

@<TRIPOS>MOLECULE
OQEYUF
    50    55     1
SMALL
NO_CHARGES
****
Generated from CSD

@<TRIPOS>ATOM
      1 C1        -3.6279    6.3949    3.8252 C.ar      1 RES1    0.0000
      2 H1        -4.1574    6.0018    4.4807 H         1 RES1    0.0000
      3 C2        -4.0936    7.4952    3.1541 C.ar      1 RES1    0.0000
      4 H2        -4.9348    7.8400    3.3472 H         1 RES1    0.0000
      5 C3        -3.2974    8.0936    2.1802 C.ar      1 RES1    0.0000
      6 H3        -3.6110    8.8477    1.7342 H         1 RES1    0.0000
      7 C4        -2.0843    7.5998    1.8725 C.ar      1 RES1    0.0000
      8 H4        -1.5717    8.0198    1.2202 H         1 RES1    0.0000
      9 C5        -1.5755    6.4513    2.5272 C.ar      1 RES1    0.0000
     10 C6        -2.3660    5.8528    3.5420 C.ar      1 RES1    0.0000
     11 C7        -1.8615    4.7231    4.2450 C.ar      1 RES1    0.0000
     12 H5        -2.3716    4.3299    4.9161 H         1 RES1    0.0000
     13 C8        -0.6347    4.2145    3.9389 C.ar      1 RES1    0.0000
     14 C9         0.1142    4.7660    2.8554 C.ar      1 RES1    0.0000
     15 C10       -0.3380    5.8757    2.1859 C.ar      1 RES1    0.0000
     16 H6         0.1765    6.2473    1.5050 H         1 RES1    0.0000
     17 C11        1.3126    3.9529    2.6393 C.ar      1 RES1    0.0000
     18 C12        2.2646    4.0482    1.6679 C.ar      1 RES1    0.0000
     19 H7         2.2252    4.7257    1.0328 H         1 RES1    0.0000
     20 C13        3.2918    3.1210    1.6401 C.ar      1 RES1    0.0000
     21 H8         3.9452    3.1693    0.9796 H         1 RES1    0.0000
     22 C14        3.3443    2.1294    2.5886 C.ar      1 RES1    0.0000
     23 H9         4.0429    1.5149    2.5665 H         1 RES1    0.0000
     24 C15        2.3810    2.0234    3.5780 C.ar      1 RES1    0.0000
     25 H10        2.4336    1.3445    4.2123 H         1 RES1    0.0000
     26 C16        1.3387    2.9318    3.6189 C.ar      1 RES1    0.0000
     27 C17        0.1551    3.0727    4.5044 C.2       1 RES1    0.0000
     28 C18       -0.1251    2.3709    5.6158 C.2       1 RES1    0.0000
     29 C19       -1.2900    2.6487    6.5021 C.ar      1 RES1    0.0000
     30 C20       -1.3614    3.8053    7.2730 C.ar      1 RES1    0.0000
     31 H11       -0.6610    4.4158    7.2583 H         1 RES1    0.0000
     32 C21       -2.4674    4.0508    8.0587 C.ar      1 RES1    0.0000
     33 H12       -2.5087    4.8304    8.5636 H         1 RES1    0.0000
     34 C22       -3.4946    3.1679    8.1021 C.ar      1 RES1    0.0000
     35 H13       -4.2457    3.3504    8.6201 H         1 RES1    0.0000
     36 C23       -3.4232    2.0033    7.3770 C.ar      1 RES1    0.0000
     37 H14       -4.1161    1.3834    7.4212 H         1 RES1    0.0000
     38 C24       -2.3285    1.7577    6.5880 C.ar      1 RES1    0.0000
     39 H15       -2.2890    0.9674    6.0995 H         1 RES1    0.0000
     40 C25        0.7286    1.2183    6.0733 C.ar      1 RES1    0.0000
     41 C26        0.4818   -0.0590    5.5986 C.ar      1 RES1    0.0000
     42 H16       -0.2047   -0.2013    4.9881 H         1 RES1    0.0000
     43 C27        1.2469   -1.1164    6.0266 C.ar      1 RES1    0.0000
     44 H17        1.0760   -1.9738    5.7083 H         1 RES1    0.0000
     45 C28        2.2590   -0.9084    6.9195 C.ar      1 RES1    0.0000
     46 H18        2.7754   -1.6262    7.2084 H         1 RES1    0.0000
     47 C29        2.5219    0.3569    7.3950 C.ar      1 RES1    0.0000
     48 H19        3.2223    0.4965    7.9908 H         1 RES1    0.0000
     49 C30        1.7426    1.4156    6.9841 C.ar      1 RES1    0.0000
     50 H20        1.9003    2.2663    7.3230 H         1 RES1    0.0000
@<TRIPOS>BOND
     1    1    2 1
     2    3    1 ar
     3    4    3 1
     4    5    3 ar
     5    6    5 1
     6    7    5 ar
     7    8    7 1
     8    9    7 ar
     9   10    1 ar
    10   11   10 ar
    11   12   11 1
    12   13   11 ar
    13   14   13 ar
    14   15    9 ar
    15   16   15 1
    16   17   14 1
    17   18   17 ar
    18   19   18 1
    19   20   18 ar
    20   21   20 1
    21   22   20 ar
    22   23   22 1
    23   24   22 ar
    24   25   24 1
    25   26   17 ar
    26   27   13 1
    27   28   27 2
    28   29   28 1
    29   30   29 ar
    30   31   30 1
    31   32   30 ar
    32   33   32 1
    33   34   32 ar
    34   35   34 1
    35   36   34 ar
    36   37   36 1
    37   38   29 ar
    38   39   38 1
    39   40   28 1
    40   41   40 ar
    41   42   41 1
    42   43   41 ar
    43   44   43 1
    44   45   43 ar
    45   46   45 1
    46   47   45 ar
    47   48   47 1
    48   49   40 ar
    49   50   49 1
    50    9   10 ar
    51   14   15 ar
    52   24   26 ar
    53   26   27 1
    54   36   38 ar
    55   47   49 ar
@<TRIPOS>SUBSTRUCTURE
     1 RES1 1

@<TRIPOS>CRYSIN
  18.7779   13.4178    8.1839  90.0000  90.0000  90.0000  29 1

