# MOL2 file generated by ConQuest
# Please check atom types

@<TRIPOS>MOLECULE
OTUROM
    45    50     1
SMALL
NO_CHARGES
****
Generated from CSD

@<TRIPOS>ATOM
      1 C1         2.7495    0.2217   -0.1080 C.ar      1 RES1    0.0000
      2 H1         2.9634    1.0152   -0.5646 H         1 RES1    0.0000
      3 C2         1.6302   -0.4771   -0.4713 C.ar      1 RES1    0.0000
      4 H2         1.1000   -0.1734   -1.1857 H         1 RES1    0.0000
      5 C3         1.2698   -1.6478    0.2209 C.ar      1 RES1    0.0000
      6 H3         0.4749   -2.1007    0.0049 H         1 RES1    0.0000
      7 C4         2.0729   -2.1144    1.1979 C.ar      1 RES1    0.0000
      8 H4         1.8340   -2.9026    1.6508 H         1 RES1    0.0000
      9 C5         3.2568   -1.4513    1.5551 C.ar      1 RES1    0.0000
     10 C6         4.1874   -2.0408    2.4634 C.ar      1 RES1    0.0000
     11 H5         3.9413   -2.8070    2.9506 H         1 RES1    0.0000
     12 C7         5.4082   -1.5101    2.6266 C.ar      1 RES1    0.0000
     13 H6         6.0197   -1.9557    3.1826 H         1 RES1    0.0000
     14 C8         5.8175   -0.3016    1.9933 C.ar      1 RES1    0.0000
     15 C9         7.1820    0.1145    2.0105 C.ar      1 RES1    0.0000
     16 C10        7.5277    1.1802    1.2421 C.ar      1 RES1    0.0000
     17 H7         8.4392    1.3662    1.1132 H         1 RES1    0.0000
     18 C11        6.5655    2.0230    0.6247 C.ar      1 RES1    0.0000
     19 C12        6.9764    3.1275   -0.1645 C.ar      1 RES1    0.0000
     20 H8         7.8927    3.2809   -0.3068 H         1 RES1    0.0000
     21 C13        6.0736    3.9545   -0.7070 C.ar      1 RES1    0.0000
     22 H9         6.3451    4.5830   -1.3514 H         1 RES1    0.0000
     23 C14        4.7129    3.8925   -0.3216 C.ar      1 RES1    0.0000
     24 C15        3.8221    4.9224   -0.7315 C.ar      1 RES1    0.0000
     25 H10        4.1023    5.5414   -1.3808 H         1 RES1    0.0000
     26 C16        2.5908    5.0317   -0.2123 C.ar      1 RES1    0.0000
     27 H11        2.0088    5.6969   -0.5302 H         1 RES1    0.0000
     28 C17        2.1588    4.1469    0.8211 C.ar      1 RES1    0.0000
     29 C18        0.9533    4.3844    1.5060 C.ar      1 RES1    0.0000
     30 H12        0.3976    5.0885    1.2249 H         1 RES1    0.0000
     31 C19        0.5734    3.6214    2.5616 C.ar      1 RES1    0.0000
     32 H13       -0.2486    3.7780    2.9912 H         1 RES1    0.0000
     33 C20        1.4206    2.5947    3.0059 C.ar      1 RES1    0.0000
     34 H14        1.1817    2.0871    3.7607 H         1 RES1    0.0000
     35 C21        2.5856    2.3277    2.3505 C.ar      1 RES1    0.0000
     36 H15        3.1385    1.6352    2.6634 H         1 RES1    0.0000
     37 C22        2.9846    3.0655    1.2151 C.ar      1 RES1    0.0000
     38 C23        4.2637    2.8627    0.5388 C.ar      1 RES1    0.0000
     39 C24        5.1842    1.7771    0.8199 C.ar      1 RES1    0.0000
     40 C25        4.8300    0.4414    1.2888 C.ar      1 RES1    0.0000
     41 C26        3.5900   -0.2238    0.9353 C.ar      1 RES1    0.0000
     42 C27        8.2323   -0.6673    2.7481 C.3       1 RES1    0.0000
     43 H16        9.1058   -0.2890    2.5640 H         1 RES1    0.0000
     44 H17        8.2109   -1.5921    2.4548 H         1 RES1    0.0000
     45 H18        8.0555   -0.6263    3.7018 H         1 RES1    0.0000
@<TRIPOS>BOND
     1    1    2 1
     2    3    1 ar
     3    4    3 1
     4    5    3 ar
     5    6    5 1
     6    7    5 ar
     7    8    7 1
     8    9    7 ar
     9   10    9 ar
    10   11   10 1
    11   12   10 ar
    12   13   12 1
    13   14   12 ar
    14   15   14 ar
    15   16   15 ar
    16   17   16 1
    17   18   16 ar
    18   19   18 ar
    19   20   19 1
    20   21   19 ar
    21   22   21 1
    22   23   21 ar
    23   24   23 ar
    24   25   24 1
    25   26   24 ar
    26   27   26 1
    27   28   26 ar
    28   29   28 ar
    29   30   29 1
    30   31   29 ar
    31   32   31 1
    32   33   31 ar
    33   34   33 1
    34   35   33 ar
    35   36   35 1
    36   37   28 ar
    37   38   23 ar
    38   39   18 ar
    39   40   14 ar
    40   41    1 ar
    41   42   15 1
    42   43   42 1
    43   44   42 1
    44   45   42 1
    45    9   41 ar
    46   35   37 ar
    47   37   38 ar
    48   38   39 ar
    49   39   40 ar
    50   40   41 ar
@<TRIPOS>SUBSTRUCTURE
     1 RES1 1

@<TRIPOS>CRYSIN
  13.9740   10.5090   12.2870  90.0000  92.6450  90.0000  14 1

