# MOL2 file generated by ConQuest
# Please check atom types

@<TRIPOS>MOLECULE
OVALEN01
    46    55     1
SMALL
NO_CHARGES
****
Generated from CSD

@<TRIPOS>ATOM
      1 C1         0.3063   -0.0103    3.0860 C.ar      1 RES1    0.0000
      2 C2        -1.4382   -1.5242    2.2864 C.ar      1 RES1    0.0000
      3 C3        -0.7091   -0.9461    3.3294 C.ar      1 RES1    0.0000
      4 C4        -0.1443   -0.1913    0.6764 C.ar      1 RES1    0.0000
      5 C5         0.5883    0.3774    1.7429 C.ar      1 RES1    0.0000
      6 C6         1.6094    1.3480    1.4780 C.ar      1 RES1    0.0000
      7 C7         1.8123    1.7282    0.1320 C.ar      1 RES1    0.0000
      8 C8        -1.1547   -1.1482    0.9453 C.ar      1 RES1    0.0000
      9 C9         1.0870    0.5805    4.1398 C.ar      1 RES1    0.0000
     10 C10        2.0642    1.4974    3.8788 C.ar      1 RES1    0.0000
     11 C11        2.3538    1.9195    2.5435 C.ar      1 RES1    0.0000
     12 C12        3.3468    2.8778    2.2385 C.ar      1 RES1    0.0000
     13 C13        3.6036    3.2595    0.9531 C.ar      1 RES1    0.0000
     14 C14        2.8960    2.7006   -0.1339 C.ar      1 RES1    0.0000
     15 C15        3.1628    3.0498   -1.4927 C.ar      1 RES1    0.0000
     16 C16       -2.4846   -2.4929    2.5152 C.ar      1 RES1    0.0000
     17 H1         0.9197    0.3055    5.1417 H         1 RES1    0.0000
     18 H2         2.5162    1.9458    4.6334 H         1 RES1    0.0000
     19 H3         3.7728    3.3182    2.9228 H         1 RES1    0.0000
     20 H4         4.1985    3.9762    0.7527 H         1 RES1    0.0000
     21 H5         3.7758    3.6989   -1.5934 H         1 RES1    0.0000
     22 H6        -2.7001   -2.7542    3.3920 H         1 RES1    0.0000
     23 H7        -0.8825   -1.2361    4.3108 H         1 RES1    0.0000
     24 C4B        0.1443    0.1913   -0.6764 C.ar      1 RES1    0.0000
     25 C8B        1.1547    1.1482   -0.9453 C.ar      1 RES1    0.0000
     26 C7B       -1.8123   -1.7282   -0.1320 C.ar      1 RES1    0.0000
     27 C16B       2.4846    2.4929   -2.5152 C.ar      1 RES1    0.0000
     28 C15B      -3.1628   -3.0498    1.4927 C.ar      1 RES1    0.0000
     29 C5B       -0.5883   -0.3774   -1.7429 C.ar      1 RES1    0.0000
     30 C2B        1.4382    1.5242   -2.2864 C.ar      1 RES1    0.0000
     31 C6B       -1.6094   -1.3480   -1.4780 C.ar      1 RES1    0.0000
     32 C14B      -2.8960   -2.7006    0.1339 C.ar      1 RES1    0.0000
     33 H6B        2.7001    2.7542   -3.3920 H         1 RES1    0.0000
     34 H5B       -3.7758   -3.6989    1.5934 H         1 RES1    0.0000
     35 C1B       -0.3063    0.0103   -3.0860 C.ar      1 RES1    0.0000
     36 C3B        0.7091    0.9461   -3.3294 C.ar      1 RES1    0.0000
     37 C11B      -2.3538   -1.9195   -2.5435 C.ar      1 RES1    0.0000
     38 C13B      -3.6036   -3.2595   -0.9531 C.ar      1 RES1    0.0000
     39 C9B       -1.0870   -0.5805   -4.1398 C.ar      1 RES1    0.0000
     40 H7B        0.8825    1.2361   -4.3108 H         1 RES1    0.0000
     41 C10B      -2.0642   -1.4974   -3.8788 C.ar      1 RES1    0.0000
     42 C12B      -3.3468   -2.8778   -2.2385 C.ar      1 RES1    0.0000
     43 H4B       -4.1985   -3.9762   -0.7527 H         1 RES1    0.0000
     44 H1B       -0.9197   -0.3055   -5.1417 H         1 RES1    0.0000
     45 H2B       -2.5162   -1.9458   -4.6334 H         1 RES1    0.0000
     46 H3B       -3.7728   -3.3182   -2.9228 H         1 RES1    0.0000
@<TRIPOS>BOND
     1    1    3 ar
     2    2    3 ar
     3    3   23 1
     4    4    5 ar
     5    5    1 ar
     6    6    5 ar
     7    7    6 ar
     8    8    2 ar
     9    9    1 ar
    10   10    9 ar
    11   11    6 ar
    12   12   11 ar
    13   13   12 ar
    14   14    7 ar
    15   15   14 ar
    16   16    2 ar
    17   17    9 1
    18   18   10 1
    19   19   12 1
    20   20   13 1
    21   21   15 1
    22   22   16 1
    23   24    4 ar
    24   25    7 ar
    25   26    8 ar
    26   27   15 ar
    27   28   16 ar
    28   29   24 ar
    29   30   25 ar
    30   31   26 ar
    31   32   26 ar
    32   33   27 1
    33   34   28 1
    34   35   29 ar
    35   36   30 ar
    36   37   31 ar
    37   38   32 ar
    38   39   35 ar
    39   40   36 1
    40   41   37 ar
    41   42   37 ar
    42   43   38 1
    43   44   39 1
    44   45   41 1
    45   46   42 1
    46    4    8 ar
    47   10   11 ar
    48   13   14 ar
    49   24   25 ar
    50   27   30 ar
    51   28   32 ar
    52   29   31 ar
    53   35   36 ar
    54   38   42 ar
    55   39   41 ar
@<TRIPOS>SUBSTRUCTURE
     1 RES1 1

@<TRIPOS>CRYSIN
  19.4700    4.7000   10.1200  90.0000 105.0000  90.0000  14 2

