# MOL2 file generated by ConQuest
# Please check atom types

@<TRIPOS>MOLECULE
OVIRER
    56    62     1
SMALL
NO_CHARGES
****
Generated from CSD

@<TRIPOS>ATOM
      1 C1         8.0097   -0.5034    2.1605 C.ar      1 RES1    0.0000
      2 H1         7.9975   -0.5533    3.1090 H         1 RES1    0.0000
      3 C2         7.5447   -1.5684    1.4347 C.ar      1 RES1    0.0000
      4 H2         7.2103   -2.3317    1.8911 H         1 RES1    0.0000
      5 C3         7.5508   -1.5562    0.0199 C.ar      1 RES1    0.0000
      6 C4         7.9388   -0.3843   -0.5994 C.ar      1 RES1    0.0000
      7 H3         7.9107   -0.3364   -1.5474 H         1 RES1    0.0000
      8 C5         8.3750    0.7427    0.1257 C.ar      1 RES1    0.0000
      9 C6         8.5914    1.9874   -0.5427 C.ar      1 RES1    0.0000
     10 H4         8.5604    2.0264   -1.4915 H         1 RES1    0.0000
     11 C7         8.8386    3.1086    0.1671 C.ar      1 RES1    0.0000
     12 H5         8.8970    3.9424   -0.2854 H         1 RES1    0.0000
     13 C8         9.0147    3.0675    1.5835 C.ar      1 RES1    0.0000
     14 C9         9.1643    4.2878    2.2988 C.ar      1 RES1    0.0000
     15 H6         9.2004    5.1101    1.8245 H         1 RES1    0.0000
     16 C10        9.0078    1.8269    2.2753 C.ar      1 RES1    0.0000
     17 C11        8.5097    0.6701    1.5417 C.ar      1 RES1    0.0000
     18 C12        7.1301   -2.7350   -0.7780 C.ar      1 RES1    0.0000
     19 C13        6.1171   -3.5958   -0.3454 C.ar      1 RES1    0.0000
     20 H7         5.6832   -3.4301    0.4841 H         1 RES1    0.0000
     21 C14        5.7346   -4.6892   -1.1098 C.ar      1 RES1    0.0000
     22 H8         5.0430   -5.2632   -0.8016 H         1 RES1    0.0000
     23 C15        6.3568   -4.9479   -2.3189 C.ar      1 RES1    0.0000
     24 H9         6.0997   -5.7008   -2.8378 H         1 RES1    0.0000
     25 C16        7.3584   -4.1001   -2.7669 C.ar      1 RES1    0.0000
     26 H10        7.7842   -4.2678   -3.6002 H         1 RES1    0.0000
     27 C17        7.7427   -3.0088   -2.0042 C.ar      1 RES1    0.0000
     28 H11        8.4320   -2.4375   -2.3193 H         1 RES1    0.0000
     29 C1A       10.4105   -0.5034    3.7863 C.ar      1 RES1    0.0000
     30 H1A       10.4227   -0.5533    2.8378 H         1 RES1    0.0000
     31 C2A       10.8755   -1.5684    4.5121 C.ar      1 RES1    0.0000
     32 H2A       11.2099   -2.3317    4.0557 H         1 RES1    0.0000
     33 C3A       10.8693   -1.5562    5.9270 C.ar      1 RES1    0.0000
     34 C4A       10.4813   -0.3843    6.5463 C.ar      1 RES1    0.0000
     35 H3A       10.5095   -0.3364    7.4942 H         1 RES1    0.0000
     36 C5A       10.0452    0.7427    5.8211 C.ar      1 RES1    0.0000
     37 C6A        9.8288    1.9874    6.4895 C.ar      1 RES1    0.0000
     38 H4A        9.8598    2.0264    7.4383 H         1 RES1    0.0000
     39 C7A        9.5815    3.1086    5.7797 C.ar      1 RES1    0.0000
     40 H5A        9.5231    3.9424    6.2323 H         1 RES1    0.0000
     41 C8A        9.4054    3.0675    4.3633 C.ar      1 RES1    0.0000
     42 C9A        9.2558    4.2878    3.6480 C.ar      1 RES1    0.0000
     43 H6A        9.2198    5.1101    4.1223 H         1 RES1    0.0000
     44 C10A       9.4123    1.8269    3.6716 C.ar      1 RES1    0.0000
     45 C11A       9.9105    0.6701    4.4052 C.ar      1 RES1    0.0000
     46 C12A      11.2900   -2.7350    6.7248 C.ar      1 RES1    0.0000
     47 C13A      12.3031   -3.5958    6.2922 C.ar      1 RES1    0.0000
     48 H7A       12.7369   -3.4301    5.4627 H         1 RES1    0.0000
     49 C14A      12.6856   -4.6892    7.0566 C.ar      1 RES1    0.0000
     50 H8A       13.3772   -5.2632    6.7484 H         1 RES1    0.0000
     51 C15A      12.0634   -4.9479    8.2657 C.ar      1 RES1    0.0000
     52 H9A       12.3205   -5.7008    8.7846 H         1 RES1    0.0000
     53 C16A      11.0617   -4.1001    8.7137 C.ar      1 RES1    0.0000
     54 H10A      10.6360   -4.2678    9.5470 H         1 RES1    0.0000
     55 C17A      10.6775   -3.0088    7.9510 C.ar      1 RES1    0.0000
     56 H11A       9.9882   -2.4375    8.2661 H         1 RES1    0.0000
@<TRIPOS>BOND
     1    1    2 1
     2    3    1 ar
     3    4    3 1
     4    5    3 ar
     5    6    5 ar
     6    7    6 1
     7    8    6 ar
     8    9    8 ar
     9   10    9 1
    10   11    9 ar
    11   12   11 1
    12   13   11 ar
    13   14   13 ar
    14   15   14 1
    15   16   13 ar
    16   17    1 ar
    17   18    5 1
    18   19   18 ar
    19   20   19 1
    20   21   19 ar
    21   22   21 1
    22   23   21 ar
    23   24   23 1
    24   25   23 ar
    25   26   25 1
    26   27   18 ar
    27   28   27 1
    28   29   30 1
    29   31   29 ar
    30   32   31 1
    31   33   31 ar
    32   34   33 ar
    33   35   34 1
    34   36   34 ar
    35   37   36 ar
    36   38   37 1
    37   39   37 ar
    38   40   39 1
    39   41   39 ar
    40   42   14 ar
    41   43   42 1
    42   44   16 ar
    43   45   29 ar
    44   46   33 1
    45   47   46 ar
    46   48   47 1
    47   49   47 ar
    48   50   49 1
    49   51   49 ar
    50   52   51 1
    51   53   51 ar
    52   54   53 1
    53   55   46 ar
    54   56   55 1
    55    8   17 ar
    56   16   17 ar
    57   25   27 ar
    58   36   45 ar
    59   41   42 ar
    60   41   44 ar
    61   44   45 ar
    62   53   55 ar
@<TRIPOS>SUBSTRUCTURE
     1 RES1 1

@<TRIPOS>CRYSIN
  20.2803    9.1154   12.4619  90.0000 107.3695  90.0000  15 1

