# MOL2 file generated by ConQuest
# Please check atom types

@<TRIPOS>MOLECULE
OXOVOO
    48    54     1
SMALL
NO_CHARGES
****
Generated from CSD

@<TRIPOS>ATOM
      1 C1         0.2050   -0.5704    2.7280 C.ar      1 RES1    0.0000
      2 C2        -0.4306   -1.6755    3.2986 C.ar      1 RES1    0.0000
      3 H1         0.0787   -2.3837    3.6206 H         1 RES1    0.0000
      4 C3        -1.7992   -1.7266    3.3885 C.ar      1 RES1    0.0000
      5 H2        -2.2095   -2.4635    3.7824 H         1 RES1    0.0000
      6 C4        -2.5711   -0.6973    2.9016 C.ar      1 RES1    0.0000
      7 H3        -3.4971   -0.7260    2.9863 H         1 RES1    0.0000
      8 C5        -1.9640    0.3779    2.2879 C.ar      1 RES1    0.0000
      9 H4        -2.4828    1.0638    1.9335 H         1 RES1    0.0000
     10 C6        -0.5809    0.4365    2.2009 C.ar      1 RES1    0.0000
     11 H5        -0.1780    1.1625    1.7820 H         1 RES1    0.0000
     12 C7         1.7005   -0.4790    2.6553 C.ar      1 RES1    0.0000
     13 C8         2.4488    0.4308    3.3974 C.ar      1 RES1    0.0000
     14 C9         1.9009    1.2573    4.4934 C.ar      1 RES1    0.0000
     15 C10        0.6948    0.9563    5.1461 C.ar      1 RES1    0.0000
     16 H6         0.2460    0.1763    4.9122 H         1 RES1    0.0000
     17 C11        0.1491    1.7662    6.1180 C.ar      1 RES1    0.0000
     18 H7        -0.6480    1.5284    6.5324 H         1 RES1    0.0000
     19 C12        0.7975    2.9351    6.4706 C.ar      1 RES1    0.0000
     20 H8         0.4060    3.5215    7.0794 H         1 RES1    0.0000
     21 C13        2.0076    3.2228    5.9239 C.ar      1 RES1    0.0000
     22 H9         2.4505    3.9983    6.1858 H         1 RES1    0.0000
     23 C14        2.6106    2.3756    4.9715 C.ar      1 RES1    0.0000
     24 C15        4.0085    2.5893    4.5637 C.ar      1 RES1    0.0000
     25 C16        4.7857    3.6163    5.0909 C.ar      1 RES1    0.0000
     26 H10        4.3924    4.2280    5.6722 H         1 RES1    0.0000
     27 C17        6.1222    3.7536    4.7779 C.ar      1 RES1    0.0000
     28 H11        6.6163    4.4486    5.1484 H         1 RES1    0.0000
     29 C18        6.7160    2.8742    3.9290 C.ar      1 RES1    0.0000
     30 H12        7.6195    2.9661    3.7310 H         1 RES1    0.0000
     31 C19        5.9825    1.8317    3.3494 C.ar      1 RES1    0.0000
     32 C20        4.6056    1.6680    3.6750 C.ar      1 RES1    0.0000
     33 C21        3.8503    0.6031    3.0739 C.ar      1 RES1    0.0000
     34 C22        4.4807   -0.2493    2.1464 C.ar      1 RES1    0.0000
     35 C23        5.8593   -0.0482    1.8360 C.ar      1 RES1    0.0000
     36 H13        6.2752   -0.6129    1.2248 H         1 RES1    0.0000
     37 C24        6.5727    0.9443    2.4101 C.ar      1 RES1    0.0000
     38 H14        7.4705    1.0494    2.1852 H         1 RES1    0.0000
     39 C25        3.7392   -1.2935    1.5091 C.ar      1 RES1    0.0000
     40 C26        4.3387   -2.2671    0.6627 C.ar      1 RES1    0.0000
     41 H15        5.2602   -2.2493    0.5341 H         1 RES1    0.0000
     42 C27        3.6036   -3.2211    0.0372 C.ar      1 RES1    0.0000
     43 H16        4.0260   -3.8547   -0.4982 H         1 RES1    0.0000
     44 C28        2.2213   -3.2550    0.1921 C.ar      1 RES1    0.0000
     45 H17        1.7181   -3.8977   -0.2542 H         1 RES1    0.0000
     46 C29        1.6065   -2.3458    0.9973 C.ar      1 RES1    0.0000
     47 H18        0.6813   -2.3693    1.0785 H         1 RES1    0.0000
     48 C30        2.3371   -1.3613    1.7166 C.ar      1 RES1    0.0000
@<TRIPOS>BOND
     1    1    2 ar
     2    2    3 1
     3    4    2 ar
     4    5    4 1
     5    6    4 ar
     6    7    6 1
     7    8    6 ar
     8    9    8 1
     9   10    1 ar
    10   11   10 1
    11   12    1 1
    12   13   12 ar
    13   14   13 ar
    14   15   14 ar
    15   16   15 1
    16   17   15 ar
    17   18   17 1
    18   19   17 ar
    19   20   19 1
    20   21   19 ar
    21   22   21 1
    22   23   14 ar
    23   24   23 ar
    24   25   24 ar
    25   26   25 1
    26   27   25 ar
    27   28   27 1
    28   29   27 ar
    29   30   29 1
    30   31   29 ar
    31   32   24 ar
    32   33   13 ar
    33   34   33 ar
    34   35   34 ar
    35   36   35 1
    36   37   31 ar
    37   38   37 1
    38   39   34 ar
    39   40   39 ar
    40   41   40 1
    41   42   40 ar
    42   43   42 1
    43   44   42 ar
    44   45   44 1
    45   46   44 ar
    46   47   46 1
    47   48   12 ar
    48    8   10 ar
    49   21   23 ar
    50   31   32 ar
    51   32   33 ar
    52   35   37 ar
    53   39   48 ar
    54   46   48 ar
@<TRIPOS>SUBSTRUCTURE
     1 RES1 1

@<TRIPOS>CRYSIN
  12.5439    5.7438   26.2400  90.0000 101.8810  90.0000  14 1

