# MOL2 file generated by ConQuest
# Please check atom types

@<TRIPOS>MOLECULE
OYUNUS
    45    49     1
SMALL
NO_CHARGES
****
Generated from CSD

@<TRIPOS>ATOM
      1 C1         7.4152    2.8048    4.2496 C.3       1 RES1    0.0000
      2 C2         6.4017    3.8726    4.6145 C.ar      1 RES1    0.0000
      3 C3         6.4784    4.8058    5.6205 C.ar      1 RES1    0.0000
      4 H1         7.2144    4.8202    6.1882 H         1 RES1    0.0000
      5 C4         5.4600    5.7220    5.7848 C.ar      1 RES1    0.0000
      6 H2         5.5122    6.3612    6.4575 H         1 RES1    0.0000
      7 C5         4.3600    5.6841    4.9460 C.ar      1 RES1    0.0000
      8 H3         3.6729    6.2997    5.0617 H         1 RES1    0.0000
      9 C6         4.2686    4.7405    3.9357 C.ar      1 RES1    0.0000
     10 H4         3.5236    4.7209    3.3795 H         1 RES1    0.0000
     11 C7         5.2894    3.8304    3.7590 C.ar      1 RES1    0.0000
     12 C8         5.5236    2.7409    2.7836 C.ar      1 RES1    0.0000
     13 C9         6.7517    2.1867    3.0289 C.ar      1 RES1    0.0000
     14 C10        7.2854    1.1632    2.2256 C.ar      1 RES1    0.0000
     15 H5         8.1202    0.8038    2.4241 H         1 RES1    0.0000
     16 C11        6.5755    0.6931    1.1470 C.ar      1 RES1    0.0000
     17 C12        5.2911    1.2371    0.8612 C.ar      1 RES1    0.0000
     18 C13        4.7329    2.2656    1.6920 C.ar      1 RES1    0.0000
     19 C14        3.4485    2.7421    1.3671 C.ar      1 RES1    0.0000
     20 H6         3.0576    3.3904    1.9091 H         1 RES1    0.0000
     21 C15        2.7630    2.2873    0.2890 C.ar      1 RES1    0.0000
     22 H7         1.9136    2.6192    0.1067 H         1 RES1    0.0000
     23 C16        3.3245    1.3279   -0.5468 C.ar      1 RES1    0.0000
     24 H8         2.8626    1.0417   -1.3027 H         1 RES1    0.0000
     25 C17        4.5436    0.8077   -0.2624 C.ar      1 RES1    0.0000
     26 H9         4.8986    0.1529   -0.8199 H         1 RES1    0.0000
     27 C18        7.1434   -0.3921    0.3019 C.ar      1 RES1    0.0000
     28 C19        8.0704   -0.1189   -0.6725 C.ar      1 RES1    0.0000
     29 H10        8.3748    0.7528   -0.7877 H         1 RES1    0.0000
     30 C20        8.5543   -1.1188   -1.4806 C.ar      1 RES1    0.0000
     31 H11        9.1786   -0.9149   -2.1395 H         1 RES1    0.0000
     32 C21        8.1333   -2.4036   -1.3298 C.ar      1 RES1    0.0000
     33 H12        8.4621   -3.0754   -1.8820 H         1 RES1    0.0000
     34 C22        7.2250   -2.6911   -0.3608 C.ar      1 RES1    0.0000
     35 H13        6.9378   -3.5681   -0.2439 H         1 RES1    0.0000
     36 C23        6.7265   -1.6978    0.4455 C.ar      1 RES1    0.0000
     37 H14        6.0989   -1.9095    1.0977 H         1 RES1    0.0000
     38 C24        8.7861    3.4034    3.9153 C.3       1 RES1    0.0000
     39 H15        8.6898    4.0556    3.2169 H         1 RES1    0.0000
     40 H16        9.3769    2.7055    3.6218 H         1 RES1    0.0000
     41 H17        9.1508    3.8243    4.6975 H         1 RES1    0.0000
     42 C25        7.5531    1.7645    5.3695 C.3       1 RES1    0.0000
     43 H18        7.8819    2.1918    6.1645 H         1 RES1    0.0000
     44 H19        8.1675    1.0796    5.0956 H         1 RES1    0.0000
     45 H20        6.6954    1.3724    5.5495 H         1 RES1    0.0000
@<TRIPOS>BOND
     1    1    2 1
     2    2    3 ar
     3    3    4 1
     4    5    3 ar
     5    6    5 1
     6    7    5 ar
     7    8    7 1
     8    9    7 ar
     9   10    9 1
    10   11    2 ar
    11   12   11 1
    12   13    1 1
    13   14   13 ar
    14   15   14 1
    15   16   14 ar
    16   17   16 ar
    17   18   12 ar
    18   19   18 ar
    19   20   19 1
    20   21   19 ar
    21   22   21 1
    22   23   21 ar
    23   24   23 1
    24   25   17 ar
    25   26   25 1
    26   27   16 1
    27   28   27 ar
    28   29   28 1
    29   30   28 ar
    30   31   30 1
    31   32   30 ar
    32   33   32 1
    33   34   32 ar
    34   35   34 1
    35   36   27 ar
    36   37   36 1
    37   38    1 1
    38   39   38 1
    39   40   38 1
    40   41   38 1
    41   42    1 1
    42   43   42 1
    43   44   42 1
    44   45   42 1
    45    9   11 ar
    46   12   13 ar
    47   17   18 ar
    48   23   25 ar
    49   34   36 ar
@<TRIPOS>SUBSTRUCTURE
     1 RES1 1

@<TRIPOS>CRYSIN
   8.1602   13.0700   16.9400  90.0000  90.0000  90.0000  19 1

