# MOL2 file generated by ConQuest
# Please check atom types

@<TRIPOS>MOLECULE
OYUWOW
    58    63     1
SMALL
NO_CHARGES
****
Generated from CSD

@<TRIPOS>ATOM
      1 C1         3.4882    5.0552    9.4272 C.ar      1 RES1    0.0000
      2 H1         4.2855    4.5998    9.6729 H         1 RES1    0.0000
      3 C2         2.4552    5.1419   10.3266 C.ar      1 RES1    0.0000
      4 C3         4.3074    6.1289    5.9495 C.ar      1 RES1    0.0000
      5 H2         5.0245    6.0695    5.3285 H         1 RES1    0.0000
      6 C4         4.4173    5.5217    7.1712 C.ar      1 RES1    0.0000
      7 H3         5.1959    5.0169    7.3765 H         1 RES1    0.0000
      8 C5         3.3859    5.6360    8.1325 C.ar      1 RES1    0.0000
      9 C6         2.5603    4.5323   11.6846 C.ar      1 RES1    0.0000
     10 C7         1.7445    3.4641   12.0981 C.ar      1 RES1    0.0000
     11 C8         1.8820    2.9935   13.4134 C.ar      1 RES1    0.0000
     12 H4         1.3443    2.2669   13.7051 H         1 RES1    0.0000
     13 C9         2.7841    3.5636   14.2966 C.ar      1 RES1    0.0000
     14 H5         2.8520    3.2343   15.1846 H         1 RES1    0.0000
     15 C10        3.5869    4.6128   13.8835 C.ar      1 RES1    0.0000
     16 H6         4.2084    5.0049   14.4855 H         1 RES1    0.0000
     17 C11        3.4758    5.0886   12.5818 C.ar      1 RES1    0.0000
     18 H7         4.0324    5.8045   12.2974 H         1 RES1    0.0000
     19 C12        0.7746    2.7764   11.1925 C.ar      1 RES1    0.0000
     20 C13       -0.4692    2.3631   11.6800 C.ar      1 RES1    0.0000
     21 H8        -0.7114    2.5654   12.5761 H         1 RES1    0.0000
     22 C14       -1.3552    1.6614   10.8738 C.ar      1 RES1    0.0000
     23 H9        -2.1922    1.3810   11.2256 H         1 RES1    0.0000
     24 C15       -1.0267    1.3666    9.5606 C.ar      1 RES1    0.0000
     25 H10       -1.6345    0.8859    9.0104 H         1 RES1    0.0000
     26 C16        0.1978    1.7810    9.0549 C.ar      1 RES1    0.0000
     27 H11        0.4241    1.5944    8.1521 H         1 RES1    0.0000
     28 C17        1.0938    2.4671    9.8643 C.ar      1 RES1    0.0000
     29 H12        1.9357    2.7308    9.5121 H         1 RES1    0.0000
     30 C1B        2.1012    6.9327    6.4979 C.ar      1 RES1    0.0000
     31 H1B        1.3039    7.3881    6.2522 H         1 RES1    0.0000
     32 C2B        3.1342    6.8460    5.5985 C.ar      1 RES1    0.0000
     33 C3B        1.2820    5.8590    9.9756 C.ar      1 RES1    0.0000
     34 H2B        0.5649    5.9184   10.5966 H         1 RES1    0.0000
     35 C4B        1.1721    6.4662    8.7539 C.ar      1 RES1    0.0000
     36 H3B        0.3935    6.9710    8.5486 H         1 RES1    0.0000
     37 C5B        2.2035    6.3519    7.7926 C.ar      1 RES1    0.0000
     38 C6B        3.0291    7.4556    4.2405 C.ar      1 RES1    0.0000
     39 C7B        3.8449    8.5238    3.8270 C.ar      1 RES1    0.0000
     40 C8B        3.7074    8.9944    2.5117 C.ar      1 RES1    0.0000
     41 H4B        4.2451    9.7210    2.2200 H         1 RES1    0.0000
     42 C9B        2.8053    8.4243    1.6285 C.ar      1 RES1    0.0000
     43 H5B        2.7374    8.7536    0.7405 H         1 RES1    0.0000
     44 C10B       2.0025    7.3751    2.0416 C.ar      1 RES1    0.0000
     45 H6B        1.3810    6.9830    1.4396 H         1 RES1    0.0000
     46 C11B       2.1136    6.8993    3.3433 C.ar      1 RES1    0.0000
     47 H7B        1.5571    6.1834    3.6277 H         1 RES1    0.0000
     48 C12B       4.8149    9.2115    4.7326 C.ar      1 RES1    0.0000
     49 C13B       6.0586    9.6248    4.2452 C.ar      1 RES1    0.0000
     50 H8B        6.3008    9.4225    3.3491 H         1 RES1    0.0000
     51 C14B       6.9446   10.3265    5.0513 C.ar      1 RES1    0.0000
     52 H9B        7.7817   10.6069    4.6995 H         1 RES1    0.0000
     53 C15B       6.6161   10.6213    6.3645 C.ar      1 RES1    0.0000
     54 H10B       7.2239   11.1020    6.9147 H         1 RES1    0.0000
     55 C16B       5.3916   10.2069    6.8703 C.ar      1 RES1    0.0000
     56 H11B       5.1653   10.3935    7.7730 H         1 RES1    0.0000
     57 C17B       4.4956    9.5208    6.0608 C.ar      1 RES1    0.0000
     58 H12B       3.6537    9.2571    6.4130 H         1 RES1    0.0000
@<TRIPOS>BOND
     1    1    2 1
     2    3    1 ar
     3    4    5 1
     4    6    4 ar
     5    7    6 1
     6    8    1 ar
     7    9    3 1
     8   10    9 ar
     9   11   10 ar
    10   12   11 1
    11   13   11 ar
    12   14   13 1
    13   15   13 ar
    14   16   15 1
    15   17    9 ar
    16   18   17 1
    17   19   10 1
    18   20   19 ar
    19   21   20 1
    20   22   20 ar
    21   23   22 1
    22   24   22 ar
    23   25   24 1
    24   26   24 ar
    25   27   26 1
    26   28   19 ar
    27   29   28 1
    28   30   31 1
    29   32    4 ar
    30   33    3 ar
    31   34   33 1
    32   35   33 ar
    33   36   35 1
    34   37    8 ar
    35   38   32 1
    36   39   38 ar
    37   40   39 ar
    38   41   40 1
    39   42   40 ar
    40   43   42 1
    41   44   42 ar
    42   45   44 1
    43   46   38 ar
    44   47   46 1
    45   48   39 1
    46   49   48 ar
    47   50   49 1
    48   51   49 ar
    49   52   51 1
    50   53   51 ar
    51   54   53 1
    52   55   53 ar
    53   56   55 1
    54   57   48 ar
    55   58   57 1
    56    6    8 ar
    57   15   17 ar
    58   26   28 ar
    59   30   32 ar
    60   30   37 ar
    61   35   37 ar
    62   44   46 ar
    63   55   57 ar
@<TRIPOS>SUBSTRUCTURE
     1 RES1 1

@<TRIPOS>CRYSIN
   5.9369   11.9879   15.9289  90.0000  91.2500  90.0000  14 1

