# MOL2 file generated by ConQuest
# Please check atom types

@<TRIPOS>MOLECULE
PERLEN06
    32    36     1
SMALL
NO_CHARGES
****
Generated from CSD

@<TRIPOS>ATOM
      1 C1         0.9427    1.9317    1.8371 C.ar      1 RES1    0.0000
      2 C2         2.2725    1.9270    2.3059 C.ar      1 RES1    0.0000
      3 C3         3.1280    0.9653    1.8593 C.ar      1 RES1    0.0000
      4 C4         2.6935   -0.0444    0.9302 C.ar      1 RES1    0.0000
      5 C5         3.5873   -1.0272    0.4825 C.ar      1 RES1    0.0000
      6 C6         3.1542   -1.9632   -0.4256 C.ar      1 RES1    0.0000
      7 C7         1.8391   -1.9457   -0.8775 C.ar      1 RES1    0.0000
      8 C8         0.9231   -1.0103   -0.4561 C.ar      1 RES1    0.0000
      9 C9         1.3492   -0.0257    0.4688 C.ar      1 RES1    0.0000
     10 C10        0.4612    0.9921    0.9428 C.ar      1 RES1    0.0000
     11 H1         0.3304    2.6644    2.2332 H         1 RES1    0.0000
     12 H2         2.6689    2.9390    3.0127 H         1 RES1    0.0000
     13 H3         4.1640    0.9524    2.0963 H         1 RES1    0.0000
     14 H4         4.6022   -0.9699    0.7901 H         1 RES1    0.0000
     15 H5         3.8573   -2.6469   -0.7479 H         1 RES1    0.0000
     16 H6         1.6107   -2.5768   -1.4790 H         1 RES1    0.0000
     17 C8B       -0.9231    1.0103    0.4561 C.ar      1 RES1    0.0000
     18 C7B       -1.8391    1.9457    0.8775 C.ar      1 RES1    0.0000
     19 C6B       -3.1542    1.9632    0.4256 C.ar      1 RES1    0.0000
     20 C5B       -3.5873    1.0272   -0.4825 C.ar      1 RES1    0.0000
     21 C4B       -2.6935    0.0444   -0.9302 C.ar      1 RES1    0.0000
     22 C3B       -3.1280   -0.9653   -1.8593 C.ar      1 RES1    0.0000
     23 C2B       -2.2725   -1.9270   -2.3059 C.ar      1 RES1    0.0000
     24 C1B       -0.9427   -1.9317   -1.8371 C.ar      1 RES1    0.0000
     25 C10B      -0.4612   -0.9921   -0.9428 C.ar      1 RES1    0.0000
     26 C9B       -1.3492    0.0257   -0.4688 C.ar      1 RES1    0.0000
     27 H1B       -0.3304   -2.6644   -2.2332 H         1 RES1    0.0000
     28 H2B       -2.6689   -2.9390   -3.0127 H         1 RES1    0.0000
     29 H3B       -4.1640   -0.9524   -2.0963 H         1 RES1    0.0000
     30 H4B       -4.6022    0.9699   -0.7901 H         1 RES1    0.0000
     31 H5B       -3.8573    2.6469    0.7479 H         1 RES1    0.0000
     32 H6B       -1.6107    2.5768    1.4790 H         1 RES1    0.0000
@<TRIPOS>BOND
     1    1    2 ar
     2    2    3 ar
     3    3    4 ar
     4    4    5 ar
     5    5    6 ar
     6    6    7 ar
     7    7    8 ar
     8    8    9 ar
     9    9    4 ar
    10   10    1 ar
    11   11    1 1
    12   12    2 1
    13   13    3 1
    14   14    5 1
    15   15    6 1
    16   16    7 1
    17   17   10 ar
    18   18   17 ar
    19   19   18 ar
    20   20   19 ar
    21   21   20 ar
    22   22   21 ar
    23   23   22 ar
    24   24   23 ar
    25   25    8 ar
    26   26   17 ar
    27   27   24 1
    28   28   23 1
    29   29   22 1
    30   30   20 1
    31   31   19 1
    32   32   18 1
    33    9   10 ar
    34   21   26 ar
    35   24   25 ar
    36   25   26 ar
@<TRIPOS>SUBSTRUCTURE
     1 RES1 1

@<TRIPOS>CRYSIN
   9.7630    5.8430   10.6080  90.0000  96.7700  90.0000  14 1

