# MOL2 file generated by ConQuest
# Please check atom types

@<TRIPOS>MOLECULE
PERLEN08
    32    36     1
SMALL
NO_CHARGES
****
Generated from CSD

@<TRIPOS>ATOM
      1 C1         0.9350    1.9074   10.6893 C.ar      1 RES1    0.0000
      2 H1         1.2149    1.2225   11.2846 H         1 RES1    0.0000
      3 C2        -0.3949    1.9268   10.2592 C.ar      1 RES1    0.0000
      4 H2        -1.0040    1.2682   10.5710 H         1 RES1    0.0000
      5 C3        -0.8194    2.8945    9.3890 C.ar      1 RES1    0.0000
      6 H3        -1.7195    2.8951    9.0856 H         1 RES1    0.0000
      7 C4         0.0723    3.8914    8.9401 C.ar      1 RES1    0.0000
      8 C5        -0.3725    4.9239    8.0688 C.ar      1 RES1    0.0000
      9 H4        -1.2753    4.9394    7.7745 H         1 RES1    0.0000
     10 C6         0.4904    5.8874    7.6573 C.ar      1 RES1    0.0000
     11 H5         0.1864    6.5715    7.0724 H         1 RES1    0.0000
     12 C7         1.8251    5.8820    8.0842 C.ar      1 RES1    0.0000
     13 H6         2.4070    6.5700    7.7831 H         1 RES1    0.0000
     14 C8         2.3235    4.9067    8.9336 C.ar      1 RES1    0.0000
     15 C9         1.4242    3.8763    9.3736 C.ar      1 RES1    0.0000
     16 C10        1.8598    2.8535   10.2767 C.ar      1 RES1    0.0000
     17 C11        3.7583    1.8588   11.5760 C.ar      1 RES1    0.0000
     18 H7         3.1680    1.1844   11.8926 H         1 RES1    0.0000
     19 C12        5.0967    1.8382   11.9941 C.ar      1 RES1    0.0000
     20 H8         5.3974    1.1599   12.5872 H         1 RES1    0.0000
     21 C13        5.9676    2.7865   11.5518 C.ar      1 RES1    0.0000
     22 H9         6.8752    2.7582   11.8315 H         1 RES1    0.0000
     23 C14        5.5380    3.8126   10.6816 C.ar      1 RES1    0.0000
     24 C15        6.4116    4.8343   10.2361 C.ar      1 RES1    0.0000
     25 H10        7.3241    4.8167   10.5006 H         1 RES1    0.0000
     26 C16        5.9648    5.8409    9.4339 C.ar      1 RES1    0.0000
     27 H11        6.5633    6.5235    9.1527 H         1 RES1    0.0000
     28 C17        4.6280    5.8722    9.0235 C.ar      1 RES1    0.0000
     29 H12        4.3322    6.5887    8.4747 H         1 RES1    0.0000
     30 C18        3.7186    4.8894    9.3933 C.ar      1 RES1    0.0000
     31 C19        4.1682    3.8353   10.2504 C.ar      1 RES1    0.0000
     32 C20        3.2702    2.8254   10.7211 C.ar      1 RES1    0.0000
@<TRIPOS>BOND
     1    1    2 1
     2    3    1 ar
     3    4    3 1
     4    5    3 ar
     5    6    5 1
     6    7    5 ar
     7    8    7 ar
     8    9    8 1
     9   10    8 ar
    10   11   10 1
    11   12   10 ar
    12   13   12 1
    13   14   12 ar
    14   15    7 ar
    15   16    1 ar
    16   17   18 1
    17   19   17 ar
    18   20   19 1
    19   21   19 ar
    20   22   21 1
    21   23   21 ar
    22   24   23 ar
    23   25   24 1
    24   26   24 ar
    25   27   26 1
    26   28   26 ar
    27   29   28 1
    28   30   14 ar
    29   31   23 ar
    30   32   16 ar
    31   14   15 ar
    32   15   16 ar
    33   17   32 ar
    34   28   30 ar
    35   30   31 ar
    36   31   32 ar
@<TRIPOS>SUBSTRUCTURE
     1 RES1 1

@<TRIPOS>CRYSIN
  10.2735   10.8005   11.1744  90.0000 100.8800  90.0000  14 1

