# MOL2 file generated by ConQuest
# Please check atom types

@<TRIPOS>MOLECULE
PERLEN07
    32    36     1
SMALL
NO_CHARGES
****
Generated from CSD

@<TRIPOS>ATOM
      1 C1         3.9457    1.8996    0.4584 C.ar      1 RES1    0.0000
      2 C2         5.3378    1.9122    0.9417 C.ar      1 RES1    0.0000
      3 C3         3.5160    2.8977   -0.4714 C.ar      1 RES1    0.0000
      4 C4         5.8130    0.9690    1.8410 C.ar      1 RES1    0.0000
      5 C5         2.1657    2.8849   -0.9399 C.ar      1 RES1    0.0000
      6 C6         3.0304    0.9479    0.8898 C.ar      1 RES1    0.0000
      7 C7         1.2760    1.8840   -0.4741 C.ar      1 RES1    0.0000
      8 C8         1.7295    3.8750   -1.8550 C.ar      1 RES1    0.0000
      9 C9         1.7028    0.9414    0.4244 C.ar      1 RES1    0.0000
     10 C10        7.1444    0.9883    2.3014 C.ar      1 RES1    0.0000
     11 H1         7.4642    0.2044    2.9765 H         1 RES1    0.0000
     12 H2         3.3369    0.1759    1.5839 H         1 RES1    0.0000
     13 H3         5.1636    0.1817    2.2030 H         1 RES1    0.0000
     14 H4         0.7095    3.8538   -2.2177 H         1 RES1    0.0000
     15 H5         1.0404    0.1642    0.7841 H         1 RES1    0.0000
     16 H6         0.2591    1.8774   -0.8461 H         1 RES1    0.0000
     17 C3B        6.2290    2.9255    0.4714 C.ar      1 RES1    0.0000
     18 C1B        5.7993    3.9236   -0.4584 C.ar      1 RES1    0.0000
     19 C2B        4.4072    3.9110   -0.9417 C.ar      1 RES1    0.0000
     20 C10B       2.6006    4.8349   -2.3014 C.ar      1 RES1    0.0000
     21 C4B        3.9320    4.8542   -1.8410 C.ar      1 RES1    0.0000
     22 H3B        4.5814    5.6415   -2.2030 H         1 RES1    0.0000
     23 H1B        2.2808    5.6188   -2.9765 H         1 RES1    0.0000
     24 C6B        6.7146    4.8753   -0.8898 C.ar      1 RES1    0.0000
     25 C9B        8.0422    4.8818   -0.4244 C.ar      1 RES1    0.0000
     26 C7B        8.4690    3.9392    0.4741 C.ar      1 RES1    0.0000
     27 C5B        7.5793    2.9383    0.9399 C.ar      1 RES1    0.0000
     28 C8B        8.0155    1.9482    1.8550 C.ar      1 RES1    0.0000
     29 H4B        9.0355    1.9694    2.2177 H         1 RES1    0.0000
     30 H6B        9.4859    3.9458    0.8461 H         1 RES1    0.0000
     31 H5B        8.7046    5.6590   -0.7841 H         1 RES1    0.0000
     32 H2B        6.4081    5.6473   -1.5839 H         1 RES1    0.0000
@<TRIPOS>BOND
     1    1    2 ar
     2    2    4 ar
     3    3    1 ar
     4    4   10 ar
     5    5    3 ar
     6    6    1 ar
     7    7    5 ar
     8    8    5 ar
     9    9    6 ar
    10   10   11 1
    11   12    6 1
    12   13    4 1
    13   14    8 1
    14   15    9 1
    15   16    7 1
    16   17    2 ar
    17   18   17 ar
    18   19    3 ar
    19   20    8 ar
    20   21   19 ar
    21   22   21 1
    22   23   20 1
    23   24   18 ar
    24   25   24 ar
    25   26   25 ar
    26   27   17 ar
    27   28   10 ar
    28   29   28 1
    29   30   26 1
    30   31   25 1
    31   32   24 1
    32    7    9 ar
    33   18   19 ar
    34   20   21 ar
    35   26   27 ar
    36   27   28 ar
@<TRIPOS>SUBSTRUCTURE
     1 RES1 1

@<TRIPOS>CRYSIN
   9.7450    5.8232   10.5824  90.0000  96.6930  90.0000  14 1

