# MOL2 file generated by ConQuest
# Please check atom types

@<TRIPOS>MOLECULE
PHENAN08
    24    26     1
SMALL
NO_CHARGES
****
Generated from CSD

@<TRIPOS>ATOM
      1 C1         1.8050    0.6091   -2.8396 C.ar      1 RES1    0.0000
      2 C2         1.0979   -0.4298   -3.3182 C.ar      1 RES1    0.0000
      3 C3         0.6567   -1.4183   -2.4751 C.ar      1 RES1    0.0000
      4 C4         0.9562   -1.3815   -1.1338 C.ar      1 RES1    0.0000
      5 C5         1.6890   -1.2341    1.7386 C.ar      1 RES1    0.0000
      6 C6         2.0608   -1.1113    3.0584 C.ar      1 RES1    0.0000
      7 C7         2.7735   -0.0061    3.5089 C.ar      1 RES1    0.0000
      8 C8         3.1117    0.9640    2.6293 C.ar      1 RES1    0.0000
      9 C9         3.1457    1.8973    0.3402 C.ar      1 RES1    0.0000
     10 C10        2.8394    1.8052   -0.9590 C.ar      1 RES1    0.0000
     11 C11        2.1144    0.6938   -1.4600 C.ar      1 RES1    0.0000
     12 C12        1.6941   -0.3377   -0.5973 C.ar      1 RES1    0.0000
     13 C13        2.0397   -0.2499    0.8123 C.ar      1 RES1    0.0000
     14 C14        2.7685    0.8780    1.2628 C.ar      1 RES1    0.0000
     15 H1         2.1204    1.2833   -3.3930 H         1 RES1    0.0000
     16 H2         0.8550   -0.4789   -4.2436 H         1 RES1    0.0000
     17 H3         0.0064   -2.0815   -2.8228 H         1 RES1    0.0000
     18 H4         0.6705   -2.0937   -0.4487 H         1 RES1    0.0000
     19 H5         1.1461   -1.8973    1.4021 H         1 RES1    0.0000
     20 H6         1.8712   -1.8973    3.7014 H         1 RES1    0.0000
     21 H7         3.0113    0.0430    4.5427 H         1 RES1    0.0000
     22 H8         3.6868    1.8420    2.8509 H         1 RES1    0.0000
     23 H9         3.6245    2.7077    0.7010 H         1 RES1    0.0000
     24 H10        3.0746    2.4744   -1.6451 H         1 RES1    0.0000
@<TRIPOS>BOND
     1    1    2 ar
     2    2    3 ar
     3    3    4 ar
     4    4   12 ar
     5    5    6 ar
     6    6    7 ar
     7    7    8 ar
     8    8   14 ar
     9    9   10 ar
    10   10   11 ar
    11   11    1 ar
    12   12   11 ar
    13   13    5 ar
    14   14    9 ar
    15   15    1 1
    16   16    2 1
    17   17    3 1
    18   18    4 1
    19   19    5 1
    20   20    6 1
    21   21    7 1
    22   22    8 1
    23   23    9 1
    24   24   10 1
    25   12   13 ar
    26   13   14 ar
@<TRIPOS>SUBSTRUCTURE
     1 RES1 1

@<TRIPOS>CRYSIN
   8.4410    6.1400    9.4380  90.0000  97.9600  90.0000   4 1

