# MOL2 file generated by ConQuest
# Please check atom types

@<TRIPOS>MOLECULE
PHENAN12
    24    26     1
SMALL
NO_CHARGES
****
Generated from CSD

@<TRIPOS>ATOM
      1 C1         1.8208    2.3622   -2.8490 C.ar      1 RES1    0.0000
      2 C2         2.8640    3.5535   -0.9543 C.ar      1 RES1    0.0000
      3 C3         2.1257    2.4269   -1.4578 C.ar      1 RES1    0.0000
      4 C4         1.7000    1.4052   -0.5934 C.ar      1 RES1    0.0000
      5 C5         2.0486    1.4934    0.8184 C.ar      1 RES1    0.0000
      6 C6         2.7728    2.6175    1.2712 C.ar      1 RES1    0.0000
      7 C7         1.1115    1.3121   -3.3355 C.ar      1 RES1    0.0000
      8 C8         0.6653    0.3114   -2.4880 C.ar      1 RES1    0.0000
      9 C9         0.9518    0.3521   -1.1343 C.ar      1 RES1    0.0000
     10 C10        1.7006    0.4902    1.7437 C.ar      1 RES1    0.0000
     11 C11        2.0823    0.6382    3.0833 C.ar      1 RES1    0.0000
     12 C12        2.7821    1.7320    3.5230 C.ar      1 RES1    0.0000
     13 C13        3.1301    2.7260    2.6390 C.ar      1 RES1    0.0000
     14 C14        3.1636    3.6534    0.3422 C.ar      1 RES1    0.0000
     15 H1         2.1722    3.1817   -3.5155 H         1 RES1    0.0000
     16 H2         3.1778    4.3224   -1.6312 H         1 RES1    0.0000
     17 H3         0.8506    1.2147   -4.3592 H         1 RES1    0.0000
     18 H4         0.0622   -0.5549   -2.8499 H         1 RES1    0.0000
     19 H5         0.5867   -0.4378   -0.4969 H         1 RES1    0.0000
     20 H6         1.1680   -0.4193    1.4531 H         1 RES1    0.0000
     21 H7         1.7630   -0.1665    3.7874 H         1 RES1    0.0000
     22 H8         3.0175    1.7758    4.5654 H         1 RES1    0.0000
     23 H9         3.7201    3.6009    2.9436 H         1 RES1    0.0000
     24 H10        3.6912    4.4642    0.7406 H         1 RES1    0.0000
@<TRIPOS>BOND
     1    1    3 ar
     2    2    3 ar
     3    3    4 ar
     4    4    5 ar
     5    5    6 ar
     6    6   13 ar
     7    7    1 ar
     8    8    7 ar
     9    9    4 ar
    10   10    5 ar
    11   11   10 ar
    12   12   11 ar
    13   13   12 ar
    14   14    2 ar
    15   15    1 1
    16   16    2 1
    17   17    7 1
    18   18    8 1
    19   19    9 1
    20   20   10 1
    21   21   11 1
    22   22   12 1
    23   23   13 1
    24   24   14 1
    25    6   14 ar
    26    8    9 ar
@<TRIPOS>SUBSTRUCTURE
     1 RES1 1

@<TRIPOS>CRYSIN
   8.4720    6.1660    9.4670  90.0000  98.0100  90.0000   4 1

