# MOL2 file generated by ConQuest
# Please check atom types

@<TRIPOS>MOLECULE
PHENAN04
    24    26     1
SMALL
NO_CHARGES
****
Generated from CSD

@<TRIPOS>ATOM
      1 C1         1.7995    2.3858   -2.8914 C.ar      1 RES1    0.0000
      2 C2         2.8599    3.5260   -0.9544 C.ar      1 RES1    0.0000
      3 C3         2.1250    2.4474   -1.4631 C.ar      1 RES1    0.0000
      4 C4         1.7063    1.4297   -0.6128 C.ar      1 RES1    0.0000
      5 C5         2.0450    1.4950    0.7930 C.ar      1 RES1    0.0000
      6 C6         2.7612    2.6211    1.2716 C.ar      1 RES1    0.0000
      7 C7         1.0823    1.2924   -3.3306 C.ar      1 RES1    0.0000
      8 C8         0.6346    0.2710   -2.4785 C.ar      1 RES1    0.0000
      9 C9         0.9586    0.3573   -1.1205 C.ar      1 RES1    0.0000
     10 C10        1.7015    0.5304    1.7568 C.ar      1 RES1    0.0000
     11 C11        2.0962    0.6443    3.0613 C.ar      1 RES1    0.0000
     12 C12        2.7897    1.7642    3.5070 C.ar      1 RES1    0.0000
     13 C13        3.1772    2.7751    2.6493 C.ar      1 RES1    0.0000
     14 C14        3.1509    3.6030    0.3848 C.ar      1 RES1    0.0000
     15 H1         2.0333    3.1662   -3.4629 H         1 RES1    0.0000
     16 H2         3.1365    4.3551   -1.5485 H         1 RES1    0.0000
     17 H3         0.8764    1.2813   -4.3545 H         1 RES1    0.0000
     18 H4         0.0782   -0.3696   -2.7685 H         1 RES1    0.0000
     19 H5         0.6709   -0.2587   -0.5818 H         1 RES1    0.0000
     20 H6         1.1645   -0.3265    1.3983 H         1 RES1    0.0000
     21 H7         1.8431   -0.1478    3.7632 H         1 RES1    0.0000
     22 H8         3.0139    1.9342    4.5515 H         1 RES1    0.0000
     23 H9         3.7347    3.5358    2.9749 H         1 RES1    0.0000
     24 H10        3.6729    4.6077    0.7414 H         1 RES1    0.0000
@<TRIPOS>BOND
     1    1    3 ar
     2    2    3 ar
     3    3    4 ar
     4    4    5 ar
     5    5    6 ar
     6    6   13 ar
     7    7    1 ar
     8    8    7 ar
     9    9    4 ar
    10   10    5 ar
    11   11   10 ar
    12   12   11 ar
    13   13   12 ar
    14   14    2 ar
    15   15    1 1
    16   16    2 1
    17   17    7 1
    18   18    8 1
    19   19    9 1
    20   20   10 1
    21   21   11 1
    22   22   12 1
    23   23   13 1
    24   24   14 1
    25    6   14 ar
    26    8    9 ar
@<TRIPOS>SUBSTRUCTURE
     1 RES1 1

@<TRIPOS>CRYSIN
   8.4600    6.1600    9.4700  90.0000  97.7000  90.0000   4 1

