# MOL2 file generated by ConQuest
# Please check atom types

@<TRIPOS>MOLECULE
PHTCHP
    18    23     1
SMALL
NO_CHARGES
****
Generated from CSD

@<TRIPOS>ATOM
      1 C1         2.1405    3.5043    0.0000 C.ar      1 RES1    0.0000
      2 C2         2.9249    3.5043    1.1511 C.ar      1 RES1    0.0000
      3 C3         3.6928    2.3486    1.4191 C.ar      1 RES1    0.0000
      4 C4         3.6602    1.2489    0.5834 C.ar      1 RES1    0.0000
      5 C5         2.8432    1.3048   -0.5834 C.ar      1 RES1    0.0000
      6 C6         2.1079    2.4046   -0.8751 C.ar      1 RES1    0.0000
      7 C7         1.2092    2.4791   -2.0577 C.3       1 RES1    0.0000
      8 C8         1.1111    3.7839   -2.7436 C.3       1 RES1    0.0000
      9 C9        -0.0327    3.2993   -1.9552 C.3       1 RES1    0.0000
     10 C10        0.6046    4.6227   -1.6320 C.3       1 RES1    0.0000
     11 C11        1.3562    4.6786   -0.3469 C.ar      1 RES1    0.0000
     12 C12        1.4052    5.7784    0.4257 C.ar      1 RES1    0.0000
     13 C13        2.1732    5.7970    1.6162 C.ar      1 RES1    0.0000
     14 C14        2.9575    4.6973    2.0025 C.ar      1 RES1    0.0000
     15 C15        3.6602    4.7718    3.1930 C.ar      1 RES1    0.0000
     16 C16        3.6928    5.8716    3.9657 C.ar      1 RES1    0.0000
     17 C17        2.9249    6.9900    3.5872 C.ar      1 RES1    0.0000
     18 C18        2.1569    6.9341    2.4598 C.ar      1 RES1    0.0000
@<TRIPOS>BOND
     1    1    2 ar
     2    2    3 ar
     3    3    4 ar
     4    4    5 ar
     5    5    6 ar
     6    6    1 ar
     7    7    6 1
     8    8    7 1
     9    9    7 1
    10   10    8 1
    11   11    1 ar
    12   12   11 ar
    13   13   12 ar
    14   14    2 ar
    15   15   14 ar
    16   16   15 ar
    17   17   16 ar
    18   18   13 ar
    19    8    9 1
    20    9   10 1
    21   10   11 1
    22   13   14 ar
    23   17   18 ar
@<TRIPOS>SUBSTRUCTURE
     1 RES1 1

@<TRIPOS>CRYSIN
  16.3400   18.6400    7.8840  90.0000  90.0000  90.0000  45 1

