# MOL2 file generated by ConQuest
# Please check atom types

@<TRIPOS>MOLECULE
POBPIG06
    48    56     1
SMALL
NO_CHARGES
****
Generated from CSD

@<TRIPOS>ATOM
      1 C1         8.7360    4.1508    1.2319 C.ar      1 RES1    0.0000
      2 C2         9.8838    4.7963    1.6632 C.ar      1 RES1    0.0000
      3 C3         7.7441    3.7909    2.1348 C.ar      1 RES1    0.0000
      4 C4        10.0655    5.0862    3.0159 C.ar      1 RES1    0.0000
      5 C5         7.9035    4.0679    3.4728 C.ar      1 RES1    0.0000
      6 C6         9.0944    4.7134    3.9205 C.ar      1 RES1    0.0000
      7 C7         7.0501    3.8371    4.6479 C.ar      1 RES1    0.0000
      8 C8         9.0082    4.8707    5.3852 C.ar      1 RES1    0.0000
      9 C9         5.8163    3.2848    4.8775 C.ar      1 RES1    0.0000
     10 C10        7.7634    4.3261    5.7580 C.ar      1 RES1    0.0000
     11 C11        9.8064    5.3828    6.3853 C.ar      1 RES1    0.0000
     12 C12        5.3067    3.2471    6.1987 C.ar      1 RES1    0.0000
     13 C13        7.2943    4.2945    7.0679 C.ar      1 RES1    0.0000
     14 C14        9.3557    5.3623    7.7206 C.ar      1 RES1    0.0000
     15 C15        6.0036    3.7379    7.3045 C.ar      1 RES1    0.0000
     16 C16        8.1279    4.8339    8.0984 C.ar      1 RES1    0.0000
     17 H1         9.8940    5.7402    8.3882 H         1 RES1    0.0000
     18 H2        10.6349    5.7633    6.1577 H         1 RES1    0.0000
     19 H3         5.3136    2.9513    4.1639 H         1 RES1    0.0000
     20 H4         4.4704    2.8453    6.3558 H         1 RES1    0.0000
     21 H5        10.8174    5.5555    3.3298 H         1 RES1    0.0000
     22 H6        10.5191    5.0827    1.0506 H         1 RES1    0.0000
     23 H7         8.6512    3.9568    0.3357 H         1 RES1    0.0000
     24 H8         7.0037    3.2839    1.8394 H         1 RES1    0.0000
     25 C1B        4.8977    4.3988   15.5513 C.ar      1 RES1    0.0000
     26 C2B        3.7499    3.7533   15.1200 C.ar      1 RES1    0.0000
     27 C3B        5.8895    4.7587   14.6483 C.ar      1 RES1    0.0000
     28 C4B        3.5682    3.4634   13.7672 C.ar      1 RES1    0.0000
     29 C5B        5.7302    4.4817   13.3104 C.ar      1 RES1    0.0000
     30 C6B        4.5393    3.8362   12.8626 C.ar      1 RES1    0.0000
     31 C7B        6.5836    4.7125   12.1352 C.ar      1 RES1    0.0000
     32 C8B        4.6255    3.6789   11.3980 C.ar      1 RES1    0.0000
     33 C9B        7.8174    5.2648   11.9056 C.ar      1 RES1    0.0000
     34 C10B       5.8703    4.2235   11.0252 C.ar      1 RES1    0.0000
     35 C11B       3.8273    3.1668   10.3978 C.ar      1 RES1    0.0000
     36 C12B       8.3270    5.3025   10.5845 C.ar      1 RES1    0.0000
     37 C13B       6.3393    4.2551    9.7153 C.ar      1 RES1    0.0000
     38 C14B       4.2780    3.1873    9.0626 C.ar      1 RES1    0.0000
     39 C15B       7.6300    4.8117    9.4786 C.ar      1 RES1    0.0000
     40 C16B       5.5058    3.7157    8.6848 C.ar      1 RES1    0.0000
     41 H1B        3.7397    2.8094    8.3949 H         1 RES1    0.0000
     42 H2B        2.9987    2.7863   10.6254 H         1 RES1    0.0000
     43 H3B        8.3200    5.5983   12.6193 H         1 RES1    0.0000
     44 H4B        9.1633    5.7043   10.4274 H         1 RES1    0.0000
     45 H5B        2.8163    2.9941   13.4534 H         1 RES1    0.0000
     46 H6B        3.1146    3.4669   15.7325 H         1 RES1    0.0000
     47 H7B        4.9825    4.5928   16.4475 H         1 RES1    0.0000
     48 H8B        6.6300    5.2657   14.9437 H         1 RES1    0.0000
@<TRIPOS>BOND
     1    1    2 ar
     2    2    4 ar
     3    3    1 ar
     4    4    6 ar
     5    5    3 ar
     6    6    5 ar
     7    7    5 ar
     8    8    6 ar
     9    9    7 ar
    10   10    7 ar
    11   11    8 ar
    12   12    9 ar
    13   13   10 ar
    14   14   11 ar
    15   15   12 ar
    16   16   13 ar
    17   17   14 1
    18   18   11 1
    19   19    9 1
    20   20   12 1
    21   21    4 1
    22   22    2 1
    23   23    1 1
    24   24    3 1
    25   25   26 ar
    26   26   28 ar
    27   27   25 ar
    28   28   30 ar
    29   29   27 ar
    30   30   29 ar
    31   31   29 ar
    32   32   30 ar
    33   33   31 ar
    34   34   31 ar
    35   35   32 ar
    36   36   33 ar
    37   37   34 ar
    38   38   35 ar
    39   39   16 ar
    40   40   15 ar
    41   41   38 1
    42   42   35 1
    43   43   33 1
    44   44   36 1
    45   45   28 1
    46   46   26 1
    47   47   25 1
    48   48   27 1
    49    8   10 ar
    50   13   15 ar
    51   14   16 ar
    52   32   34 ar
    53   36   39 ar
    54   37   39 ar
    55   37   40 ar
    56   38   40 ar
@<TRIPOS>SUBSTRUCTURE
     1 RES1 1

@<TRIPOS>CRYSIN
   7.1709    8.5496   16.7981  90.0000  92.4160  90.0000  14 2

