# MOL2 file generated by ConQuest
# Please check atom types

@<TRIPOS>MOLECULE
PUYMEC
    58    62     1
SMALL
NO_CHARGES
****
Generated from CSD

@<TRIPOS>ATOM
      1 C1         5.3760    7.7635    7.6251 C.3       1 RES1    0.0000
      2 H1         5.2452    6.8266    7.7903 H         1 RES1    0.0000
      3 H2         5.1750    8.2606    8.4206 H         1 RES1    0.0000
      4 H3         6.2886    7.9192    7.3708 H         1 RES1    0.0000
      5 C2         4.4591    8.2100    6.5056 C.ar      1 RES1    0.0000
      6 C3         4.5891    7.6857    5.2515 C.ar      1 RES1    0.0000
      7 H4         5.2532    7.0543    5.0950 H         1 RES1    0.0000
      8 C4         3.7686    8.0631    4.2192 C.ar      1 RES1    0.0000
      9 H5         3.8860    7.6769    3.3822 H         1 RES1    0.0000
     10 C5         2.7806    8.9971    4.3933 C.ar      1 RES1    0.0000
     11 C6         2.6553    9.5341    5.6490 C.ar      1 RES1    0.0000
     12 H6         2.0029   10.1772    5.8079 H         1 RES1    0.0000
     13 C7         3.4800    9.1362    6.6821 C.ar      1 RES1    0.0000
     14 H7         3.3628    9.5147    7.5229 H         1 RES1    0.0000
     15 C8         1.8825    9.4096    3.3196 C.2       1 RES1    0.0000
     16 H8         1.2580   10.0653    3.5321 H         1 RES1    0.0000
     17 C9         1.8574    8.9631    2.0958 C.2       1 RES1    0.0000
     18 H9         2.4944    8.3239    1.8693 H         1 RES1    0.0000
     19 C10        0.9133    9.3717    1.0286 C.ar      1 RES1    0.0000
     20 C11       -0.0031    8.4338    0.5291 C.ar      1 RES1    0.0000
     21 C12       -0.0595    7.1058    1.0353 C.ar      1 RES1    0.0000
     22 H10        0.5461    6.8471    1.6911 H         1 RES1    0.0000
     23 C13       -0.9665    6.2108    0.5910 C.ar      1 RES1    0.0000
     24 H11       -0.9718    5.3459    0.9347 H         1 RES1    0.0000
     25 C14        0.9309   10.6588    0.4943 C.ar      1 RES1    0.0000
     26 C15        1.8816   11.6336    0.9027 C.ar      1 RES1    0.0000
     27 H12        2.5124   11.4059    1.5476 H         1 RES1    0.0000
     28 C16        1.8973   12.8798    0.3845 C.ar      1 RES1    0.0000
     29 H13        2.5292   13.4957    0.6782 H         1 RES1    0.0000
     30 C1B       -5.3760   11.6939   -7.6251 C.3       1 RES1    0.0000
     31 H1B       -5.2452   12.6308   -7.7903 H         1 RES1    0.0000
     32 H2B       -5.1750   11.1968   -8.4206 H         1 RES1    0.0000
     33 H3B       -6.2886   11.5382   -7.3708 H         1 RES1    0.0000
     34 C2B       -4.4591   11.2474   -6.5056 C.ar      1 RES1    0.0000
     35 C3B       -4.5891   11.7717   -5.2515 C.ar      1 RES1    0.0000
     36 H4B       -5.2532   12.4031   -5.0950 H         1 RES1    0.0000
     37 C4B       -3.7686   11.3943   -4.2192 C.ar      1 RES1    0.0000
     38 H5B       -3.8860   11.7805   -3.3822 H         1 RES1    0.0000
     39 C5B       -2.7806   10.4603   -4.3933 C.ar      1 RES1    0.0000
     40 C6B       -2.6553    9.9233   -5.6490 C.ar      1 RES1    0.0000
     41 H6B       -2.0029    9.2802   -5.8079 H         1 RES1    0.0000
     42 C7B       -3.4800   10.3212   -6.6821 C.ar      1 RES1    0.0000
     43 H7B       -3.3628    9.9427   -7.5229 H         1 RES1    0.0000
     44 C8B       -1.8825   10.0478   -3.3196 C.2       1 RES1    0.0000
     45 H8B       -1.2580    9.3921   -3.5321 H         1 RES1    0.0000
     46 C9B       -1.8574   10.4943   -2.0958 C.2       1 RES1    0.0000
     47 H9B       -2.4944   11.1335   -1.8693 H         1 RES1    0.0000
     48 C10B      -0.9133   10.0857   -1.0286 C.ar      1 RES1    0.0000
     49 C11B       0.0031   11.0236   -0.5291 C.ar      1 RES1    0.0000
     50 C12B       0.0595   12.3516   -1.0353 C.ar      1 RES1    0.0000
     51 H10B      -0.5461   12.6103   -1.6911 H         1 RES1    0.0000
     52 C13B       0.9665   13.2466   -0.5910 C.ar      1 RES1    0.0000
     53 H11B       0.9718   14.1115   -0.9347 H         1 RES1    0.0000
     54 C14B      -0.9309    8.7986   -0.4943 C.ar      1 RES1    0.0000
     55 C15B      -1.8816    7.8238   -0.9027 C.ar      1 RES1    0.0000
     56 H12B      -2.5124    8.0515   -1.5476 H         1 RES1    0.0000
     57 C16B      -1.8973    6.5776   -0.3845 C.ar      1 RES1    0.0000
     58 H13B      -2.5292    5.9617   -0.6782 H         1 RES1    0.0000
@<TRIPOS>BOND
     1    1    2 1
     2    3    1 1
     3    4    1 1
     4    5    1 1
     5    6    5 ar
     6    7    6 1
     7    8    6 ar
     8    9    8 1
     9   10    8 ar
    10   11   10 ar
    11   12   11 1
    12   13    5 ar
    13   14   13 1
    14   15   10 1
    15   16   15 1
    16   17   15 2
    17   18   17 1
    18   19   17 1
    19   20   19 ar
    20   21   20 ar
    21   22   21 1
    22   23   21 ar
    23   24   23 1
    24   25   19 ar
    25   26   25 ar
    26   27   26 1
    27   28   26 ar
    28   29   28 1
    29   30   31 1
    30   32   30 1
    31   33   30 1
    32   34   30 1
    33   35   34 ar
    34   36   35 1
    35   37   35 ar
    36   38   37 1
    37   39   37 ar
    38   40   39 ar
    39   41   40 1
    40   42   34 ar
    41   43   42 1
    42   44   39 1
    43   45   44 1
    44   46   44 2
    45   47   46 1
    46   48   46 1
    47   49   25 ar
    48   50   49 ar
    49   51   50 1
    50   52   28 ar
    51   53   52 1
    52   54   20 ar
    53   55   54 ar
    54   56   55 1
    55   57   23 ar
    56   58   57 1
    57   11   13 ar
    58   40   42 ar
    59   48   49 ar
    60   48   54 ar
    61   50   52 ar
    62   55   57 ar
@<TRIPOS>SUBSTRUCTURE
     1 RES1 1

@<TRIPOS>CRYSIN
   5.4103    9.7287   21.8140  90.0000  94.8400  90.0000  14 1

