# MOL2 file generated by ConQuest
# Please check atom types

@<TRIPOS>MOLECULE
PYRCEN
    26    29     1
SMALL
NO_CHARGES
****
Generated from CSD

@<TRIPOS>ATOM
      1 C1         1.5646    0.9909   -0.2037 C.ar      1 RES1    0.0000
      2 C2         1.0160    2.0512    1.9684 C.3       1 RES1    0.0000
      3 C3         2.0776    2.0588    0.7808 C.3       1 RES1    0.0000
      4 C4         1.9681    0.4829   -1.4262 C.ar      1 RES1    0.0000
      5 C5         1.1862   -0.5131   -2.1103 C.ar      1 RES1    0.0000
      6 C6        -0.0320    0.9909    1.5820 C.ar      1 RES1    0.0000
      7 C7         0.3674    0.4567    0.3275 C.ar      1 RES1    0.0000
      8 H1         1.5248   -0.8863   -3.0606 H         1 RES1    0.0000
      9 H2         2.8796    0.8380   -1.8716 H         1 RES1    0.0000
     10 H3         0.5534    3.0170    2.0644 H         1 RES1    0.0000
     11 H4         1.4925    1.7877    2.8962 H         1 RES1    0.0000
     12 H5         2.1127    3.0240    0.3093 H         1 RES1    0.0000
     13 H6         3.0565    1.8017    1.1446 H         1 RES1    0.0000
     14 C6B        0.0320   -0.9909   -1.5820 C.ar      1 RES1    0.0000
     15 C5B       -1.1862    0.5131    2.1103 C.ar      1 RES1    0.0000
     16 C7B       -0.3674   -0.4567   -0.3275 C.ar      1 RES1    0.0000
     17 C2B       -1.0160   -2.0512   -1.9684 C.3       1 RES1    0.0000
     18 C4B       -1.9681   -0.4829    1.4262 C.ar      1 RES1    0.0000
     19 H1B       -1.5248    0.8863    3.0606 H         1 RES1    0.0000
     20 C1B       -1.5646   -0.9909    0.2037 C.ar      1 RES1    0.0000
     21 C3B       -2.0776   -2.0588   -0.7808 C.3       1 RES1    0.0000
     22 H3B       -0.5534   -3.0170   -2.0644 H         1 RES1    0.0000
     23 H4B       -1.4925   -1.7877   -2.8962 H         1 RES1    0.0000
     24 H2B       -2.8796   -0.8380    1.8716 H         1 RES1    0.0000
     25 H5B       -2.1127   -3.0240   -0.3093 H         1 RES1    0.0000
     26 H6B       -3.0565   -1.8017   -1.1446 H         1 RES1    0.0000
@<TRIPOS>BOND
     1    1    3 1
     2    2    3 1
     3    3   12 1
     4    4    1 ar
     5    5    4 ar
     6    6    2 1
     7    7    1 ar
     8    8    5 1
     9    9    4 1
    10   10    2 1
    11   11    2 1
    12   13    3 1
    13   14    5 ar
    14   15    6 ar
    15   16    7 ar
    16   17   14 1
    17   18   15 ar
    18   19   15 1
    19   20   16 ar
    20   21   17 1
    21   22   17 1
    22   23   17 1
    23   24   18 1
    24   25   21 1
    25   26   21 1
    26    6    7 ar
    27   14   16 ar
    28   18   20 ar
    29   20   21 1
@<TRIPOS>SUBSTRUCTURE
     1 RES1 1

@<TRIPOS>CRYSIN
  12.5600    5.0300    7.3200  90.0000  96.2300  90.0000 231 1

