# MOL2 file generated by ConQuest
# Please check atom types

@<TRIPOS>MOLECULE
PYRENE07
    26    29     1
SMALL
NO_CHARGES
****
Generated from CSD

@<TRIPOS>ATOM
      1 C1         2.9955   -0.1373    3.1606 C.ar      1 RES1    0.0000
      2 H1         3.4644    0.1824    3.9231 H         1 RES1    0.0000
      3 C2         3.1633    0.4960    1.9394 C.ar      1 RES1    0.0000
      4 H2         3.7395    1.2485    1.8745 H         1 RES1    0.0000
      5 C3         2.4919    0.0363    0.7994 C.ar      1 RES1    0.0000
      6 C4         2.6442    0.6505   -0.4892 C.ar      1 RES1    0.0000
      7 H3         3.2123    1.4067   -0.5786 H         1 RES1    0.0000
      8 C5         2.0017    0.1802   -1.5717 C.ar      1 RES1    0.0000
      9 H4         2.1349    0.6055   -2.4105 H         1 RES1    0.0000
     10 C6         1.1181   -0.9503   -1.4921 C.ar      1 RES1    0.0000
     11 C7         0.4273   -1.4599   -2.5968 C.ar      1 RES1    0.0000
     12 H5         0.5421   -1.0511   -3.4462 H         1 RES1    0.0000
     13 C8        -0.4167   -2.5431   -2.4753 C.ar      1 RES1    0.0000
     14 H6        -0.8682   -2.8747   -3.2427 H         1 RES1    0.0000
     15 C9        -0.6138   -3.1533   -1.2483 C.ar      1 RES1    0.0000
     16 H7        -1.2044   -3.8948   -1.1794 H         1 RES1    0.0000
     17 C10        0.0514   -2.6864   -0.1067 C.ar      1 RES1    0.0000
     18 C11       -0.1303   -3.2802    1.1892 C.ar      1 RES1    0.0000
     19 H8        -0.7264   -4.0137    1.2853 H         1 RES1    0.0000
     20 C12        0.5217   -2.8226    2.2627 C.ar      1 RES1    0.0000
     21 H9         0.3747   -3.2409    3.1032 H         1 RES1    0.0000
     22 C13        1.4415   -1.7136    2.1856 C.ar      1 RES1    0.0000
     23 C14        2.1536   -1.2274    3.2854 C.ar      1 RES1    0.0000
     24 H10        2.0583   -1.6523    4.1299 H         1 RES1    0.0000
     25 C15        1.6231   -1.0830    0.9192 C.ar      1 RES1    0.0000
     26 C16        0.9301   -1.5765   -0.2273 C.ar      1 RES1    0.0000
@<TRIPOS>BOND
     1    1    2 1
     2    3    1 ar
     3    4    3 1
     4    5    3 ar
     5    6    5 ar
     6    7    6 1
     7    8    6 ar
     8    9    8 1
     9   10    8 ar
    10   11   10 ar
    11   12   11 1
    12   13   11 ar
    13   14   13 1
    14   15   13 ar
    15   16   15 1
    16   17   15 ar
    17   18   17 ar
    18   19   18 1
    19   20   18 ar
    20   21   20 1
    21   22   20 ar
    22   23    1 ar
    23   24   23 1
    24   25    5 ar
    25   26   10 ar
    26   17   26 ar
    27   22   23 ar
    28   22   25 ar
    29   25   26 ar
@<TRIPOS>SUBSTRUCTURE
     1 RES1 1

@<TRIPOS>CRYSIN
  12.3580   10.0200    8.2600  90.0000  96.4800  90.0000  14 2

