# MOL2 file generated by ConQuest
# Please check atom types

@<TRIPOS>MOLECULE
PYRENE02
    26    29     1
SMALL
NO_CHARGES
****
Generated from CSD

@<TRIPOS>ATOM
      1 C1         3.2150   -0.3818    3.4550 C.ar      1 RES1    0.0000
      2 C2         0.1137   -2.2365   -0.1138 C.ar      1 RES1    0.0000
      3 C3        -0.2584   -2.8377    1.1253 C.ar      1 RES1    0.0000
      4 C4         0.3830   -2.5476    2.2824 C.ar      1 RES1    0.0000
      5 C5         1.4826   -1.6167    2.2968 C.ar      1 RES1    0.0000
      6 C6         2.1788   -1.3082    3.4720 C.ar      1 RES1    0.0000
      7 C7         1.8628   -0.9964    1.0863 C.ar      1 RES1    0.0000
      8 C8         1.1804   -1.3051   -0.1237 C.ar      1 RES1    0.0000
      9 C9         3.5958    0.2274    2.2727 C.ar      1 RES1    0.0000
     10 C10        2.9403   -0.0714    1.0704 C.ar      1 RES1    0.0000
     11 C11        3.3187    0.5294   -0.1644 C.ar      1 RES1    0.0000
     12 C12        2.6672    0.2316   -1.3231 C.ar      1 RES1    0.0000
     13 C13        1.5809   -0.6995   -1.3414 C.ar      1 RES1    0.0000
     14 C14        0.9078   -1.0144   -2.5108 C.ar      1 RES1    0.0000
     15 C15       -0.1420   -1.9172   -2.5037 C.ar      1 RES1    0.0000
     16 C16       -0.5445   -2.5250   -1.3229 C.ar      1 RES1    0.0000
     17 H1         3.7181   -0.1559    4.3587 H         1 RES1    0.0000
     18 H2        -1.0890   -3.5470    1.1292 H         1 RES1    0.0000
     19 H3         0.0865   -3.0043    3.2035 H         1 RES1    0.0000
     20 H4         1.9063   -1.7982    4.3909 H         1 RES1    0.0000
     21 H5         4.4063    0.9468    2.2594 H         1 RES1    0.0000
     22 H6         4.1415    1.2098   -0.1655 H         1 RES1    0.0000
     23 H7         2.9584    0.7049   -2.2370 H         1 RES1    0.0000
     24 H8         1.2197   -0.5406   -3.4184 H         1 RES1    0.0000
     25 H9        -0.6695   -2.1627   -3.4118 H         1 RES1    0.0000
     26 H10       -1.3583   -3.2335   -1.3227 H         1 RES1    0.0000
@<TRIPOS>BOND
     1    1    6 ar
     2    2    3 ar
     3    3    4 ar
     4    4    5 ar
     5    5    6 ar
     6    6   20 1
     7    7    5 ar
     8    8    2 ar
     9    9    1 ar
    10   10    7 ar
    11   11   10 ar
    12   12   11 ar
    13   13    8 ar
    14   14   13 ar
    15   15   14 ar
    16   16    2 ar
    17   17    1 1
    18   18    3 1
    19   19    4 1
    20   21    9 1
    21   22   11 1
    22   23   12 1
    23   24   14 1
    24   25   15 1
    25   26   16 1
    26    7    8 ar
    27    9   10 ar
    28   12   13 ar
    29   15   16 ar
@<TRIPOS>SUBSTRUCTURE
     1 RES1 1

@<TRIPOS>CRYSIN
  13.6490    9.2560    8.4700  90.0000 100.2800  90.0000  14 2

