# MOL2 file generated by ConQuest
# Please check atom types

@<TRIPOS>MOLECULE
PYRENE10
    26    29     1
SMALL
NO_CHARGES
****
Generated from CSD

@<TRIPOS>ATOM
      1 C1         3.0177    7.1078   -0.8009 C.ar      1 RES1    0.0000
      2 H1         3.1539    7.7230   -1.5120 H         1 RES1    0.0000
      3 C2         1.7739    6.5328   -0.6274 C.ar      1 RES1    0.0000
      4 H2         1.0630    6.7583   -1.2157 H         1 RES1    0.0000
      5 C3         1.5585    5.6327    0.3967 C.ar      1 RES1    0.0000
      6 H3         0.6959    5.2496    0.5049 H         1 RES1    0.0000
      7 C4         2.5800    5.2736    1.2769 C.ar      1 RES1    0.0000
      8 C5         2.3878    4.3443    2.3525 C.ar      1 RES1    0.0000
      9 H4         1.5347    3.9438    2.4753 H         1 RES1    0.0000
     10 C6         3.3884    4.0291    3.1891 C.ar      1 RES1    0.0000
     11 H5         3.2263    3.4125    3.8930 H         1 RES1    0.0000
     12 C7         4.6979    4.5992    3.0474 C.ar      1 RES1    0.0000
     13 C8         5.7573    4.2811    3.9068 C.ar      1 RES1    0.0000
     14 H6         5.6240    3.6503    4.6052 H         1 RES1    0.0000
     15 C9         6.9965    4.8774    3.7487 C.ar      1 RES1    0.0000
     16 H7         7.7053    4.6497    4.3394 H         1 RES1    0.0000
     17 C10        7.2163    5.8010    2.7428 C.ar      1 RES1    0.0000
     18 H8         8.0684    6.2143    2.6640 H         1 RES1    0.0000
     19 C11        6.2019    6.1352    1.8401 C.ar      1 RES1    0.0000
     20 C12        6.3844    7.0674    0.7597 C.ar      1 RES1    0.0000
     21 H9         7.2338    7.4752    0.6378 H         1 RES1    0.0000
     22 C13        5.3829    7.3751   -0.0809 C.ar      1 RES1    0.0000
     23 H10        5.5432    7.9928   -0.7852 H         1 RES1    0.0000
     24 C14        4.0807    6.7957    0.0565 C.ar      1 RES1    0.0000
     25 C15        3.8628    5.8599    1.1024 C.ar      1 RES1    0.0000
     26 C16        4.9263    5.5265    1.9971 C.ar      1 RES1    0.0000
@<TRIPOS>BOND
     1    1    2 1
     2    3    1 ar
     3    4    3 1
     4    5    3 ar
     5    6    5 1
     6    7    5 ar
     7    8    7 ar
     8    9    8 1
     9   10    8 ar
    10   11   10 1
    11   12   10 ar
    12   13   12 ar
    13   14   13 1
    14   15   13 ar
    15   16   15 1
    16   17   15 ar
    17   18   17 1
    18   19   17 ar
    19   20   19 ar
    20   21   20 1
    21   22   20 ar
    22   23   22 1
    23   24    1 ar
    24   25    7 ar
    25   26   12 ar
    26   19   26 ar
    27   22   24 ar
    28   24   25 ar
    29   25   26 ar
@<TRIPOS>SUBSTRUCTURE
     1 RES1 1

@<TRIPOS>CRYSIN
   8.3740    9.1440   13.5020  90.0000 100.2450  90.0000  14 1

