# MOL2 file generated by ConQuest
# Please check atom types

@<TRIPOS>MOLECULE
PYRENE01
    26    29     1
SMALL
NO_CHARGES
****
Generated from CSD

@<TRIPOS>ATOM
      1 C1         3.2094   -0.3905    3.4436 C.ar      1 RES1    0.0000
      2 C2         0.1131   -2.2309   -0.1117 C.ar      1 RES1    0.0000
      3 C3        -0.2506   -2.8305    1.1259 C.ar      1 RES1    0.0000
      4 C4         0.3901   -2.5501    2.2669 C.ar      1 RES1    0.0000
      5 C5         1.4814   -1.6183    2.3002 C.ar      1 RES1    0.0000
      6 C6         2.1850   -1.3010    3.4628 C.ar      1 RES1    0.0000
      7 C7         1.8651   -0.9928    1.0801 C.ar      1 RES1    0.0000
      8 C8         1.1772   -1.3074   -0.1242 C.ar      1 RES1    0.0000
      9 C9         3.5933    0.2239    2.2752 C.ar      1 RES1    0.0000
     10 C10        2.9373   -0.0694    1.0684 C.ar      1 RES1    0.0000
     11 C11        3.3107    0.5182   -0.1775 C.ar      1 RES1    0.0000
     12 C12        2.6668    0.2276   -1.3084 C.ar      1 RES1    0.0000
     13 C13        1.5805   -0.6949   -1.3393 C.ar      1 RES1    0.0000
     14 C14        0.9021   -1.0234   -2.5127 C.ar      1 RES1    0.0000
     15 C15       -0.1395   -1.9209   -2.4894 C.ar      1 RES1    0.0000
     16 C16       -0.5405   -2.5205   -1.3243 C.ar      1 RES1    0.0000
     17 H1         3.6545   -0.1758    4.3087 H         1 RES1    0.0000
     18 H2        -1.0534   -3.4791    1.0668 H         1 RES1    0.0000
     19 H3         0.1080   -2.9702    3.0919 H         1 RES1    0.0000
     20 H4         1.8922   -1.7118    4.3170 H         1 RES1    0.0000
     21 H5         4.3448    0.8790    2.3085 H         1 RES1    0.0000
     22 H6         4.1189    1.1844   -0.1333 H         1 RES1    0.0000
     23 H7         2.9241    0.6385   -2.2752 H         1 RES1    0.0000
     24 H8         1.2491   -0.4997   -3.3503 H         1 RES1    0.0000
     25 H9        -0.6329   -2.0264   -3.3586 H         1 RES1    0.0000
     26 H10       -1.3110   -3.1553   -1.2001 H         1 RES1    0.0000
@<TRIPOS>BOND
     1    1    6 ar
     2    2    3 ar
     3    3    4 ar
     4    4    5 ar
     5    5    6 ar
     6    6   20 1
     7    7    5 ar
     8    8    2 ar
     9    9    1 ar
    10   10    7 ar
    11   11   10 ar
    12   12   11 ar
    13   13    8 ar
    14   14   13 ar
    15   15   14 ar
    16   16    2 ar
    17   17    1 1
    18   18    3 1
    19   19    4 1
    20   21    9 1
    21   22   11 1
    22   23   12 1
    23   24   14 1
    24   25   15 1
    25   26   16 1
    26    7    8 ar
    27    9   10 ar
    28   12   13 ar
    29   15   16 ar
@<TRIPOS>SUBSTRUCTURE
     1 RES1 1

@<TRIPOS>CRYSIN
  13.6490    9.2530    8.4700  90.0000 100.2800  90.0000  14 2

