# MOL2 file generated by ConQuest
# Please check atom types

@<TRIPOS>MOLECULE
QAYJIM
    43    47     1
SMALL
NO_CHARGES
****
Generated from CSD

@<TRIPOS>ATOM
      1 C1         9.2588    0.6747    0.8580 C.ar      1 RES1    0.0000
      2 C2         9.0109   -0.2293   -0.2050 C.ar      1 RES1    0.0000
      3 H1         8.1458   -0.5384   -0.3465 H         1 RES1    0.0000
      4 C3        10.0033   -0.6503   -1.0168 C.ar      1 RES1    0.0000
      5 H2         9.8190   -1.2446   -1.7073 H         1 RES1    0.0000
      6 C4        11.3046   -0.1920   -0.8180 C.ar      1 RES1    0.0000
      7 H3        11.9839   -0.4831   -1.3817 H         1 RES1    0.0000
      8 C5        11.5945    0.6739    0.1883 C.ar      1 RES1    0.0000
      9 H4        12.4707    0.9621    0.3034 H         1 RES1    0.0000
     10 C6        10.5857    1.1453    1.0660 C.ar      1 RES1    0.0000
     11 C7        10.8359    2.0515    2.1234 C.ar      1 RES1    0.0000
     12 C8         9.7867    2.4791    2.9407 C.ar      1 RES1    0.0000
     13 C9         8.4569    1.9932    2.7333 C.ar      1 RES1    0.0000
     14 C10        8.2415    1.1062    1.6987 C.ar      1 RES1    0.0000
     15 H5         7.3805    0.7840    1.5590 H         1 RES1    0.0000
     16 C11        7.3776    2.4466    3.6097 C.ar      1 RES1    0.0000
     17 C12        7.6633    3.3671    4.6345 C.ar      1 RES1    0.0000
     18 C13        9.0002    3.8434    4.7896 C.ar      1 RES1    0.0000
     19 H6         9.1812    4.4645    5.4580 H         1 RES1    0.0000
     20 C14       10.0022    3.4277    4.0073 C.ar      1 RES1    0.0000
     21 H7        10.8589    3.7583    4.1538 H         1 RES1    0.0000
     22 C15        6.6321    3.8054    5.4740 C.ar      1 RES1    0.0000
     23 H8         6.8307    4.4154    6.1479 H         1 RES1    0.0000
     24 C16        5.3355    3.3683    5.3380 C.ar      1 RES1    0.0000
     25 C17        5.0752    2.4460    4.3323 C.ar      1 RES1    0.0000
     26 H9         4.2092    2.1248    4.2252 H         1 RES1    0.0000
     27 C18        6.0571    1.9987    3.4971 C.ar      1 RES1    0.0000
     28 H10        5.8426    1.3797    2.8367 H         1 RES1    0.0000
     29 C19        4.2339    3.8801    6.2353 C.3       1 RES1    0.0000
     30 H11        4.5483    3.9139    7.1413 H         1 RES1    0.0000
     31 H12        3.4779    3.2916    6.1799 H         1 RES1    0.0000
     32 H13        3.9761    4.7613    5.9541 H         1 RES1    0.0000
     33 C20       12.2280    2.5186    2.3800 C.ar      1 RES1    0.0000
     34 C21       12.8444    3.4381    1.5571 C.ar      1 RES1    0.0000
     35 H14       12.3847    3.7767    0.8235 H         1 RES1    0.0000
     36 C22       14.1277    3.8606    1.8070 C.ar      1 RES1    0.0000
     37 H15       14.5256    4.4829    1.2426 H         1 RES1    0.0000
     38 C23       14.8216    3.3739    2.8743 C.ar      1 RES1    0.0000
     39 H16       15.6888    3.6641    3.0404 H         1 RES1    0.0000
     40 C24       14.2330    2.4554    3.6996 C.ar      1 RES1    0.0000
     41 H17       14.7029    2.1166    4.4271 H         1 RES1    0.0000
     42 C25       12.9505    2.0349    3.4534 C.ar      1 RES1    0.0000
     43 H18       12.5594    1.4104    4.0209 H         1 RES1    0.0000
@<TRIPOS>BOND
     1    1    2 ar
     2    2    3 1
     3    4    2 ar
     4    5    4 1
     5    6    4 ar
     6    7    6 1
     7    8    6 ar
     8    9    8 1
     9   10    1 ar
    10   11   10 ar
    11   12   11 ar
    12   13   12 ar
    13   14    1 ar
    14   15   14 1
    15   16   13 ar
    16   17   16 ar
    17   18   17 ar
    18   19   18 1
    19   20   12 ar
    20   21   20 1
    21   22   17 ar
    22   23   22 1
    23   24   22 ar
    24   25   24 ar
    25   26   25 1
    26   27   16 ar
    27   28   27 1
    28   29   24 1
    29   30   29 1
    30   31   29 1
    31   32   29 1
    32   33   11 1
    33   34   33 ar
    34   35   34 1
    35   36   34 ar
    36   37   36 1
    37   38   36 ar
    38   39   38 1
    39   40   38 ar
    40   41   40 1
    41   42   33 ar
    42   43   42 1
    43    8   10 ar
    44   13   14 ar
    45   18   20 ar
    46   25   27 ar
    47   40   42 ar
@<TRIPOS>SUBSTRUCTURE
     1 RES1 1

@<TRIPOS>CRYSIN
  13.3160   20.4700    6.2779  90.0000 101.3690  90.0000  14 1

