# MOL2 file generated by ConQuest
# Please check atom types

@<TRIPOS>MOLECULE
QIRGIJ
    66    75     1
SMALL
NO_CHARGES
****
Generated from CSD

@<TRIPOS>ATOM
      1 C1         6.5161    6.2689   10.2287 C.ar      1 RES1    0.0000
      2 H1         7.0135    6.4802   11.0097 H         1 RES1    0.0000
      3 C2         7.0888    5.4605    9.2238 C.ar      1 RES1    0.0000
      4 H2         7.9568    5.0957    9.3495 H         1 RES1    0.0000
      5 C3         6.4039    5.1992    8.0706 C.ar      1 RES1    0.0000
      6 H3         6.8074    4.6614    7.3985 H         1 RES1    0.0000
      7 C4         5.0993    5.7175    7.8608 C.ar      1 RES1    0.0000
      8 C5         4.3092    5.4376    6.7076 C.ar      1 RES1    0.0000
      9 C6         2.9203    5.5920    6.7496 C.ar      1 RES1    0.0000
     10 C7         2.3345    4.9761    5.5389 C.2       1 RES1    0.0000
     11 C8         0.9964    4.9269    5.2127 C.2       1 RES1    0.0000
     12 C9         0.3765    4.9880    3.8671 C.ar      1 RES1    0.0000
     13 C10        0.9616    5.1237    2.5944 C.ar      1 RES1    0.0000
     14 H4         1.9044    5.0694    2.4955 H         1 RES1    0.0000
     15 C11        0.1678    5.3333    1.4975 C.ar      1 RES1    0.0000
     16 H5         0.5542    5.3036    0.6305 H         1 RES1    0.0000
     17 C12       -1.2201    5.5928    1.6349 C.ar      1 RES1    0.0000
     18 C13       -1.9925    5.9958    0.5229 C.ar      1 RES1    0.0000
     19 H6        -1.6217    5.9398   -0.3501 H         1 RES1    0.0000
     20 C14       -3.2672    6.4640    0.6848 C.ar      1 RES1    0.0000
     21 H7        -3.7843    6.7092   -0.0737 H         1 RES1    0.0000
     22 C15       -4.8353    3.5909    7.5035 C.ar      1 RES1    0.0000
     23 H8        -5.6175    3.3228    7.9697 H         1 RES1    0.0000
     24 C16       -3.6826    3.8241    8.1848 C.ar      1 RES1    0.0000
     25 H9        -3.6673    3.7071    9.1284 H         1 RES1    0.0000
     26 C17       -2.5000    4.2390    7.5170 C.ar      1 RES1    0.0000
     27 C18       -2.5422    4.4646    6.1057 C.ar      1 RES1    0.0000
     28 C19       -1.3390    4.8701    5.4545 C.ar      1 RES1    0.0000
     29 C20       -1.0131    5.1237    4.0317 C.ar      1 RES1    0.0000
     30 C21        3.4857    4.5070    4.7464 C.ar      1 RES1    0.0000
     31 C22        4.6644    4.8955    5.3880 C.ar      1 RES1    0.0000
     32 C23        5.2432    6.7482   10.0748 C.ar      1 RES1    0.0000
     33 H10        4.8620    7.2886   10.7579 H         1 RES1    0.0000
     34 C24        4.4835    6.4522    8.9163 C.ar      1 RES1    0.0000
     35 C25        3.1211    6.8449    8.7967 C.ar      1 RES1    0.0000
     36 H11        2.7450    7.4294    9.4436 H         1 RES1    0.0000
     37 C26        2.3446    6.3962    7.7664 C.ar      1 RES1    0.0000
     38 H12        1.4217    6.6210    7.7302 H         1 RES1    0.0000
     39 C27        5.9015    4.8777    4.6723 C.ar      1 RES1    0.0000
     40 C28        7.0353    5.6446    5.0299 C.ar      1 RES1    0.0000
     41 H13        7.0149    6.1604    5.8283 H         1 RES1    0.0000
     42 C29        8.1597    5.6590    4.2516 C.ar      1 RES1    0.0000
     43 H14        8.9026    6.1951    4.5038 H         1 RES1    0.0000
     44 C30        8.2215    4.8845    3.0826 C.ar      1 RES1    0.0000
     45 H15        9.0210    4.8548    2.5713 H         1 RES1    0.0000
     46 C31        7.1237    4.1736    2.6828 C.ar      1 RES1    0.0000
     47 H16        7.1635    3.6765    1.8732 H         1 RES1    0.0000
     48 C32        5.9336    4.1592    3.4413 C.ar      1 RES1    0.0000
     49 C33        4.7652    3.4941    2.9850 C.ar      1 RES1    0.0000
     50 H17        4.8224    2.9088    2.2396 H         1 RES1    0.0000
     51 C34        3.5606    3.6799    3.5983 C.ar      1 RES1    0.0000
     52 H18        2.7800    3.2592    3.2591 H         1 RES1    0.0000
     53 C35       -0.1282    4.8608    6.1598 C.ar      1 RES1    0.0000
     54 C36       -0.0976    4.5384    7.5375 C.ar      1 RES1    0.0000
     55 H19        0.7313    4.4833    7.9983 H         1 RES1    0.0000
     56 C37       -1.2655    4.3085    8.1973 C.ar      1 RES1    0.0000
     57 H20       -1.2499    4.1915    9.1407 H         1 RES1    0.0000
     58 C38       -3.8103    6.5837    1.9759 C.ar      1 RES1    0.0000
     59 H21       -4.6715    6.9662    2.0922 H         1 RES1    0.0000
     60 C39       -3.1023    6.1485    3.0712 C.ar      1 RES1    0.0000
     61 H22       -3.4877    6.2265    3.9367 H         1 RES1    0.0000
     62 C40       -1.8096    5.5869    2.9365 C.ar      1 RES1    0.0000
     63 C41       -3.7515    4.1558    5.4283 C.ar      1 RES1    0.0000
     64 H23       -3.7857    4.2347    4.4813 H         1 RES1    0.0000
     65 C42       -4.8683    3.7469    6.1055 C.ar      1 RES1    0.0000
     66 H24       -5.6707    3.5688    5.6297 H         1 RES1    0.0000
@<TRIPOS>BOND
     1    1    2 1
     2    3    1 ar
     3    4    3 1
     4    5    3 ar
     5    6    5 1
     6    7    5 ar
     7    8    7 ar
     8    9    8 ar
     9   10    9 1
    10   11   10 2
    11   12   11 1
    12   13   12 ar
    13   14   13 1
    14   15   13 ar
    15   16   15 1
    16   17   15 ar
    17   18   17 ar
    18   19   18 1
    19   20   18 ar
    20   21   20 1
    21   22   23 1
    22   24   22 ar
    23   25   24 1
    24   26   24 ar
    25   27   26 ar
    26   28   27 ar
    27   29   12 ar
    28   30   10 1
    29   31    8 1
    30   32    1 ar
    31   33   32 1
    32   34    7 ar
    33   35   34 ar
    34   36   35 1
    35   37    9 ar
    36   38   37 1
    37   39   31 ar
    38   40   39 ar
    39   41   40 1
    40   42   40 ar
    41   43   42 1
    42   44   42 ar
    43   45   44 1
    44   46   44 ar
    45   47   46 1
    46   48   39 ar
    47   49   48 ar
    48   50   49 1
    49   51   30 ar
    50   52   51 1
    51   53   11 1
    52   54   53 ar
    53   55   54 1
    54   56   26 ar
    55   57   56 1
    56   58   20 ar
    57   59   58 1
    58   60   58 ar
    59   61   60 1
    60   62   17 ar
    61   63   27 ar
    62   64   63 1
    63   65   22 ar
    64   66   65 1
    65   28   29 1
    66   28   53 ar
    67   29   62 ar
    68   30   31 ar
    69   32   34 ar
    70   35   37 ar
    71   46   48 ar
    72   49   51 ar
    73   54   56 ar
    74   60   62 ar
    75   63   65 ar
@<TRIPOS>SUBSTRUCTURE
     1 RES1 1

@<TRIPOS>CRYSIN
  15.0650    8.4830   20.4890  90.0000  92.3470  90.0000  14 1

