# MOL2 file generated by ConQuest
# Please check atom types

@<TRIPOS>MOLECULE
QIXWAW
    64    71     1
SMALL
NO_CHARGES
****
Generated from CSD

@<TRIPOS>ATOM
      1 C1         4.4740    8.7216    0.2766 C.2       1 RES1    0.0000
      2 C2         3.6767    7.7997    0.9214 C.2       1 RES1    0.0000
      3 C3         2.7968    6.9522    0.1583 C.2       1 RES1    0.0000
      4 C4         1.8168    6.2478    0.7987 C.2       1 RES1    0.0000
      5 C5         1.6831    6.2246    2.2385 C.ar      1 RES1    0.0000
      6 C6         0.7071    5.4851    2.8846 C.ar      1 RES1    0.0000
      7 C7         0.6348    5.4545    4.2829 C.ar      1 RES1    0.0000
      8 C8         1.5284    6.1494    5.0412 C.ar      1 RES1    0.0000
      9 C9         2.5407    6.9347    4.4355 C.ar      1 RES1    0.0000
     10 C10        3.4767    7.6783    5.1871 C.ar      1 RES1    0.0000
     11 C11        4.4422    8.4211    4.5613 C.ar      1 RES1    0.0000
     12 C12        4.5262    8.4622    3.1667 C.ar      1 RES1    0.0000
     13 C13        3.6287    7.7512    2.3799 C.ar      1 RES1    0.0000
     14 C14        2.6253    6.9636    3.0136 C.ar      1 RES1    0.0000
     15 C15        2.9414    6.9067   -1.3204 C.ar      1 RES1    0.0000
     16 C16        1.9790    7.4550   -2.1469 C.ar      1 RES1    0.0000
     17 C17        2.1280    7.4288   -3.5220 C.ar      1 RES1    0.0000
     18 C18        3.2212    6.8263   -4.0911 C.ar      1 RES1    0.0000
     19 C19        4.1753    6.2417   -3.2863 C.ar      1 RES1    0.0000
     20 C20        4.0416    6.2938   -1.9088 C.ar      1 RES1    0.0000
     21 H1         1.1971    5.7505    0.2687 H         1 RES1    0.0000
     22 H2         0.0763    4.9921    2.3667 H         1 RES1    0.0000
     23 H3        -0.0401    4.9337    4.7140 H         1 RES1    0.0000
     24 H4         1.4781    6.1048    5.9865 H         1 RES1    0.0000
     25 H5         3.4334    7.6641    6.1416 H         1 RES1    0.0000
     26 H6         5.0661    8.9242    5.0791 H         1 RES1    0.0000
     27 H7         5.2085    8.9780    2.7478 H         1 RES1    0.0000
     28 H8         1.2054    7.8605   -1.7683 H         1 RES1    0.0000
     29 H9         1.4693    7.8265   -4.0826 H         1 RES1    0.0000
     30 H10        3.3215    6.8182   -5.0412 H         1 RES1    0.0000
     31 H11        4.9293    5.8112   -3.6747 H         1 RES1    0.0000
     32 H12        4.7034    5.8963   -1.3543 H         1 RES1    0.0000
     33 C1A        5.1472    9.5954   -0.2766 C.2       1 RES1    0.0000
     34 C2A        5.9445   10.5173   -0.9214 C.2       1 RES1    0.0000
     35 C3A        6.8244   11.3648   -0.1583 C.2       1 RES1    0.0000
     36 C4A        7.8044   12.0692   -0.7987 C.2       1 RES1    0.0000
     37 C5A        7.9381   12.0924   -2.2385 C.ar      1 RES1    0.0000
     38 C6A        8.9141   12.8319   -2.8846 C.ar      1 RES1    0.0000
     39 C7A        8.9864   12.8625   -4.2829 C.ar      1 RES1    0.0000
     40 C8A        8.0928   12.1676   -5.0412 C.ar      1 RES1    0.0000
     41 C9A        7.0805   11.3823   -4.4355 C.ar      1 RES1    0.0000
     42 C10A       6.1445   10.6387   -5.1871 C.ar      1 RES1    0.0000
     43 C11A       5.1790    9.8959   -4.5613 C.ar      1 RES1    0.0000
     44 C12A       5.0950    9.8548   -3.1667 C.ar      1 RES1    0.0000
     45 C13A       5.9925   10.5658   -2.3799 C.ar      1 RES1    0.0000
     46 C14A       6.9959   11.3534   -3.0136 C.ar      1 RES1    0.0000
     47 C15A       6.6798   11.4103    1.3204 C.ar      1 RES1    0.0000
     48 C16A       7.6422   10.8620    2.1469 C.ar      1 RES1    0.0000
     49 C17A       7.4932   10.8882    3.5220 C.ar      1 RES1    0.0000
     50 C18A       6.4000   11.4907    4.0911 C.ar      1 RES1    0.0000
     51 C19A       5.4459   12.0753    3.2863 C.ar      1 RES1    0.0000
     52 C20A       5.5796   12.0232    1.9088 C.ar      1 RES1    0.0000
     53 H1A        8.4241   12.5665   -0.2687 H         1 RES1    0.0000
     54 H2A        9.5449   13.3249   -2.3667 H         1 RES1    0.0000
     55 H3A        9.6613   13.3833   -4.7140 H         1 RES1    0.0000
     56 H4A        8.1431   12.2122   -5.9865 H         1 RES1    0.0000
     57 H5A        6.1878   10.6529   -6.1416 H         1 RES1    0.0000
     58 H6A        4.5551    9.3928   -5.0791 H         1 RES1    0.0000
     59 H7A        4.4127    9.3390   -2.7478 H         1 RES1    0.0000
     60 H8A        8.4158   10.4565    1.7683 H         1 RES1    0.0000
     61 H9A        8.1519   10.4905    4.0826 H         1 RES1    0.0000
     62 H10A       6.2997   11.4988    5.0412 H         1 RES1    0.0000
     63 H11A       4.6919   12.5058    3.6747 H         1 RES1    0.0000
     64 H12A       4.9178   12.4207    1.3543 H         1 RES1    0.0000
@<TRIPOS>BOND
     1    1    2 2
     2    2    3 1
     3    3    4 2
     4    4    5 1
     5    5    6 ar
     6    6    7 ar
     7    7    8 ar
     8    8    9 ar
     9    9   10 ar
    10   10   11 ar
    11   11   12 ar
    12   12   13 ar
    13   13    2 1
    14   14    5 ar
    15   15    3 1
    16   16   15 ar
    17   17   16 ar
    18   18   17 ar
    19   19   18 ar
    20   20   15 ar
    21   21    4 1
    22   22    6 1
    23   23    7 1
    24   24    8 1
    25   25   10 1
    26   26   11 1
    27   27   12 1
    28   28   16 1
    29   29   17 1
    30   30   18 1
    31   31   19 1
    32   32   20 1
    33   33    1 2
    34   34   33 2
    35   35   34 1
    36   36   35 2
    37   37   36 1
    38   38   37 ar
    39   39   38 ar
    40   40   39 ar
    41   41   40 ar
    42   42   41 ar
    43   43   42 ar
    44   44   43 ar
    45   45   34 1
    46   46   37 ar
    47   47   35 1
    48   48   47 ar
    49   49   48 ar
    50   50   49 ar
    51   51   50 ar
    52   52   47 ar
    53   53   36 1
    54   54   38 1
    55   55   39 1
    56   56   40 1
    57   57   42 1
    58   58   43 1
    59   59   44 1
    60   60   48 1
    61   61   49 1
    62   62   50 1
    63   63   51 1
    64   64   52 1
    65    9   14 ar
    66   13   14 ar
    67   19   20 ar
    68   41   46 ar
    69   44   45 ar
    70   45   46 ar
    71   51   52 ar
@<TRIPOS>SUBSTRUCTURE
     1 RES1 1

@<TRIPOS>CRYSIN
   5.6810    9.3680   12.6880  80.7460  75.6780  77.8600   2 1

