# MOL2 file generated by ConQuest
# Please check atom types

@<TRIPOS>MOLECULE
QOKKOS
    28    30     1
SMALL
NO_CHARGES
****
Generated from CSD

@<TRIPOS>ATOM
      1 C1         7.8434    6.4436    6.0693 C.ar      1 RES1    0.0000
      2 C2         6.4026    6.5543    6.0591 C.ar      1 RES1    0.0000
      3 C3         5.5916    5.8275    6.9326 C.ar      1 RES1    0.0000
      4 H1         5.9922    5.2267    7.5509 H         1 RES1    0.0000
      5 C4         4.1991    5.9683    6.9134 C.ar      1 RES1    0.0000
      6 C5         3.3748    5.2293    7.8161 C.ar      1 RES1    0.0000
      7 H2         3.7740    4.6231    8.4287 H         1 RES1    0.0000
      8 C6         2.0166    5.3862    7.8076 C.ar      1 RES1    0.0000
      9 H3         1.4802    4.8888    8.4143 H         1 RES1    0.0000
     10 C7         1.4030    6.2848    6.9016 C.ar      1 RES1    0.0000
     11 H4         0.4578    6.3811    6.9080 H         1 RES1    0.0000
     12 C8         2.1520    7.0226    6.0110 C.ar      1 RES1    0.0000
     13 C9         3.5878    6.8811    5.9886 C.ar      1 RES1    0.0000
     14 C10        4.4011    7.5891    5.0950 C.ar      1 RES1    0.0000
     15 H5         4.0008    8.1819    4.4702 H         1 RES1    0.0000
     16 C11        5.7932    7.4385    5.1064 C.ar      1 RES1    0.0000
     17 C12        6.6211    8.1374    4.1752 C.ar      1 RES1    0.0000
     18 H6         6.2232    8.7202    3.5397 H         1 RES1    0.0000
     19 C13        7.9795    7.9776    4.1871 C.ar      1 RES1    0.0000
     20 H7         8.5131    8.4353    3.5484 H         1 RES1    0.0000
     21 C14        8.5976    7.1335    5.1450 C.ar      1 RES1    0.0000
     22 H8         9.5434    7.0421    5.1496 H         1 RES1    0.0000
     23 C15        8.4816    5.6288    7.0640 C.1       1 RES1    0.0000
     24 C16        9.0050    4.9721    7.9134 C.1       1 RES1    0.0000
     25 H9         9.4211    4.4496    8.5887 H         1 RES1    0.0000
     26 C17        1.4906    7.9280    5.1152 C.1       1 RES1    0.0000
     27 C18        0.9063    8.6798    4.3963 C.1       1 RES1    0.0000
     28 H10        0.4404    9.2788    3.8243 H         1 RES1    0.0000
@<TRIPOS>BOND
     1    1    2 ar
     2    2    3 ar
     3    3    4 1
     4    5    3 ar
     5    6    5 ar
     6    7    6 1
     7    8    6 ar
     8    9    8 1
     9   10    8 ar
    10   11   10 1
    11   12   10 ar
    12   13    5 ar
    13   14   13 ar
    14   15   14 1
    15   16    2 ar
    16   17   16 ar
    17   18   17 1
    18   19   17 ar
    19   20   19 1
    20   21    1 ar
    21   22   21 1
    22   23    1 1
    23   24   23 3
    24   25   24 1
    25   26   12 1
    26   27   26 3
    27   28   27 1
    28   12   13 ar
    29   14   16 ar
    30   19   21 ar
@<TRIPOS>SUBSTRUCTURE
     1 RES1 1

@<TRIPOS>CRYSIN
  10.9372   11.2620    9.9654  90.0000 105.9353  90.0000  14 1

