# MOL2 file generated by ConQuest
# Please check atom types

@<TRIPOS>MOLECULE
QOLTOC
    58    63     1
SMALL
NO_CHARGES
****
Generated from CSD

@<TRIPOS>ATOM
      1 C1         5.0720    3.4760    0.2790 C.ar      1 RES1    0.0000
      2 C2         5.8943    2.7323   -0.5204 C.ar      1 RES1    0.0000
      3 H1         6.1881    3.0982   -1.3233 H         1 RES1    0.0000
      4 C3         6.3133    1.4259   -0.1715 C.ar      1 RES1    0.0000
      5 C4         7.1501    0.6534   -1.0027 C.ar      1 RES1    0.0000
      6 H2         7.4447    1.0011   -1.8119 H         1 RES1    0.0000
      7 C5         7.5291   -0.6056   -0.6290 C.ar      1 RES1    0.0000
      8 H3         8.0832   -1.1041   -1.1858 H         1 RES1    0.0000
      9 C6         7.0961   -1.1503    0.5736 C.ar      1 RES1    0.0000
     10 H4         7.3540   -2.0105    0.8104 H         1 RES1    0.0000
     11 C7         6.2989   -0.4351    1.4036 C.ar      1 RES1    0.0000
     12 H5         6.0233   -0.8075    2.2105 H         1 RES1    0.0000
     13 C8         5.8816    0.8747    1.0524 C.ar      1 RES1    0.0000
     14 C9         5.0568    1.6644    1.8841 C.ar      1 RES1    0.0000
     15 H6         4.7791    1.3225    2.7037 H         1 RES1    0.0000
     16 C10        4.6608    2.9099    1.5116 C.ar      1 RES1    0.0000
     17 H7         4.1075    3.3989    2.0770 H         1 RES1    0.0000
     18 C11        5.8037    5.7197   -0.5995 C.ar      1 RES1    0.0000
     19 C12        6.9808    5.7979    0.0878 C.ar      1 RES1    0.0000
     20 H8         7.0739    5.3147    0.8768 H         1 RES1    0.0000
     21 C13        8.0606    6.5923   -0.3645 C.ar      1 RES1    0.0000
     22 C14        9.2574    6.7084    0.3650 C.ar      1 RES1    0.0000
     23 H9         9.3522    6.2540    1.1702 H         1 RES1    0.0000
     24 C15       10.2759    7.4764   -0.0907 C.ar      1 RES1    0.0000
     25 H10       11.0578    7.5477    0.4089 H         1 RES1    0.0000
     26 C16       10.1654    8.1628   -1.3036 C.ar      1 RES1    0.0000
     27 H11       10.8724    8.6806   -1.6092 H         1 RES1    0.0000
     28 C17        9.0275    8.0717   -2.0355 C.ar      1 RES1    0.0000
     29 H12        8.9649    8.5241   -2.8458 H         1 RES1    0.0000
     30 C18        7.9304    7.2963   -1.5838 C.ar      1 RES1    0.0000
     31 C19        6.7171    7.1847   -2.2919 C.ar      1 RES1    0.0000
     32 H13        6.6166    7.6342   -3.1006 H         1 RES1    0.0000
     33 C20        5.6859    6.4328   -1.8154 C.ar      1 RES1    0.0000
     34 H14        4.8903    6.3900   -2.2977 H         1 RES1    0.0000
     35 C21        4.6868    4.8672   -0.0959 C.2       1 RES1    0.0000
     36 C22        3.4249    5.3472    0.0358 C.2       1 RES1    0.0000
     37 C23        3.0945    6.7945   -0.0895 C.ar      1 RES1    0.0000
     38 C24        3.7100    7.7405    0.7099 C.ar      1 RES1    0.0000
     39 H15        4.3795    7.4735    1.3002 H         1 RES1    0.0000
     40 C25        3.3536    9.0663    0.6492 C.ar      1 RES1    0.0000
     41 H16        3.7697    9.6818    1.2095 H         1 RES1    0.0000
     42 C26        2.4023    9.4890   -0.2160 C.ar      1 RES1    0.0000
     43 H17        2.1753   10.3904   -0.2611 H         1 RES1    0.0000
     44 C27        1.7777    8.5780   -1.0241 C.ar      1 RES1    0.0000
     45 H18        1.1289    8.8619   -1.6254 H         1 RES1    0.0000
     46 C28        2.1086    7.2399   -0.9507 C.ar      1 RES1    0.0000
     47 H19        1.6603    6.6289   -1.4891 H         1 RES1    0.0000
     48 C29        2.2577    4.4742    0.3419 C.ar      1 RES1    0.0000
     49 C30        1.4733    4.6992    1.4567 C.ar      1 RES1    0.0000
     50 H20        1.6850    5.3971    2.0337 H         1 RES1    0.0000
     51 C31        0.3741    3.8966    1.7241 C.ar      1 RES1    0.0000
     52 H21       -0.1318    4.0457    2.4912 H         1 RES1    0.0000
     53 C32        0.0288    2.8946    0.8756 C.ar      1 RES1    0.0000
     54 H22       -0.7169    2.3648    1.0518 H         1 RES1    0.0000
     55 C33        0.7807    2.6713   -0.2328 C.ar      1 RES1    0.0000
     56 H23        0.5479    1.9858   -0.8150 H         1 RES1    0.0000
     57 C34        1.8873    3.4529   -0.5054 C.ar      1 RES1    0.0000
     58 H24        2.3895    3.2877   -1.2713 H         1 RES1    0.0000
@<TRIPOS>BOND
     1    1    2 ar
     2    2    3 1
     3    4    2 ar
     4    5    4 ar
     5    6    5 1
     6    7    5 ar
     7    8    7 1
     8    9    7 ar
     9   10    9 1
    10   11    9 ar
    11   12   11 1
    12   13    4 ar
    13   14   13 ar
    14   15   14 1
    15   16    1 ar
    16   17   16 1
    17   18   19 ar
    18   19   20 1
    19   21   19 ar
    20   22   21 ar
    21   23   22 1
    22   24   22 ar
    23   25   24 1
    24   26   24 ar
    25   27   26 1
    26   28   26 ar
    27   29   28 1
    28   30   21 ar
    29   31   30 ar
    30   32   31 1
    31   33   18 ar
    32   34   33 1
    33   35    1 1
    34   36   35 2
    35   37   36 1
    36   38   37 ar
    37   39   38 1
    38   40   38 ar
    39   41   40 1
    40   42   40 ar
    41   43   42 1
    42   44   42 ar
    43   45   44 1
    44   46   37 ar
    45   47   46 1
    46   48   36 1
    47   49   48 ar
    48   50   49 1
    49   51   49 ar
    50   52   51 1
    51   53   51 ar
    52   54   53 1
    53   55   53 ar
    54   56   55 1
    55   57   48 ar
    56   58   57 1
    57   11   13 ar
    58   14   16 ar
    59   18   35 1
    60   28   30 ar
    61   31   33 ar
    62   44   46 ar
    63   55   57 ar
@<TRIPOS>SUBSTRUCTURE
     1 RES1 1

@<TRIPOS>CRYSIN
  41.1990   41.1990    5.7760  90.0000  90.0000  90.0000  88 1

