# MOL2 file generated by ConQuest
# Please check atom types

@<TRIPOS>MOLECULE
QOQTEV
    38    41     1
SMALL
NO_CHARGES
****
Generated from CSD

@<TRIPOS>ATOM
      1 C1         5.8821    2.5086    3.3458 C.ar      1 RES1    0.0000
      2 H1         6.3180    3.2492    3.7498 H         1 RES1    0.0000
      3 C2         4.7742    2.7072    2.4976 C.ar      1 RES1    0.0000
      4 H2         4.4742    3.5953    2.3436 H         1 RES1    0.0000
      5 C3         4.1089    1.6756    1.8846 C.ar      1 RES1    0.0000
      6 H3         3.3823    1.8576    1.3020 H         1 RES1    0.0000
      7 C4         4.5129    0.3296    2.1249 C.ar      1 RES1    0.0000
      8 C5         3.9436   -0.8509    1.6011 C.ar      1 RES1    0.0000
      9 H4         3.1970   -0.7985    1.0156 H         1 RES1    0.0000
     10 C6         4.4649   -2.0700    1.9337 C.ar      1 RES1    0.0000
     11 H5         4.0836   -2.8506    1.5490 H         1 RES1    0.0000
     12 C7         5.5488   -2.2121    2.8294 C.ar      1 RES1    0.0000
     13 H6         5.8781   -3.0740    3.0593 H         1 RES1    0.0000
     14 C8         6.1167   -1.0881    3.3584 C.ar      1 RES1    0.0000
     15 C9         7.1660   -0.8757    4.4432 C.3       1 RES1    0.0000
     16 C10        6.3980   -1.0550    5.7868 C.3       1 RES1    0.0000
     17 H7         5.5061   -0.6344    5.7020 H         1 RES1    0.0000
     18 H8         6.2607   -2.0218    5.9475 H         1 RES1    0.0000
     19 C11        7.1033   -0.4592    6.9847 C.3       1 RES1    0.0000
     20 H9         8.0045   -0.8578    7.0821 H         1 RES1    0.0000
     21 H10        6.5887   -0.6454    7.8098 H         1 RES1    0.0000
     22 C12        7.2153    1.0343    6.7697 C.3       1 RES1    0.0000
     23 H11        7.6392    1.4522    7.5613 H         1 RES1    0.0000
     24 H12        6.3114    1.4232    6.6640 H         1 RES1    0.0000
     25 C13        8.0485    1.3377    5.5257 C.3       1 RES1    0.0000
     26 H13        8.0499    2.3155    5.3754 H         1 RES1    0.0000
     27 H14        8.9844    1.0591    5.6953 H         1 RES1    0.0000
     28 C14        7.5579    0.6496    4.2549 C.3       1 RES1    0.0000
     29 C15        6.3220    1.2260    3.5809 C.ar      1 RES1    0.0000
     30 C16        5.6048    0.1572    2.9916 C.ar      1 RES1    0.0000
     31 C17        8.3232   -1.8590    4.3948 C.3       1 RES1    0.0000
     32 H15        7.9859   -2.7679    4.5339 H         1 RES1    0.0000
     33 H16        8.9684   -1.6397    5.0986 H         1 RES1    0.0000
     34 H17        8.7631   -1.8039    3.5199 H         1 RES1    0.0000
     35 C18        8.6965    0.7875    3.2007 C.3       1 RES1    0.0000
     36 H18        8.4752    0.2524    2.4098 H         1 RES1    0.0000
     37 H19        9.5390    0.4675    3.5853 H         1 RES1    0.0000
     38 H20        8.7911    1.7280    2.9433 H         1 RES1    0.0000
@<TRIPOS>BOND
     1    1    2 1
     2    3    1 ar
     3    4    3 1
     4    5    3 ar
     5    6    5 1
     6    7    5 ar
     7    8    7 ar
     8    9    8 1
     9   10    8 ar
    10   11   10 1
    11   12   10 ar
    12   13   12 1
    13   14   12 ar
    14   15   14 1
    15   16   15 1
    16   17   16 1
    17   18   16 1
    18   19   16 1
    19   20   19 1
    20   21   19 1
    21   22   19 1
    22   23   22 1
    23   24   22 1
    24   25   22 1
    25   26   25 1
    26   27   25 1
    27   28   15 1
    28   29    1 ar
    29   30    7 ar
    30   31   15 1
    31   32   31 1
    32   33   31 1
    33   34   31 1
    34   35   28 1
    35   36   35 1
    36   37   35 1
    37   38   35 1
    38   14   30 ar
    39   25   28 1
    40   28   29 1
    41   29   30 ar
@<TRIPOS>SUBSTRUCTURE
     1 RES1 1

@<TRIPOS>CRYSIN
  13.3320   13.7910    7.4400  90.0000  90.0000  90.0000  19 1

