# MOL2 file generated by ConQuest
# Please check atom types

@<TRIPOS>MOLECULE
QQQCIG27
    70    77     1
SMALL
NO_CHARGES
****
Generated from CSD

@<TRIPOS>ATOM
      1 C1         1.0979    1.2858    9.2062 C.ar      1 RES1    0.0000
      2 C2         0.2783    0.1797    9.3983 C.ar      1 RES1    0.0000
      3 H1        -0.2442    0.1154   10.1648 H         1 RES1    0.0000
      4 C3         0.2402   -0.8312    8.4441 C.ar      1 RES1    0.0000
      5 H2        -0.3076   -1.5707    8.5726 H         1 RES1    0.0000
      6 C4         1.0212   -0.7344    7.2988 C.ar      1 RES1    0.0000
      7 H3         0.9954   -1.4104    6.6608 H         1 RES1    0.0000
      8 C5         1.8408    0.3717    7.1067 C.ar      1 RES1    0.0000
      9 H4         2.3627    0.4360    6.3402 H         1 RES1    0.0000
     10 C6         1.8783    1.3818    8.0609 C.ar      1 RES1    0.0000
     11 H5         2.4267    2.1221    7.9324 H         1 RES1    0.0000
     12 C7        -0.8610    2.9237    7.9972 C.ar      1 RES1    0.0000
     13 C8        -1.5713    1.7803    7.6513 C.ar      1 RES1    0.0000
     14 H6        -2.0440    1.3123    8.3003 H         1 RES1    0.0000
     15 C9        -1.5745    1.3365    6.3336 C.ar      1 RES1    0.0000
     16 H7        -2.0499    0.5708    6.1019 H         1 RES1    0.0000
     17 C10       -0.8683    2.0360    5.3629 C.ar      1 RES1    0.0000
     18 H8        -0.8707    1.7392    4.4812 H         1 RES1    0.0000
     19 C11       -0.1579    3.1794    5.7088 C.ar      1 RES1    0.0000
     20 H9         0.3151    3.6474    5.0588 H         1 RES1    0.0000
     21 C12       -0.1544    3.6233    7.0254 C.ar      1 RES1    0.0000
     22 H10        0.3209    4.3890    7.2571 H         1 RES1    0.0000
     23 C13        1.1529    2.4163   10.2164 C.ar      1 RES1    0.0000
     24 C14        0.0901    3.3281   10.3767 C.ar      1 RES1    0.0000
     25 C15       -0.9367    3.4786    9.4093 C.ar      1 RES1    0.0000
     26 C16       -2.0325    4.3016    9.6520 C.ar      1 RES1    0.0000
     27 C17       -3.0836    4.4757    8.6780 C.ar      1 RES1    0.0000
     28 H11       -3.0374    4.0066    7.8753 H         1 RES1    0.0000
     29 C18       -4.1123    5.2755    8.8987 C.ar      1 RES1    0.0000
     30 H12       -4.7927    5.3383    8.2673 H         1 RES1    0.0000
     31 C19       -4.1879    6.0507   10.0901 C.ar      1 RES1    0.0000
     32 H13       -4.9210    6.6003   10.2460 H         1 RES1    0.0000
     33 C20       -3.1955    5.9803   10.9861 C.ar      1 RES1    0.0000
     34 H14       -3.2337    6.5355   11.7295 H         1 RES1    0.0000
     35 C21       -2.0706    5.0844   10.8631 C.ar      1 RES1    0.0000
     36 C1A       -0.9566    6.2163   12.7551 C.ar      1 RES1    0.0000
     37 C2A       -0.1371    7.3224   12.5629 C.ar      1 RES1    0.0000
     38 H1A        0.3855    7.3867   11.7965 H         1 RES1    0.0000
     39 C3A       -0.0989    8.3333   13.5171 C.ar      1 RES1    0.0000
     40 H2A        0.4489    9.0729   13.3887 H         1 RES1    0.0000
     41 C4A       -0.8799    8.2366   14.6624 C.ar      1 RES1    0.0000
     42 H3A       -0.8541    8.9126   15.3004 H         1 RES1    0.0000
     43 C5A       -1.6995    7.1304   14.8546 C.ar      1 RES1    0.0000
     44 H4A       -2.2214    7.0661   15.6210 H         1 RES1    0.0000
     45 C6A       -1.7370    6.1203   13.9004 C.ar      1 RES1    0.0000
     46 H5A       -2.2854    5.3800   14.0288 H         1 RES1    0.0000
     47 C7A        1.0022    4.5784   13.9641 C.ar      1 RES1    0.0000
     48 C8A        1.7126    5.7218   14.3099 C.ar      1 RES1    0.0000
     49 H6A        2.1853    6.1898   13.6610 H         1 RES1    0.0000
     50 C9A        1.7158    6.1656   15.6276 C.ar      1 RES1    0.0000
     51 H7A        2.1911    6.9313   15.8593 H         1 RES1    0.0000
     52 C10A       1.0095    5.4661   16.5983 C.ar      1 RES1    0.0000
     53 H8A        1.0120    5.7630   17.4801 H         1 RES1    0.0000
     54 C11A       0.2991    4.3227   16.2524 C.ar      1 RES1    0.0000
     55 H9A       -0.1738    3.8547   16.9025 H         1 RES1    0.0000
     56 C12A       0.2957    3.8788   14.9358 C.ar      1 RES1    0.0000
     57 H10A      -0.1797    3.1132   14.7042 H         1 RES1    0.0000
     58 C13A      -1.0117    5.0858   11.7449 C.ar      1 RES1    0.0000
     59 C14A       0.0512    4.1740   11.5846 C.ar      1 RES1    0.0000
     60 C15A       1.0780    4.0236   12.5520 C.ar      1 RES1    0.0000
     61 C16A       2.1738    3.2006   12.3093 C.ar      1 RES1    0.0000
     62 C17A       3.2249    3.0264   13.2833 C.ar      1 RES1    0.0000
     63 H11A       3.1787    3.4955   14.0859 H         1 RES1    0.0000
     64 C18A       4.2536    2.2267   13.0625 C.ar      1 RES1    0.0000
     65 H12A       4.9339    2.1639   13.6939 H         1 RES1    0.0000
     66 C19A       4.3291    1.4514   11.8712 C.ar      1 RES1    0.0000
     67 H13A       5.0622    0.9019   11.7152 H         1 RES1    0.0000
     68 C20A       3.3367    1.5218   10.9751 C.ar      1 RES1    0.0000
     69 H14A       3.3750    0.9666   10.2317 H         1 RES1    0.0000
     70 C21A       2.2119    2.4178   11.0981 C.ar      1 RES1    0.0000
@<TRIPOS>BOND
     1    1    2 ar
     2    2    3 1
     3    4    2 ar
     4    5    4 1
     5    6    4 ar
     6    7    6 1
     7    8    6 ar
     8    9    8 1
     9   10    1 ar
    10   11   10 1
    11   12   13 ar
    12   13   14 1
    13   15   13 ar
    14   16   15 1
    15   17   15 ar
    16   18   17 1
    17   19   17 ar
    18   20   19 1
    19   21   12 ar
    20   22   21 1
    21   23    1 1
    22   24   23 ar
    23   25   12 1
    24   26   25 ar
    25   27   26 ar
    26   28   27 1
    27   29   27 ar
    28   30   29 1
    29   31   29 ar
    30   32   31 1
    31   33   31 ar
    32   34   33 1
    33   35   26 ar
    34   36   37 ar
    35   37   38 1
    36   39   37 ar
    37   40   39 1
    38   41   39 ar
    39   42   41 1
    40   43   41 ar
    41   44   43 1
    42   45   36 ar
    43   46   45 1
    44   47   48 ar
    45   48   49 1
    46   50   48 ar
    47   51   50 1
    48   52   50 ar
    49   53   52 1
    50   54   52 ar
    51   55   54 1
    52   56   47 ar
    53   57   56 1
    54   58   35 ar
    55   59   24 ar
    56   60   47 1
    57   61   60 ar
    58   62   61 ar
    59   63   62 1
    60   64   62 ar
    61   65   64 1
    62   66   64 ar
    63   67   66 1
    64   68   66 ar
    65   69   68 1
    66   70   23 ar
    67    8   10 ar
    68   19   21 ar
    69   24   25 ar
    70   33   35 ar
    71   36   58 1
    72   43   45 ar
    73   54   56 ar
    74   58   59 ar
    75   59   60 ar
    76   61   70 ar
    77   68   70 ar
@<TRIPOS>SUBSTRUCTURE
     1 RES1 1

@<TRIPOS>CRYSIN
   6.6779    7.9256   11.3415  89.3670 104.4600  96.3210   2 1

