# MOL2 file generated by ConQuest
# Please check atom types

@<TRIPOS>MOLECULE
QQQCIG13
    70    77     1
SMALL
NO_CHARGES
****
Generated from CSD

@<TRIPOS>ATOM
      1 C1         1.4939   12.9505    2.8294 C.ar      1 RES1    0.0000
      2 H1         1.9625   13.3782    2.1229 H         1 RES1    0.0000
      3 C2         1.7913   13.2707    4.1475 C.ar      1 RES1    0.0000
      4 H2         2.4822   13.8945    4.3365 H         1 RES1    0.0000
      5 C3         1.0880   12.6868    5.1887 C.ar      1 RES1    0.0000
      6 H3         1.2863   12.9185    6.0889 H         1 RES1    0.0000
      7 C4         0.0976   11.7668    4.9101 C.ar      1 RES1    0.0000
      8 H4        -0.3915   11.3673    5.6200 H         1 RES1    0.0000
      9 C5        -0.1844   11.4242    3.5940 C.ar      1 RES1    0.0000
     10 H5        -0.8624   10.7841    3.4111 H         1 RES1    0.0000
     11 C6         0.5146   12.0071    2.5380 C.ar      1 RES1    0.0000
     12 C7         0.0734   11.6272    1.1504 C.ar      1 RES1    0.0000
     13 C8         0.4013   10.3697    0.5612 C.ar      1 RES1    0.0000
     14 C9         1.4978    9.5841    1.0236 C.ar      1 RES1    0.0000
     15 C10        2.5572   10.1433    1.9191 C.ar      1 RES1    0.0000
     16 C11        3.5252   10.9779    1.3772 C.ar      1 RES1    0.0000
     17 H6         3.4837   11.2104    0.4565 H         1 RES1    0.0000
     18 C12        4.5551   11.4781    2.1658 C.ar      1 RES1    0.0000
     19 H7         5.2089   12.0538    1.7868 H         1 RES1    0.0000
     20 C13        4.6262   11.1356    3.5059 C.ar      1 RES1    0.0000
     21 H8         5.3231   11.4828    4.0489 H         1 RES1    0.0000
     22 C14        3.6789   10.2862    4.0514 C.ar      1 RES1    0.0000
     23 H9         3.7334   10.0450    4.9681 H         1 RES1    0.0000
     24 C15        2.6517    9.7855    3.2680 C.ar      1 RES1    0.0000
     25 H10        2.0098    9.1976    3.6487 H         1 RES1    0.0000
     26 C16        1.7004    8.2881    0.5281 C.ar      1 RES1    0.0000
     27 C17        2.7552    7.4458    1.0197 C.ar      1 RES1    0.0000
     28 H11        3.3402    7.7780    1.6899 H         1 RES1    0.0000
     29 C18        2.9357    6.1850    0.5475 C.ar      1 RES1    0.0000
     30 H12        3.6227    5.6386    0.9114 H         1 RES1    0.0000
     31 C19        2.1053    5.6779   -0.4859 C.ar      1 RES1    0.0000
     32 H13        2.2212    4.7861   -0.7926 H         1 RES1    0.0000
     33 C20        1.1451    6.4657   -1.0361 C.ar      1 RES1    0.0000
     34 H14        0.6314    6.1307   -1.7618 H         1 RES1    0.0000
     35 C21        0.8863    7.7914   -0.5486 C.ar      1 RES1    0.0000
     36 C1B       -1.4939    7.2995   -2.8294 C.ar      1 RES1    0.0000
     37 H1B       -1.9625    6.8718   -2.1229 H         1 RES1    0.0000
     38 C2B       -1.7913    6.9793   -4.1475 C.ar      1 RES1    0.0000
     39 H2B       -2.4822    6.3555   -4.3365 H         1 RES1    0.0000
     40 C3B       -1.0880    7.5632   -5.1887 C.ar      1 RES1    0.0000
     41 H3B       -1.2863    7.3315   -6.0889 H         1 RES1    0.0000
     42 C4B       -0.0976    8.4832   -4.9101 C.ar      1 RES1    0.0000
     43 H4B        0.3915    8.8827   -5.6200 H         1 RES1    0.0000
     44 C5B        0.1844    8.8258   -3.5940 C.ar      1 RES1    0.0000
     45 H5B        0.8624    9.4659   -3.4111 H         1 RES1    0.0000
     46 C6B       -0.5146    8.2429   -2.5380 C.ar      1 RES1    0.0000
     47 C7B       -0.0734    8.6228   -1.1504 C.ar      1 RES1    0.0000
     48 C8B       -0.4013    9.8803   -0.5612 C.ar      1 RES1    0.0000
     49 C9B       -1.4978   10.6659   -1.0236 C.ar      1 RES1    0.0000
     50 C10B      -2.5572   10.1067   -1.9191 C.ar      1 RES1    0.0000
     51 C11B      -3.5252    9.2721   -1.3772 C.ar      1 RES1    0.0000
     52 H6B       -3.4837    9.0396   -0.4565 H         1 RES1    0.0000
     53 C12B      -4.5551    8.7719   -2.1658 C.ar      1 RES1    0.0000
     54 H7B       -5.2089    8.1962   -1.7868 H         1 RES1    0.0000
     55 C13B      -4.6262    9.1144   -3.5059 C.ar      1 RES1    0.0000
     56 H8B       -5.3231    8.7672   -4.0489 H         1 RES1    0.0000
     57 C14B      -3.6789    9.9638   -4.0514 C.ar      1 RES1    0.0000
     58 H9B       -3.7334   10.2050   -4.9681 H         1 RES1    0.0000
     59 C15B      -2.6517   10.4645   -3.2680 C.ar      1 RES1    0.0000
     60 H10B      -2.0098   11.0524   -3.6487 H         1 RES1    0.0000
     61 C16B      -1.7004   11.9619   -0.5281 C.ar      1 RES1    0.0000
     62 C17B      -2.7552   12.8042   -1.0197 C.ar      1 RES1    0.0000
     63 H11B      -3.3402   12.4720   -1.6899 H         1 RES1    0.0000
     64 C18B      -2.9357   14.0650   -0.5475 C.ar      1 RES1    0.0000
     65 H12B      -3.6227   14.6114   -0.9114 H         1 RES1    0.0000
     66 C19B      -2.1053   14.5721    0.4859 C.ar      1 RES1    0.0000
     67 H13B      -2.2212   15.4639    0.7926 H         1 RES1    0.0000
     68 C20B      -1.1451   13.7843    1.0361 C.ar      1 RES1    0.0000
     69 H14B      -0.6314   14.1193    1.7618 H         1 RES1    0.0000
     70 C21B      -0.8863   12.4586    0.5486 C.ar      1 RES1    0.0000
@<TRIPOS>BOND
     1    1    2 1
     2    3    1 ar
     3    4    3 1
     4    5    3 ar
     5    6    5 1
     6    7    5 ar
     7    8    7 1
     8    9    7 ar
     9   10    9 1
    10   11    1 ar
    11   12   11 1
    12   13   12 ar
    13   14   13 ar
    14   15   14 1
    15   16   15 ar
    16   17   16 1
    17   18   16 ar
    18   19   18 1
    19   20   18 ar
    20   21   20 1
    21   22   20 ar
    22   23   22 1
    23   24   15 ar
    24   25   24 1
    25   26   14 ar
    26   27   26 ar
    27   28   27 1
    28   29   27 ar
    29   30   29 1
    30   31   29 ar
    31   32   31 1
    32   33   31 ar
    33   34   33 1
    34   35   26 ar
    35   36   37 1
    36   38   36 ar
    37   39   38 1
    38   40   38 ar
    39   41   40 1
    40   42   40 ar
    41   43   42 1
    42   44   42 ar
    43   45   44 1
    44   46   36 ar
    45   47   35 ar
    46   48   13 ar
    47   49   48 ar
    48   50   49 1
    49   51   50 ar
    50   52   51 1
    51   53   51 ar
    52   54   53 1
    53   55   53 ar
    54   56   55 1
    55   57   55 ar
    56   58   57 1
    57   59   50 ar
    58   60   59 1
    59   61   49 ar
    60   62   61 ar
    61   63   62 1
    62   64   62 ar
    63   65   64 1
    64   66   64 ar
    65   67   66 1
    66   68   66 ar
    67   69   68 1
    68   70   12 ar
    69    9   11 ar
    70   22   24 ar
    71   33   35 ar
    72   44   46 ar
    73   46   47 1
    74   47   48 ar
    75   57   59 ar
    76   61   70 ar
    77   68   70 ar
@<TRIPOS>SUBSTRUCTURE
     1 RES1 1

@<TRIPOS>CRYSIN
   8.7397   10.1250   15.6350  90.0000  90.9800  90.0000  14 1

