# MOL2 file generated by ConQuest
# Please check atom types

@<TRIPOS>MOLECULE
QQQCIG23
    70    77     1
SMALL
NO_CHARGES
****
Generated from CSD

@<TRIPOS>ATOM
      1 C1         0.7332    0.0000    0.0000 C.ar      1 RES1    0.0000
      2 C2         1.4278   -1.0362    0.6937 C.ar      1 RES1    0.0000
      3 C3         0.7203   -2.1227    1.2398 C.ar      1 RES1    0.0000
      4 C4         1.3985   -3.2085    1.8970 C.ar      1 RES1    0.0000
      5 C5         0.7118   -4.2330    2.4855 C.ar      1 RES1    0.0000
      6 C6         2.8857   -0.9668    1.0295 C.ar      1 RES1    0.0000
      7 C7         3.8316   -1.7861    0.4017 C.ar      1 RES1    0.0000
      8 C8         5.1542   -1.8108    0.8414 C.ar      1 RES1    0.0000
      9 C9         5.5600   -1.0043    1.9082 C.ar      1 RES1    0.0000
     10 C10        4.6265   -0.1796    2.5395 C.ar      1 RES1    0.0000
     11 C11        3.2984   -0.1705    2.1051 C.ar      1 RES1    0.0000
     12 H1         2.4818   -3.2161    1.9315 H         1 RES1    0.0000
     13 H2         1.2467   -5.0463    2.9704 H         1 RES1    0.0000
     14 H3         3.5504   -2.4195   -0.4347 H         1 RES1    0.0000
     15 H4         5.8619   -2.4685    0.3466 H         1 RES1    0.0000
     16 H5         6.5975   -1.0304    2.2275 H         1 RES1    0.0000
     17 H6         4.9064    0.4596    3.3721 H         1 RES1    0.0000
     18 H7         2.5435    0.4488    2.5753 H         1 RES1    0.0000
     19 C1J       -0.7332    0.0000    0.0000 C.ar      1 RES1    0.0000
     20 C2J       -1.4278   -1.0362    0.6937 C.ar      1 RES1    0.0000
     21 C3J       -0.7203   -2.1227    1.2398 C.ar      1 RES1    0.0000
     22 C4J       -1.3985   -3.2085    1.8970 C.ar      1 RES1    0.0000
     23 C5J       -0.7118   -4.2330    2.4855 C.ar      1 RES1    0.0000
     24 C6J       -2.8857   -0.9668    1.0295 C.ar      1 RES1    0.0000
     25 C7J       -3.8316   -1.7861    0.4017 C.ar      1 RES1    0.0000
     26 C8J       -5.1542   -1.8108    0.8414 C.ar      1 RES1    0.0000
     27 C9J       -5.5600   -1.0043    1.9082 C.ar      1 RES1    0.0000
     28 C10J      -4.6265   -0.1796    2.5395 C.ar      1 RES1    0.0000
     29 C11J      -3.2984   -0.1705    2.1051 C.ar      1 RES1    0.0000
     30 H1J       -2.4818   -3.2161    1.9315 H         1 RES1    0.0000
     31 H2J       -1.2467   -5.0463    2.9704 H         1 RES1    0.0000
     32 H3J       -3.5504   -2.4195   -0.4347 H         1 RES1    0.0000
     33 H4J       -5.8619   -2.4685    0.3466 H         1 RES1    0.0000
     34 H5J       -6.5975   -1.0304    2.2275 H         1 RES1    0.0000
     35 H6J       -4.9064    0.4596    3.3721 H         1 RES1    0.0000
     36 H7J       -2.5435    0.4488    2.5753 H         1 RES1    0.0000
     37 C2H       -1.4278    1.0362   -0.6937 C.ar      1 RES1    0.0000
     38 C3H       -0.7203    2.1227   -1.2398 C.ar      1 RES1    0.0000
     39 C4H       -1.3985    3.2085   -1.8970 C.ar      1 RES1    0.0000
     40 C5H       -0.7118    4.2330   -2.4855 C.ar      1 RES1    0.0000
     41 C6H       -2.8857    0.9668   -1.0295 C.ar      1 RES1    0.0000
     42 C7H       -3.8316    1.7861   -0.4017 C.ar      1 RES1    0.0000
     43 C8H       -5.1542    1.8108   -0.8414 C.ar      1 RES1    0.0000
     44 C9H       -5.5600    1.0043   -1.9082 C.ar      1 RES1    0.0000
     45 C10H      -4.6265    0.1796   -2.5395 C.ar      1 RES1    0.0000
     46 C11H      -3.2984    0.1705   -2.1051 C.ar      1 RES1    0.0000
     47 H1H       -2.4818    3.2161   -1.9315 H         1 RES1    0.0000
     48 H2H       -1.2467    5.0463   -2.9704 H         1 RES1    0.0000
     49 H3H       -3.5504    2.4195    0.4347 H         1 RES1    0.0000
     50 H4H       -5.8619    2.4685   -0.3466 H         1 RES1    0.0000
     51 H5H       -6.5975    1.0304   -2.2275 H         1 RES1    0.0000
     52 H6H       -4.9064   -0.4596   -3.3721 H         1 RES1    0.0000
     53 H7H       -2.5435   -0.4488   -2.5753 H         1 RES1    0.0000
     54 C2B        1.4278    1.0362   -0.6937 C.ar      1 RES1    0.0000
     55 C3B        0.7203    2.1227   -1.2398 C.ar      1 RES1    0.0000
     56 C4B        1.3985    3.2085   -1.8970 C.ar      1 RES1    0.0000
     57 C5B        0.7118    4.2330   -2.4855 C.ar      1 RES1    0.0000
     58 C6B        2.8857    0.9668   -1.0295 C.ar      1 RES1    0.0000
     59 C7B        3.8316    1.7861   -0.4017 C.ar      1 RES1    0.0000
     60 C8B        5.1542    1.8108   -0.8414 C.ar      1 RES1    0.0000
     61 C9B        5.5600    1.0043   -1.9082 C.ar      1 RES1    0.0000
     62 C10B       4.6265    0.1796   -2.5395 C.ar      1 RES1    0.0000
     63 C11B       3.2984    0.1705   -2.1051 C.ar      1 RES1    0.0000
     64 H1B        2.4818    3.2161   -1.9315 H         1 RES1    0.0000
     65 H2B        1.2467    5.0463   -2.9704 H         1 RES1    0.0000
     66 H3B        3.5504    2.4195    0.4347 H         1 RES1    0.0000
     67 H4B        5.8619    2.4685   -0.3466 H         1 RES1    0.0000
     68 H5B        6.5975    1.0304   -2.2275 H         1 RES1    0.0000
     69 H6B        4.9064   -0.4596   -3.3721 H         1 RES1    0.0000
     70 H7B        2.5435   -0.4488   -2.5753 H         1 RES1    0.0000
@<TRIPOS>BOND
     1    1    2 ar
     2    2    3 ar
     3    3    4 ar
     4    4    5 ar
     5    5   13 1
     6    6    2 1
     7    7    6 ar
     8    8    7 ar
     9    9    8 ar
    10   10    9 ar
    11   11    6 ar
    12   12    4 1
    13   14    7 1
    14   15    8 1
    15   16    9 1
    16   17   10 1
    17   18   11 1
    18   19    1 ar
    19   20   19 ar
    20   21    3 ar
    21   22   21 ar
    22   23    5 ar
    23   24   20 1
    24   25   24 ar
    25   26   25 ar
    26   27   26 ar
    27   28   27 ar
    28   29   24 ar
    29   30   22 1
    30   31   23 1
    31   32   25 1
    32   33   26 1
    33   34   27 1
    34   35   28 1
    35   36   29 1
    36   37   19 ar
    37   38   37 ar
    38   39   38 ar
    39   40   39 ar
    40   41   37 1
    41   42   41 ar
    42   43   42 ar
    43   44   43 ar
    44   45   44 ar
    45   46   41 ar
    46   47   39 1
    47   48   40 1
    48   49   42 1
    49   50   43 1
    50   51   44 1
    51   52   45 1
    52   53   46 1
    53   54    1 ar
    54   55   38 ar
    55   56   55 ar
    56   57   40 ar
    57   58   54 1
    58   59   58 ar
    59   60   59 ar
    60   61   60 ar
    61   62   61 ar
    62   63   58 ar
    63   64   56 1
    64   65   57 1
    65   66   59 1
    66   67   60 1
    67   68   61 1
    68   69   62 1
    69   70   63 1
    70   10   11 ar
    71   20   21 ar
    72   22   23 ar
    73   28   29 ar
    74   45   46 ar
    75   54   55 ar
    76   56   57 ar
    77   62   63 ar
@<TRIPOS>SUBSTRUCTURE
     1 RES1 1

@<TRIPOS>CRYSIN
  26.7965    7.1599   14.1519  90.0000  90.0000  90.0000  64 1

