# MOL2 file generated by ConQuest
# Please check atom types

@<TRIPOS>MOLECULE
QQQCIG25
    70    77     1
SMALL
NO_CHARGES
****
Generated from CSD

@<TRIPOS>ATOM
      1 C1         1.0203    1.0116    9.4062 C.ar      1 RES1    0.0000
      2 C2         0.2497   -0.1253    9.6165 C.ar      1 RES1    0.0000
      3 H1        -0.2705   -0.1992   10.3834 H         1 RES1    0.0000
      4 C3         0.2574   -1.1536    8.6809 C.ar      1 RES1    0.0000
      5 H2        -0.2582   -1.9143    8.8215 H         1 RES1    0.0000
      6 C4         1.0358   -1.0434    7.5340 C.ar      1 RES1    0.0000
      7 H3         1.0405   -1.7310    6.9076 H         1 RES1    0.0000
      8 C5         1.8065    0.0935    7.3237 C.ar      1 RES1    0.0000
      9 H4         2.3270    0.1675    6.5557 H         1 RES1    0.0000
     10 C6         1.7988    1.1219    8.2593 C.ar      1 RES1    0.0000
     11 H5         2.3144    1.8826    8.1187 H         1 RES1    0.0000
     12 C7        -0.9358    2.7212    8.2165 C.ar      1 RES1    0.0000
     13 C8        -1.6393    1.5827    7.8410 C.ar      1 RES1    0.0000
     14 H6        -2.1099    1.0950    8.4785 H         1 RES1    0.0000
     15 C9        -1.6407    1.1730    6.5130 C.ar      1 RES1    0.0000
     16 H7        -2.1115    0.4115    6.2622 H         1 RES1    0.0000
     17 C10       -0.9386    1.9018    5.5605 C.ar      1 RES1    0.0000
     18 H8        -0.9391    1.6273    4.6711 H         1 RES1    0.0000
     19 C11       -0.2351    3.0403    5.9361 C.ar      1 RES1    0.0000
     20 H9         0.2356    3.5272    5.2985 H         1 RES1    0.0000
     21 C12       -0.2337    3.4500    7.2641 C.ar      1 RES1    0.0000
     22 H10        0.2372    4.2115    7.5149 H         1 RES1    0.0000
     23 C13        1.0393    2.0916   10.4689 C.ar      1 RES1    0.0000
     24 C14       -0.0077    3.0682   10.6094 C.ar      1 RES1    0.0000
     25 C15       -1.0175    3.2538    9.6334 C.ar      1 RES1    0.0000
     26 C16       -2.1017    4.1010    9.8796 C.ar      1 RES1    0.0000
     27 C17       -3.1515    4.2743    8.9317 C.ar      1 RES1    0.0000
     28 H11       -3.1286    3.7844    8.1412 H         1 RES1    0.0000
     29 C18       -4.1753    5.1227    9.1420 C.ar      1 RES1    0.0000
     30 H12       -4.8368    5.2232    8.4954 H         1 RES1    0.0000
     31 C19       -4.2442    5.8607   10.3485 C.ar      1 RES1    0.0000
     32 H13       -4.9619    6.4325   10.5015 H         1 RES1    0.0000
     33 C20       -3.2719    5.7379   11.2762 C.ar      1 RES1    0.0000
     34 H14       -3.3257    6.2517   12.0499 H         1 RES1    0.0000
     35 C21       -2.1606    4.8471   11.1166 C.ar      1 RES1    0.0000
     36 C1A       -1.0785    5.8779   13.0833 C.ar      1 RES1    0.0000
     37 C2A       -0.3078    7.0148   12.8730 C.ar      1 RES1    0.0000
     38 H1A        0.2124    7.0887   12.1061 H         1 RES1    0.0000
     39 C3A       -0.3155    8.0432   13.8086 C.ar      1 RES1    0.0000
     40 H2A        0.2001    8.8038   13.6680 H         1 RES1    0.0000
     41 C4A       -1.0940    7.9329   14.9555 C.ar      1 RES1    0.0000
     42 H3A       -1.0987    8.6205   15.5818 H         1 RES1    0.0000
     43 C5A       -1.8646    6.7960   15.1658 C.ar      1 RES1    0.0000
     44 H4A       -2.3851    6.7220   15.9338 H         1 RES1    0.0000
     45 C6A       -1.8569    5.7676   14.2302 C.ar      1 RES1    0.0000
     46 H5A       -2.3725    5.0070   14.3708 H         1 RES1    0.0000
     47 C7A        0.8777    4.1683   14.2730 C.ar      1 RES1    0.0000
     48 C8A        1.5811    5.3068   14.6485 C.ar      1 RES1    0.0000
     49 H6A        2.0517    5.7945   14.0110 H         1 RES1    0.0000
     50 C9A        1.5825    5.7165   15.9765 C.ar      1 RES1    0.0000
     51 H7A        2.0534    6.4780   16.2273 H         1 RES1    0.0000
     52 C10A       0.8804    4.9877   16.9290 C.ar      1 RES1    0.0000
     53 H8A        0.8810    5.2622   17.8184 H         1 RES1    0.0000
     54 C11A       0.1770    3.8492   16.5534 C.ar      1 RES1    0.0000
     55 H9A       -0.2937    3.3623   17.1910 H         1 RES1    0.0000
     56 C12A       0.1756    3.4395   15.2254 C.ar      1 RES1    0.0000
     57 H10A      -0.2953    2.6780   14.9746 H         1 RES1    0.0000
     58 C13A      -1.0975    4.7979   12.0206 C.ar      1 RES1    0.0000
     59 C14A      -0.0505    3.8213   11.8801 C.ar      1 RES1    0.0000
     60 C15A       0.9594    3.6357   12.8561 C.ar      1 RES1    0.0000
     61 C16A       2.0436    2.7885   12.6099 C.ar      1 RES1    0.0000
     62 C17A       3.0934    2.6152   13.5578 C.ar      1 RES1    0.0000
     63 H11A       3.0704    3.1051   14.3483 H         1 RES1    0.0000
     64 C18A       4.1171    1.7668   13.3475 C.ar      1 RES1    0.0000
     65 H12A       4.7787    1.6663   13.9941 H         1 RES1    0.0000
     66 C19A       4.1860    1.0288   12.1410 C.ar      1 RES1    0.0000
     67 H13A       4.9038    0.4570   11.9880 H         1 RES1    0.0000
     68 C20A       3.2137    1.1516   11.2133 C.ar      1 RES1    0.0000
     69 H14A       3.2676    0.6378   10.4396 H         1 RES1    0.0000
     70 C21A       2.1025    2.0424   11.3729 C.ar      1 RES1    0.0000
@<TRIPOS>BOND
     1    1    2 ar
     2    2    3 1
     3    4    2 ar
     4    5    4 1
     5    6    4 ar
     6    7    6 1
     7    8    6 ar
     8    9    8 1
     9   10    1 ar
    10   11   10 1
    11   12   13 ar
    12   13   14 1
    13   15   13 ar
    14   16   15 1
    15   17   15 ar
    16   18   17 1
    17   19   17 ar
    18   20   19 1
    19   21   12 ar
    20   22   21 1
    21   23    1 1
    22   24   23 ar
    23   25   12 1
    24   26   25 ar
    25   27   26 ar
    26   28   27 1
    27   29   27 ar
    28   30   29 1
    29   31   29 ar
    30   32   31 1
    31   33   31 ar
    32   34   33 1
    33   35   26 ar
    34   36   37 ar
    35   37   38 1
    36   39   37 ar
    37   40   39 1
    38   41   39 ar
    39   42   41 1
    40   43   41 ar
    41   44   43 1
    42   45   36 ar
    43   46   45 1
    44   47   48 ar
    45   48   49 1
    46   50   48 ar
    47   51   50 1
    48   52   50 ar
    49   53   52 1
    50   54   52 ar
    51   55   54 1
    52   56   47 ar
    53   57   56 1
    54   58   35 ar
    55   59   24 ar
    56   60   47 1
    57   61   60 ar
    58   62   61 ar
    59   63   62 1
    60   64   62 ar
    61   65   64 1
    62   66   64 ar
    63   67   66 1
    64   68   66 ar
    65   69   68 1
    66   70   23 ar
    67    8   10 ar
    68   19   21 ar
    69   24   25 ar
    70   33   35 ar
    71   36   58 1
    72   43   45 ar
    73   54   56 ar
    74   58   59 ar
    75   59   60 ar
    76   61   70 ar
    77   68   70 ar
@<TRIPOS>SUBSTRUCTURE
     1 RES1 1

@<TRIPOS>CRYSIN
   6.8535    8.2642   11.6573  91.6140 104.9210  96.3110   2 1

