# MOL2 file generated by ConQuest
# Please check atom types

@<TRIPOS>MOLECULE
QQQCIG31
    70    77     1
SMALL
NO_CHARGES
****
Generated from CSD

@<TRIPOS>ATOM
      1 C1         0.9046    0.7918    9.6369 C.ar      1 RES1    0.0000
      2 C2         0.1532   -0.3573    9.8532 C.ar      1 RES1    0.0000
      3 H1        -0.3773   -0.4299   10.6135 H         1 RES1    0.0000
      4 C3         0.1954   -1.3986    8.9331 C.ar      1 RES1    0.0000
      5 H2        -0.3071   -2.1675    9.0779 H         1 RES1    0.0000
      6 C4         0.9882   -1.2903    7.7967 C.ar      1 RES1    0.0000
      7 H3         1.0163   -1.9864    7.1808 H         1 RES1    0.0000
      8 C5         1.7396   -0.1412    7.5804 C.ar      1 RES1    0.0000
      9 H4         2.2700   -0.0687    6.8205 H         1 RES1    0.0000
     10 C6         1.6974    0.9001    8.5005 C.ar      1 RES1    0.0000
     11 H5         2.1998    1.6689    8.3561 H         1 RES1    0.0000
     12 C7        -1.0322    2.5356    8.4721 C.ar      1 RES1    0.0000
     13 C8        -1.7523    1.4212    8.0590 C.ar      1 RES1    0.0000
     14 H6        -2.2305    0.9195    8.6796 H         1 RES1    0.0000
     15 C9        -1.7575    1.0544    6.7182 C.ar      1 RES1    0.0000
     16 H7        -2.2391    0.3087    6.4418 H         1 RES1    0.0000
     17 C10       -1.0428    1.8029    5.7904 C.ar      1 RES1    0.0000
     18 H8        -1.0461    1.5580    4.8935 H         1 RES1    0.0000
     19 C11       -0.3229    2.9181    6.2035 C.ar      1 RES1    0.0000
     20 H9         0.1554    3.4190    5.5830 H         1 RES1    0.0000
     21 C12       -0.3176    3.2847    7.5443 C.ar      1 RES1    0.0000
     22 H10        0.1639    4.0306    7.8208 H         1 RES1    0.0000
     23 C13        0.9192    1.8541   10.7102 C.ar      1 RES1    0.0000
     24 C14       -0.1157    2.8139   10.8909 C.ar      1 RES1    0.0000
     25 C15       -1.1161    3.0451    9.8975 C.ar      1 RES1    0.0000
     26 C16       -2.1953    3.9026   10.1576 C.ar      1 RES1    0.0000
     27 C17       -3.2390    4.1219    9.1907 C.ar      1 RES1    0.0000
     28 H11       -3.2142    3.6563    8.3860 H         1 RES1    0.0000
     29 C18       -4.2494    4.9842    9.4175 C.ar      1 RES1    0.0000
     30 H12       -4.9101    5.1007    8.7740 H         1 RES1    0.0000
     31 C19       -4.3127    5.7091   10.6238 C.ar      1 RES1    0.0000
     32 H13       -5.0235    6.2881   10.7804 H         1 RES1    0.0000
     33 C20       -3.3424    5.5658   11.5551 C.ar      1 RES1    0.0000
     34 H14       -3.3881    6.0705   12.3344 H         1 RES1    0.0000
     35 C21       -2.2432    4.6589   11.3755 C.ar      1 RES1    0.0000
     36 C1A       -1.1860    5.6150   13.3859 C.ar      1 RES1    0.0000
     37 C2A       -0.4346    6.7641   13.1696 C.ar      1 RES1    0.0000
     38 H1A        0.0959    6.8367   12.4093 H         1 RES1    0.0000
     39 C3A       -0.4767    7.8054   14.0897 C.ar      1 RES1    0.0000
     40 H2A        0.0257    8.5743   13.9449 H         1 RES1    0.0000
     41 C4A       -1.2696    7.6971   15.2261 C.ar      1 RES1    0.0000
     42 H3A       -1.2976    8.3932   15.8419 H         1 RES1    0.0000
     43 C5A       -2.0210    6.5480   15.4424 C.ar      1 RES1    0.0000
     44 H4A       -2.5513    6.4755   16.2023 H         1 RES1    0.0000
     45 C6A       -1.9788    5.5067   14.5223 C.ar      1 RES1    0.0000
     46 H5A       -2.4811    4.7379   14.6666 H         1 RES1    0.0000
     47 C7A        0.7509    3.8712   14.5506 C.ar      1 RES1    0.0000
     48 C8A        1.4709    4.9856   14.9637 C.ar      1 RES1    0.0000
     49 H6A        1.9491    5.4873   14.3432 H         1 RES1    0.0000
     50 C9A        1.4762    5.3524   16.3046 C.ar      1 RES1    0.0000
     51 H7A        1.9578    6.0981   16.5810 H         1 RES1    0.0000
     52 C10A       0.7615    4.6039   17.2323 C.ar      1 RES1    0.0000
     53 H8A        0.7648    4.8488   18.1293 H         1 RES1    0.0000
     54 C11A       0.0415    3.4887   16.8193 C.ar      1 RES1    0.0000
     55 H9A       -0.4367    2.9878   17.4397 H         1 RES1    0.0000
     56 C12A       0.0362    3.1221   15.4784 C.ar      1 RES1    0.0000
     57 H10A      -0.4453    2.3762   15.2019 H         1 RES1    0.0000
     58 C13A      -1.2005    4.5527   12.3126 C.ar      1 RES1    0.0000
     59 C14A      -0.1656    3.5929   12.1318 C.ar      1 RES1    0.0000
     60 C15A       0.8348    3.3617   13.1253 C.ar      1 RES1    0.0000
     61 C16A       1.9139    2.5042   12.8651 C.ar      1 RES1    0.0000
     62 C17A       2.9577    2.2849   13.8321 C.ar      1 RES1    0.0000
     63 H11A       2.9328    2.7505   14.6367 H         1 RES1    0.0000
     64 C18A       3.9681    1.4226   13.6053 C.ar      1 RES1    0.0000
     65 H12A       4.6287    1.3062   14.2488 H         1 RES1    0.0000
     66 C19A       4.0313    0.6977   12.3989 C.ar      1 RES1    0.0000
     67 H13A       4.7421    0.1188   12.2423 H         1 RES1    0.0000
     68 C20A       3.0610    0.8410   11.4676 C.ar      1 RES1    0.0000
     69 H14A       3.1067    0.3363   10.6883 H         1 RES1    0.0000
     70 C21A       1.9619    1.7479   11.6472 C.ar      1 RES1    0.0000
@<TRIPOS>BOND
     1    1    2 ar
     2    2    3 1
     3    4    2 ar
     4    5    4 1
     5    6    4 ar
     6    7    6 1
     7    8    6 ar
     8    9    8 1
     9   10    1 ar
    10   11   10 1
    11   12   13 ar
    12   13   14 1
    13   15   13 ar
    14   16   15 1
    15   17   15 ar
    16   18   17 1
    17   19   17 ar
    18   20   19 1
    19   21   12 ar
    20   22   21 1
    21   23    1 1
    22   24   23 ar
    23   25   12 1
    24   26   25 ar
    25   27   26 ar
    26   28   27 1
    27   29   27 ar
    28   30   29 1
    29   31   29 ar
    30   32   31 1
    31   33   31 ar
    32   34   33 1
    33   35   26 ar
    34   36   37 ar
    35   37   38 1
    36   39   37 ar
    37   40   39 1
    38   41   39 ar
    39   42   41 1
    40   43   41 ar
    41   44   43 1
    42   45   36 ar
    43   46   45 1
    44   47   48 ar
    45   48   49 1
    46   50   48 ar
    47   51   50 1
    48   52   50 ar
    49   53   52 1
    50   54   52 ar
    51   55   54 1
    52   56   47 ar
    53   57   56 1
    54   58   35 ar
    55   59   24 ar
    56   60   47 1
    57   61   60 ar
    58   62   61 ar
    59   63   62 1
    60   64   62 ar
    61   65   64 1
    62   66   64 ar
    63   67   66 1
    64   68   66 ar
    65   69   68 1
    66   70   23 ar
    67    8   10 ar
    68   19   21 ar
    69   24   25 ar
    70   33   35 ar
    71   36   58 1
    72   43   45 ar
    73   54   56 ar
    74   58   59 ar
    75   59   60 ar
    76   61   70 ar
    77   68   70 ar
@<TRIPOS>SUBSTRUCTURE
     1 RES1 1

@<TRIPOS>CRYSIN
   7.0883    8.5994   12.0059  93.4860 105.6420  95.9770   2 1

