# MOL2 file generated by ConQuest
# Please check atom types

@<TRIPOS>MOLECULE
QQQCIG24
    70    77     1
SMALL
NO_CHARGES
****
Generated from CSD

@<TRIPOS>ATOM
      1 C1         0.9312    0.8214    9.6033 C.ar      1 RES1    0.0000
      2 C2         0.1819   -0.3304    9.8144 C.ar      1 RES1    0.0000
      3 H1        -0.3438   -0.4096   10.5782 H         1 RES1    0.0000
      4 C3         0.2167   -1.3631    8.8853 C.ar      1 RES1    0.0000
      5 H2        -0.2853   -2.1330    9.0264 H         1 RES1    0.0000
      6 C4         1.0011   -1.2438    7.7441 C.ar      1 RES1    0.0000
      7 H3         1.0249   -1.9344    7.1214 H         1 RES1    0.0000
      8 C5         1.7505   -0.0928    7.5331 C.ar      1 RES1    0.0000
      9 H4         2.2755   -0.0127    6.7692 H         1 RES1    0.0000
     10 C6         1.7157    0.9399    8.4621 C.ar      1 RES1    0.0000
     11 H5         2.2169    1.7106    8.3211 H         1 RES1    0.0000
     12 C7        -1.0224    2.5655    8.4312 C.ar      1 RES1    0.0000
     13 C8        -1.7312    1.4408    8.0263 C.ar      1 RES1    0.0000
     14 H6        -2.2049    0.9403    8.6502 H         1 RES1    0.0000
     15 C9        -1.7301    1.0640    6.6878 C.ar      1 RES1    0.0000
     16 H7        -2.2049    0.3108    6.4171 H         1 RES1    0.0000
     17 C10       -1.0213    1.8118    5.7553 C.ar      1 RES1    0.0000
     18 H8        -1.0216    1.5592    4.8607 H         1 RES1    0.0000
     19 C11       -0.3125    2.9366    6.1602 C.ar      1 RES1    0.0000
     20 H9         0.1613    3.4371    5.5363 H         1 RES1    0.0000
     21 C12       -0.3135    3.3134    7.4987 C.ar      1 RES1    0.0000
     22 H10        0.1612    4.0666    7.7694 H         1 RES1    0.0000
     23 C13        0.9489    1.9239   10.6470 C.ar      1 RES1    0.0000
     24 C14       -0.0935    2.8944   10.8145 C.ar      1 RES1    0.0000
     25 C15       -1.0978    3.1013    9.8465 C.ar      1 RES1    0.0000
     26 C16       -2.1785    3.9533   10.0954 C.ar      1 RES1    0.0000
     27 C17       -3.2257    4.1345    9.1686 C.ar      1 RES1    0.0000
     28 H11       -3.2123    3.6431    8.3784 H         1 RES1    0.0000
     29 C18       -4.2483    4.9932    9.3797 C.ar      1 RES1    0.0000
     30 H12       -4.9070    5.1038    8.7328 H         1 RES1    0.0000
     31 C19       -4.3115    5.7169   10.5828 C.ar      1 RES1    0.0000
     32 H13       -5.0308    6.2840   10.7468 H         1 RES1    0.0000
     33 C20       -3.3327    5.5911   11.4992 C.ar      1 RES1    0.0000
     34 H14       -3.3725    6.1143   12.2665 H         1 RES1    0.0000
     35 C21       -2.2220    4.6785   11.3398 C.ar      1 RES1    0.0000
     36 C1A       -1.1754    5.6579   13.3355 C.ar      1 RES1    0.0000
     37 C2A       -0.4261    6.8097   13.1244 C.ar      1 RES1    0.0000
     38 H1A        0.0997    6.8890   12.3606 H         1 RES1    0.0000
     39 C3A       -0.4609    7.8424   14.0535 C.ar      1 RES1    0.0000
     40 H2A        0.0411    8.6123   13.9124 H         1 RES1    0.0000
     41 C4A       -1.2453    7.7231   15.1947 C.ar      1 RES1    0.0000
     42 H3A       -1.2691    8.4138   15.8175 H         1 RES1    0.0000
     43 C5A       -1.9947    6.5721   15.4057 C.ar      1 RES1    0.0000
     44 H4A       -2.5196    6.4920   16.1696 H         1 RES1    0.0000
     45 C6A       -1.9599    5.5395   14.4767 C.ar      1 RES1    0.0000
     46 H5A       -2.4611    4.7687   14.6178 H         1 RES1    0.0000
     47 C7A        0.7782    3.9138   14.5077 C.ar      1 RES1    0.0000
     48 C8A        1.4870    5.0386   14.9125 C.ar      1 RES1    0.0000
     49 H6A        1.9607    5.5390   14.2886 H         1 RES1    0.0000
     50 C9A        1.4859    5.4153   16.2510 C.ar      1 RES1    0.0000
     51 H7A        1.9607    6.1685   16.5217 H         1 RES1    0.0000
     52 C10A       0.7771    4.6675   17.1835 C.ar      1 RES1    0.0000
     53 H8A        0.7774    4.9202   18.0781 H         1 RES1    0.0000
     54 C11A       0.0683    3.5427   16.7786 C.ar      1 RES1    0.0000
     55 H9A       -0.4054    3.0423   17.4025 H         1 RES1    0.0000
     56 C12A       0.0694    3.1659   15.4401 C.ar      1 RES1    0.0000
     57 H10A      -0.4054    2.4128   15.1694 H         1 RES1    0.0000
     58 C13A      -1.1931    4.5555   12.2918 C.ar      1 RES1    0.0000
     59 C14A      -0.1507    3.5849   12.1243 C.ar      1 RES1    0.0000
     60 C15A       0.8536    3.3780   13.0923 C.ar      1 RES1    0.0000
     61 C16A       1.9343    2.5260   12.8434 C.ar      1 RES1    0.0000
     62 C17A       2.9815    2.3448   13.7702 C.ar      1 RES1    0.0000
     63 H11A       2.9682    2.8363   14.5604 H         1 RES1    0.0000
     64 C18A       4.0041    1.4861   13.5591 C.ar      1 RES1    0.0000
     65 H12A       4.6628    1.3755   14.2060 H         1 RES1    0.0000
     66 C19A       4.0673    0.7624   12.3560 C.ar      1 RES1    0.0000
     67 H13A       4.7867    0.1954   12.1920 H         1 RES1    0.0000
     68 C20A       3.0885    0.8883   11.4396 C.ar      1 RES1    0.0000
     69 H14A       3.1283    0.3650   10.6723 H         1 RES1    0.0000
     70 C21A       1.9778    1.8009   11.5990 C.ar      1 RES1    0.0000
@<TRIPOS>BOND
     1    1    2 ar
     2    2    3 1
     3    4    2 ar
     4    5    4 1
     5    6    4 ar
     6    7    6 1
     7    8    6 ar
     8    9    8 1
     9   10    1 ar
    10   11   10 1
    11   12   13 ar
    12   13   14 1
    13   15   13 ar
    14   16   15 1
    15   17   15 ar
    16   18   17 1
    17   19   17 ar
    18   20   19 1
    19   21   12 ar
    20   22   21 1
    21   23    1 1
    22   24   23 ar
    23   25   12 1
    24   26   25 ar
    25   27   26 ar
    26   28   27 1
    27   29   27 ar
    28   30   29 1
    29   31   29 ar
    30   32   31 1
    31   33   31 ar
    32   34   33 1
    33   35   26 ar
    34   36   37 ar
    35   37   38 1
    36   39   37 ar
    37   40   39 1
    38   41   39 ar
    39   42   41 1
    40   43   41 ar
    41   44   43 1
    42   45   36 ar
    43   46   45 1
    44   47   48 ar
    45   48   49 1
    46   50   48 ar
    47   51   50 1
    48   52   50 ar
    49   53   52 1
    50   54   52 ar
    51   55   54 1
    52   56   47 ar
    53   57   56 1
    54   58   35 ar
    55   59   24 ar
    56   60   47 1
    57   61   60 ar
    58   62   61 ar
    59   63   62 1
    60   64   62 ar
    61   65   64 1
    62   66   64 ar
    63   67   66 1
    64   68   66 ar
    65   69   68 1
    66   70   23 ar
    67    8   10 ar
    68   19   21 ar
    69   24   25 ar
    70   33   35 ar
    71   36   58 1
    72   43   45 ar
    73   54   56 ar
    74   58   59 ar
    75   59   60 ar
    76   61   70 ar
    77   68   70 ar
@<TRIPOS>SUBSTRUCTURE
     1 RES1 1

@<TRIPOS>CRYSIN
   7.0478    8.5495   11.9485  93.2010 105.5010  96.0790   2 1

