# MOL2 file generated by ConQuest
# Please check atom types

@<TRIPOS>MOLECULE
QQQCIG15
    70    77     1
SMALL
NO_CHARGES
****
Generated from CSD

@<TRIPOS>ATOM
      1 C1         0.0000    0.0000    0.7371 C.ar      1 RES1    0.0000
      2 C2        -1.0339    0.7060    1.4226 C.ar      1 RES1    0.0000
      3 C3        -2.1001    1.2619    0.7188 C.ar      1 RES1    0.0000
      4 C4        -3.1728    1.9285    1.3918 C.ar      1 RES1    0.0000
      5 C5        -4.1888    2.5191    0.7145 C.ar      1 RES1    0.0000
      6 C6        -0.9528    1.0455    2.8616 C.ar      1 RES1    0.0000
      7 C7        -1.7651    0.4302    3.8127 C.ar      1 RES1    0.0000
      8 C8        -1.7794    0.8632    5.1265 C.ar      1 RES1    0.0000
      9 C9        -0.9722    1.9199    5.5150 C.ar      1 RES1    0.0000
     10 C10       -0.1578    2.5478    4.5921 C.ar      1 RES1    0.0000
     11 C11       -0.1535    2.1178    3.2649 C.ar      1 RES1    0.0000
     12 H1        -3.2001    1.9343    2.3326 H         1 RES1    0.0000
     13 H2        -4.8431    2.9794    1.2065 H         1 RES1    0.0000
     14 H3        -2.2816   -0.3349    3.5982 H         1 RES1    0.0000
     15 H4        -2.3390    0.4504    5.7726 H         1 RES1    0.0000
     16 H5        -0.9758    2.2273    6.4027 H         1 RES1    0.0000
     17 H6         0.3803    3.2710    4.8503 H         1 RES1    0.0000
     18 H7         0.3803    2.5795    2.6383 H         1 RES1    0.0000
     19 C1H       -0.0000   -0.0000   -0.7371 C.ar      1 RES1    0.0000
     20 C2A        1.0339   -0.7060    1.4226 C.ar      1 RES1    0.0000
     21 C2H        1.0339   -0.7060   -1.4226 C.ar      1 RES1    0.0000
     22 C2I       -1.0339    0.7060   -1.4226 C.ar      1 RES1    0.0000
     23 C3A        2.1001   -1.2619    0.7188 C.ar      1 RES1    0.0000
     24 C3H        2.1001   -1.2619   -0.7188 C.ar      1 RES1    0.0000
     25 C3I       -2.1001    1.2619   -0.7188 C.ar      1 RES1    0.0000
     26 C4A        3.1728   -1.9285    1.3918 C.ar      1 RES1    0.0000
     27 C4H        3.1728   -1.9285   -1.3918 C.ar      1 RES1    0.0000
     28 C4I       -3.1728    1.9285   -1.3918 C.ar      1 RES1    0.0000
     29 C5A        4.1888   -2.5191    0.7145 C.ar      1 RES1    0.0000
     30 C5H        4.1888   -2.5191   -0.7145 C.ar      1 RES1    0.0000
     31 C5I       -4.1888    2.5191   -0.7145 C.ar      1 RES1    0.0000
     32 C6A        0.9528   -1.0455    2.8616 C.ar      1 RES1    0.0000
     33 C6H        0.9528   -1.0455   -2.8616 C.ar      1 RES1    0.0000
     34 C6I       -0.9528    1.0455   -2.8616 C.ar      1 RES1    0.0000
     35 C7A        1.7651   -0.4302    3.8127 C.ar      1 RES1    0.0000
     36 C7H        1.7651   -0.4302   -3.8127 C.ar      1 RES1    0.0000
     37 C7I       -1.7651    0.4302   -3.8127 C.ar      1 RES1    0.0000
     38 C8A        1.7794   -0.8632    5.1265 C.ar      1 RES1    0.0000
     39 C8H        1.7794   -0.8632   -5.1265 C.ar      1 RES1    0.0000
     40 C8I       -1.7794    0.8632   -5.1265 C.ar      1 RES1    0.0000
     41 C9A        0.9722   -1.9199    5.5150 C.ar      1 RES1    0.0000
     42 C9H        0.9722   -1.9199   -5.5150 C.ar      1 RES1    0.0000
     43 C9I       -0.9722    1.9199   -5.5150 C.ar      1 RES1    0.0000
     44 C10A       0.1579   -2.5478    4.5921 C.ar      1 RES1    0.0000
     45 C10H       0.1578   -2.5478   -4.5921 C.ar      1 RES1    0.0000
     46 C10I      -0.1579    2.5478   -4.5921 C.ar      1 RES1    0.0000
     47 C11A       0.1535   -2.1178    3.2649 C.ar      1 RES1    0.0000
     48 C11H       0.1535   -2.1178   -3.2649 C.ar      1 RES1    0.0000
     49 C11I      -0.1535    2.1178   -3.2649 C.ar      1 RES1    0.0000
     50 H1A        3.2001   -1.9343    2.3326 H         1 RES1    0.0000
     51 H1H        3.2001   -1.9343   -2.3326 H         1 RES1    0.0000
     52 H1I       -3.2001    1.9343   -2.3326 H         1 RES1    0.0000
     53 H2A        4.8431   -2.9794    1.2065 H         1 RES1    0.0000
     54 H2H        4.8431   -2.9794   -1.2065 H         1 RES1    0.0000
     55 H2I       -4.8431    2.9794   -1.2065 H         1 RES1    0.0000
     56 H3A        2.2816    0.3349    3.5982 H         1 RES1    0.0000
     57 H3H        2.2816    0.3349   -3.5982 H         1 RES1    0.0000
     58 H3I       -2.2816   -0.3349   -3.5982 H         1 RES1    0.0000
     59 H4A        2.3391   -0.4504    5.7726 H         1 RES1    0.0000
     60 H4H        2.3390   -0.4504   -5.7726 H         1 RES1    0.0000
     61 H4I       -2.3391    0.4504   -5.7726 H         1 RES1    0.0000
     62 H5A        0.9758   -2.2273    6.4027 H         1 RES1    0.0000
     63 H5H        0.9758   -2.2273   -6.4027 H         1 RES1    0.0000
     64 H5I       -0.9758    2.2273   -6.4027 H         1 RES1    0.0000
     65 H6A       -0.3803   -3.2710    4.8503 H         1 RES1    0.0000
     66 H6H       -0.3803   -3.2710   -4.8503 H         1 RES1    0.0000
     67 H6I        0.3803    3.2710   -4.8503 H         1 RES1    0.0000
     68 H7A       -0.3803   -2.5795    2.6383 H         1 RES1    0.0000
     69 H7H       -0.3803   -2.5795   -2.6383 H         1 RES1    0.0000
     70 H7I        0.3803    2.5795   -2.6383 H         1 RES1    0.0000
@<TRIPOS>BOND
     1    1    2 ar
     2    2    3 ar
     3    3    4 ar
     4    4    5 ar
     5    5   13 1
     6    6    2 1
     7    7    6 ar
     8    8    7 ar
     9    9    8 ar
    10   10    9 ar
    11   11    6 ar
    12   12    4 1
    13   14    7 1
    14   15    8 1
    15   16    9 1
    16   17   10 1
    17   18   11 1
    18   19    1 ar
    19   20    1 ar
    20   21   19 ar
    21   22   19 ar
    22   23   20 ar
    23   24   21 ar
    24   25    3 ar
    25   26   23 ar
    26   27   24 ar
    27   28   25 ar
    28   29   26 ar
    29   30   27 ar
    30   31    5 ar
    31   32   20 1
    32   33   21 1
    33   34   22 1
    34   35   32 ar
    35   36   33 ar
    36   37   34 ar
    37   38   35 ar
    38   39   36 ar
    39   40   37 ar
    40   41   38 ar
    41   42   39 ar
    42   43   40 ar
    43   44   41 ar
    44   45   42 ar
    45   46   43 ar
    46   47   32 ar
    47   48   33 ar
    48   49   34 ar
    49   50   26 1
    50   51   27 1
    51   52   28 1
    52   53   29 1
    53   54   30 1
    54   55   31 1
    55   56   35 1
    56   57   36 1
    57   58   37 1
    58   59   38 1
    59   60   39 1
    60   61   40 1
    61   62   41 1
    62   63   42 1
    63   64   43 1
    64   65   44 1
    65   66   45 1
    66   67   46 1
    67   68   47 1
    68   69   48 1
    69   70   49 1
    70   10   11 ar
    71   22   25 ar
    72   23   24 ar
    73   28   31 ar
    74   29   30 ar
    75   44   47 ar
    76   45   48 ar
    77   46   49 ar
@<TRIPOS>SUBSTRUCTURE
     1 RES1 1

@<TRIPOS>CRYSIN
   7.1750   14.4350   26.8120  90.0000  90.0000  90.0000  64 3

