# MOL2 file generated by ConQuest
# Please check atom types

@<TRIPOS>MOLECULE
QQQCIG10
    70    77     1
SMALL
NO_CHARGES
****
Generated from CSD

@<TRIPOS>ATOM
      1 C1         0.7311    0.0000    0.0000 C.ar      1 RES1    0.0000
      2 C2         1.4250   -1.0325    0.7087 C.ar      1 RES1    0.0000
      3 C3         0.7168   -2.1128    1.2663 C.ar      1 RES1    0.0000
      4 C4         1.3924   -3.2010    1.9333 C.ar      1 RES1    0.0000
      5 C5         0.7036   -4.2119    2.5260 C.ar      1 RES1    0.0000
      6 C6         2.8834   -0.9573    1.0491 C.ar      1 RES1    0.0000
      7 C7         3.8381   -1.7638    0.4351 C.ar      1 RES1    0.0000
      8 C8         5.1476   -1.7768    0.8763 C.ar      1 RES1    0.0000
      9 C9         5.5341   -0.9814    1.9324 C.ar      1 RES1    0.0000
     10 C10        4.6104   -0.1716    2.5541 C.ar      1 RES1    0.0000
     11 C11        3.2948   -0.1630    2.1182 C.ar      1 RES1    0.0000
     12 H1         2.3975   -3.1801    1.9754 H         1 RES1    0.0000
     13 H2         1.2122   -4.9323    2.9804 H         1 RES1    0.0000
     14 H3         3.5612   -2.3364   -0.3167 H         1 RES1    0.0000
     15 H4         5.8186   -2.3364    0.3876 H         1 RES1    0.0000
     16 H5         6.4759   -0.9951    2.2212 H         1 RES1    0.0000
     17 H6         4.8327    0.4110    3.3202 H         1 RES1    0.0000
     18 H7         2.5968    0.3606    2.5741 H         1 RES1    0.0000
     19 C1H       -0.7311    0.0000    0.0000 C.ar      1 RES1    0.0000
     20 C2K       -1.4250   -1.0325    0.7087 C.ar      1 RES1    0.0000
     21 C2C        1.4250    1.0325   -0.7087 C.ar      1 RES1    0.0000
     22 C2H       -1.4250    1.0325   -0.7087 C.ar      1 RES1    0.0000
     23 C3K       -0.7168   -2.1128    1.2663 C.ar      1 RES1    0.0000
     24 C3C        0.7168    2.1128   -1.2663 C.ar      1 RES1    0.0000
     25 C3H       -0.7168    2.1128   -1.2663 C.ar      1 RES1    0.0000
     26 C4H       -1.3924    3.2010   -1.9333 C.ar      1 RES1    0.0000
     27 C4C        1.3924    3.2010   -1.9333 C.ar      1 RES1    0.0000
     28 C4K       -1.3924   -3.2010    1.9333 C.ar      1 RES1    0.0000
     29 C5H       -0.7036    4.2119   -2.5260 C.ar      1 RES1    0.0000
     30 C5C        0.7036    4.2119   -2.5260 C.ar      1 RES1    0.0000
     31 C5K       -0.7036   -4.2119    2.5260 C.ar      1 RES1    0.0000
     32 C6H       -2.8834    0.9573   -1.0491 C.ar      1 RES1    0.0000
     33 C6C        2.8834    0.9573   -1.0491 C.ar      1 RES1    0.0000
     34 C6K       -2.8834   -0.9573    1.0491 C.ar      1 RES1    0.0000
     35 C7H       -3.8381    1.7638   -0.4351 C.ar      1 RES1    0.0000
     36 C7C        3.8381    1.7638   -0.4351 C.ar      1 RES1    0.0000
     37 C7K       -3.8381   -1.7638    0.4351 C.ar      1 RES1    0.0000
     38 C8H       -5.1476    1.7768   -0.8763 C.ar      1 RES1    0.0000
     39 C8C        5.1476    1.7768   -0.8763 C.ar      1 RES1    0.0000
     40 C8K       -5.1476   -1.7768    0.8763 C.ar      1 RES1    0.0000
     41 C9H       -5.5341    0.9814   -1.9324 C.ar      1 RES1    0.0000
     42 C9C        5.5341    0.9814   -1.9324 C.ar      1 RES1    0.0000
     43 C9K       -5.5341   -0.9814    1.9324 C.ar      1 RES1    0.0000
     44 C10H      -4.6104    0.1716   -2.5541 C.ar      1 RES1    0.0000
     45 C10C       4.6104    0.1716   -2.5541 C.ar      1 RES1    0.0000
     46 C10K      -4.6104   -0.1716    2.5541 C.ar      1 RES1    0.0000
     47 C11H      -3.2948    0.1630   -2.1182 C.ar      1 RES1    0.0000
     48 C11C       3.2948    0.1630   -2.1182 C.ar      1 RES1    0.0000
     49 C11K      -3.2948   -0.1630    2.1182 C.ar      1 RES1    0.0000
     50 H1C        2.3975    3.1801   -1.9754 H         1 RES1    0.0000
     51 H1H       -2.3975    3.1801   -1.9754 H         1 RES1    0.0000
     52 H1K       -2.3975   -3.1801    1.9754 H         1 RES1    0.0000
     53 H2C        1.2122    4.9323   -2.9804 H         1 RES1    0.0000
     54 H2H       -1.2122    4.9323   -2.9804 H         1 RES1    0.0000
     55 H2K       -1.2122   -4.9323    2.9804 H         1 RES1    0.0000
     56 H3H       -3.5612    2.3364    0.3167 H         1 RES1    0.0000
     57 H3C        3.5612    2.3364    0.3167 H         1 RES1    0.0000
     58 H3K       -3.5612   -2.3364   -0.3167 H         1 RES1    0.0000
     59 H4H       -5.8186    2.3364   -0.3876 H         1 RES1    0.0000
     60 H4C        5.8186    2.3364   -0.3876 H         1 RES1    0.0000
     61 H4K       -5.8186   -2.3364    0.3876 H         1 RES1    0.0000
     62 H5H       -6.4759    0.9951   -2.2212 H         1 RES1    0.0000
     63 H5C        6.4759    0.9951   -2.2212 H         1 RES1    0.0000
     64 H5K       -6.4759   -0.9951    2.2212 H         1 RES1    0.0000
     65 H6H       -4.8327   -0.4110   -3.3202 H         1 RES1    0.0000
     66 H6C        4.8327   -0.4110   -3.3202 H         1 RES1    0.0000
     67 H6K       -4.8327    0.4110    3.3202 H         1 RES1    0.0000
     68 H7H       -2.5968   -0.3606   -2.5741 H         1 RES1    0.0000
     69 H7C        2.5968   -0.3606   -2.5741 H         1 RES1    0.0000
     70 H7K       -2.5968    0.3606    2.5741 H         1 RES1    0.0000
@<TRIPOS>BOND
     1    1    2 ar
     2    2    3 ar
     3    3    4 ar
     4    4    5 ar
     5    5   13 1
     6    6    2 1
     7    7    6 ar
     8    8    7 ar
     9    9    8 ar
    10   10    9 ar
    11   11    6 ar
    12   12    4 1
    13   14    7 1
    14   15    8 1
    15   16    9 1
    16   17   10 1
    17   18   11 1
    18   19    1 ar
    19   20   19 ar
    20   21    1 ar
    21   22   19 ar
    22   23    3 ar
    23   24   21 ar
    24   25   22 ar
    25   26   25 ar
    26   27   24 ar
    27   28   23 ar
    28   29   26 ar
    29   30   27 ar
    30   31    5 ar
    31   32   22 1
    32   33   21 1
    33   34   20 1
    34   35   32 ar
    35   36   33 ar
    36   37   34 ar
    37   38   35 ar
    38   39   36 ar
    39   40   37 ar
    40   41   38 ar
    41   42   39 ar
    42   43   40 ar
    43   44   41 ar
    44   45   42 ar
    45   46   43 ar
    46   47   32 ar
    47   48   33 ar
    48   49   34 ar
    49   50   27 1
    50   51   26 1
    51   52   28 1
    52   53   30 1
    53   54   29 1
    54   55   31 1
    55   56   35 1
    56   57   36 1
    57   58   37 1
    58   59   38 1
    59   60   39 1
    60   61   40 1
    61   62   41 1
    62   63   42 1
    63   64   43 1
    64   65   44 1
    65   66   45 1
    66   67   46 1
    67   68   47 1
    68   69   48 1
    69   70   49 1
    70   10   11 ar
    71   20   23 ar
    72   24   25 ar
    73   28   31 ar
    74   29   30 ar
    75   44   47 ar
    76   45   48 ar
    77   46   49 ar
@<TRIPOS>SUBSTRUCTURE
     1 RES1 1

@<TRIPOS>CRYSIN
  26.9380    7.2110   14.4610  90.0000  90.0000  90.0000  64 1

