# MOL2 file generated by ConQuest
# Please check atom types

@<TRIPOS>MOLECULE
RABWUP
    34    36     1
SMALL
NO_CHARGES
****
Generated from CSD

@<TRIPOS>ATOM
      1 C1         4.6106    4.1847    0.8264 C.ar      1 RES1    0.0000
      2 C2         3.4933    4.5198    0.0996 C.ar      1 RES1    0.0000
      3 H1         2.7623    4.9319    0.5451 H         1 RES1    0.0000
      4 C3         3.3959    4.2715   -1.2916 C.ar      1 RES1    0.0000
      5 C4         2.2484    4.6285   -2.0394 C.ar      1 RES1    0.0000
      6 H2         1.5088    5.0376   -1.6049 H         1 RES1    0.0000
      7 C5         2.1998    4.3877   -3.3814 C.ar      1 RES1    0.0000
      8 H3         1.4231    4.6270   -3.8740 H         1 RES1    0.0000
      9 C6         3.2828    3.7922   -4.0428 C.ar      1 RES1    0.0000
     10 H4         3.2389    3.6382   -4.9794 H         1 RES1    0.0000
     11 C7         4.3907    3.4366   -3.3510 C.ar      1 RES1    0.0000
     12 H5         5.1151    3.0275   -3.8089 H         1 RES1    0.0000
     13 C8         4.4886    3.6646   -1.9521 C.ar      1 RES1    0.0000
     14 C9         5.6250    3.3174   -1.1968 C.ar      1 RES1    0.0000
     15 H6         6.3572    2.8924   -1.6285 H         1 RES1    0.0000
     16 C10        5.6957    3.5793    0.1453 C.ar      1 RES1    0.0000
     17 H7         6.4833    3.3521    0.6254 H         1 RES1    0.0000
     18 C11        4.5829    4.4677    2.2671 C.2       1 RES1    0.0000
     19 H8         3.8055    4.9297    2.5582 H         1 RES1    0.0000
     20 C12        5.4661    4.1892    3.2541 C.2       1 RES1    0.0000
     21 C13        6.7335    3.5718    3.0369 C.1       1 RES1    0.0000
     22 C14        7.7873    3.0502    2.9235 C.1       1 RES1    0.0000
     23 H9         8.6347    2.6305    2.8308 H         1 RES1    0.0000
     24 C15        5.1482    4.5281    4.6728 C.ar      1 RES1    0.0000
     25 C16        6.1407    4.9719    5.5356 C.ar      1 RES1    0.0000
     26 H10        7.0382    5.0278    5.2312 H         1 RES1    0.0000
     27 C17        5.8361    5.3342    6.8376 C.ar      1 RES1    0.0000
     28 H11        6.5222    5.6558    7.4104 H         1 RES1    0.0000
     29 C18        4.5529    5.2316    7.3052 C.ar      1 RES1    0.0000
     30 H12        4.3477    5.4852    8.1976 H         1 RES1    0.0000
     31 C19        3.5641    4.7591    6.4765 C.ar      1 RES1    0.0000
     32 H13        2.6771    4.6715    6.8044 H         1 RES1    0.0000
     33 C20        3.8521    4.4073    5.1593 C.ar      1 RES1    0.0000
     34 H14        3.1615    4.0843    4.5920 H         1 RES1    0.0000
@<TRIPOS>BOND
     1    1    2 ar
     2    2    3 1
     3    4    2 ar
     4    5    4 ar
     5    6    5 1
     6    7    5 ar
     7    8    7 1
     8    9    7 ar
     9   10    9 1
    10   11    9 ar
    11   12   11 1
    12   13    4 ar
    13   14   13 ar
    14   15   14 1
    15   16    1 ar
    16   17   16 1
    17   18    1 1
    18   19   18 1
    19   20   18 2
    20   21   20 1
    21   22   21 3
    22   23   22 1
    23   24   20 1
    24   25   24 ar
    25   26   25 1
    26   27   25 ar
    27   28   27 1
    28   29   27 ar
    29   30   29 1
    30   31   29 ar
    31   32   31 1
    32   33   24 ar
    33   34   33 1
    34   11   13 ar
    35   14   16 ar
    36   31   33 ar
@<TRIPOS>SUBSTRUCTURE
     1 RES1 1

@<TRIPOS>CRYSIN
   6.4855    7.5481   13.9074  90.0000  95.8240  90.0000   4 1

