# MOL2 file generated by ConQuest
# Please check atom types

@<TRIPOS>MOLECULE
REFWIK
    48    53     1
SMALL
NO_CHARGES
****
Generated from CSD

@<TRIPOS>ATOM
      1 C1         8.9409    3.5796    0.3048 C.1       1 RES1    0.0000
      2 C2         5.8592    1.7270    1.3773 C.ar      1 RES1    0.0000
      3 C3         6.3104    1.1601    2.5952 C.ar      1 RES1    0.0000
      4 C4         6.7530    2.5231    0.6376 C.ar      1 RES1    0.0000
      5 H1         6.4607    2.9131   -0.1777 H         1 RES1    0.0000
      6 C5         4.4920    1.4830    0.9349 C.ar      1 RES1    0.0000
      7 C6         8.4886    2.1745    2.2876 C.ar      1 RES1    0.0000
      8 H2         9.3768    2.3198    2.5910 H         1 RES1    0.0000
      9 C7         5.4185    0.3413    3.3688 C.ar      1 RES1    0.0000
     10 H3         5.7265   -0.0551    4.1749 H         1 RES1    0.0000
     11 C8         3.6398    0.6938    1.7490 C.ar      1 RES1    0.0000
     12 C9         3.9744    1.9989   -0.2699 C.ar      1 RES1    0.0000
     13 H4         4.5307    2.5299   -0.8280 H         1 RES1    0.0000
     14 C10        7.6278    1.4083    3.0251 C.ar      1 RES1    0.0000
     15 H5         7.9264    1.0356    3.8466 H         1 RES1    0.0000
     16 C11        8.0508    2.7517    1.0688 C.ar      1 RES1    0.0000
     17 C12        2.3111    0.4527    1.3386 C.ar      1 RES1    0.0000
     18 H6         1.7390   -0.0732    1.8853 H         1 RES1    0.0000
     19 C13        4.1481    0.1283    2.9648 C.ar      1 RES1    0.0000
     20 H7         3.5759   -0.4100    3.5001 H         1 RES1    0.0000
     21 C14        1.8356    0.9699    0.1584 C.ar      1 RES1    0.0000
     22 H8         0.9395    0.8034   -0.1095 H         1 RES1    0.0000
     23 C15        2.6806    1.7471   -0.6517 C.ar      1 RES1    0.0000
     24 H9         2.3534    2.1010   -1.4706 H         1 RES1    0.0000
     25 C1B        9.6863    4.2895   -0.3048 C.1       1 RES1    0.0000
     26 C2B       12.7680    6.1421   -1.3773 C.ar      1 RES1    0.0000
     27 C3B       12.3168    6.7090   -2.5952 C.ar      1 RES1    0.0000
     28 C4B       11.8742    5.3460   -0.6376 C.ar      1 RES1    0.0000
     29 H1B       12.1665    4.9560    0.1777 H         1 RES1    0.0000
     30 C5B       14.1352    6.3861   -0.9349 C.ar      1 RES1    0.0000
     31 C6B       10.1386    5.6946   -2.2876 C.ar      1 RES1    0.0000
     32 H2B        9.2504    5.5493   -2.5910 H         1 RES1    0.0000
     33 C7B       13.2087    7.5278   -3.3688 C.ar      1 RES1    0.0000
     34 H3B       12.9007    7.9242   -4.1749 H         1 RES1    0.0000
     35 C8B       14.9874    7.1753   -1.7490 C.ar      1 RES1    0.0000
     36 C9B       14.6528    5.8702    0.2699 C.ar      1 RES1    0.0000
     37 H4B       14.0965    5.3392    0.8280 H         1 RES1    0.0000
     38 C10B      10.9994    6.4608   -3.0251 C.ar      1 RES1    0.0000
     39 H5B       10.7008    6.8335   -3.8466 H         1 RES1    0.0000
     40 C11B      10.5764    5.1174   -1.0688 C.ar      1 RES1    0.0000
     41 C12B      16.3161    7.4164   -1.3386 C.ar      1 RES1    0.0000
     42 H6B       16.8882    7.9423   -1.8853 H         1 RES1    0.0000
     43 C13B      14.4791    7.7408   -2.9648 C.ar      1 RES1    0.0000
     44 H7B       15.0513    8.2791   -3.5001 H         1 RES1    0.0000
     45 C14B      16.7916    6.8992   -0.1584 C.ar      1 RES1    0.0000
     46 H8B       17.6877    7.0657    0.1095 H         1 RES1    0.0000
     47 C15B      15.9466    6.1220    0.6517 C.ar      1 RES1    0.0000
     48 H9B       16.2738    5.7681    1.4706 H         1 RES1    0.0000
@<TRIPOS>BOND
     1    1   16 1
     2    2    3 ar
     3    3    9 ar
     4    4    2 ar
     5    5    4 1
     6    6    2 ar
     7    7    8 1
     8    9   10 1
     9   11    6 ar
    10   12    6 ar
    11   13   12 1
    12   14    3 ar
    13   15   14 1
    14   16    4 ar
    15   17   11 ar
    16   18   17 1
    17   19    9 ar
    18   20   19 1
    19   21   17 ar
    20   22   21 1
    21   23   12 ar
    22   24   23 1
    23   25    1 3
    24   26   27 ar
    25   27   33 ar
    26   28   26 ar
    27   29   28 1
    28   30   26 ar
    29   31   32 1
    30   33   34 1
    31   35   30 ar
    32   36   30 ar
    33   37   36 1
    34   38   27 ar
    35   39   38 1
    36   40   25 1
    37   41   35 ar
    38   42   41 1
    39   43   33 ar
    40   44   43 1
    41   45   41 ar
    42   46   45 1
    43   47   36 ar
    44   48   47 1
    45    7   14 ar
    46    7   16 ar
    47   11   19 ar
    48   21   23 ar
    49   28   40 ar
    50   31   38 ar
    51   31   40 ar
    52   35   43 ar
    53   45   47 ar
@<TRIPOS>SUBSTRUCTURE
     1 RES1 1

@<TRIPOS>CRYSIN
   9.3136    7.8691   13.1155  90.0000 100.9280  90.0000  14 1

