# MOL2 file generated by ConQuest
# Please check atom types

@<TRIPOS>MOLECULE
REGSEE
    74    77     1
SMALL
NO_CHARGES
****
Generated from CSD

@<TRIPOS>ATOM
      1 C1         4.2798   24.4915    2.2218 C.ar      1 RES1    0.0000
      2 C2         4.2671   24.0772    0.8925 C.ar      1 RES1    0.0000
      3 H1         4.5528   24.6829    0.2178 H         1 RES1    0.0000
      4 C3         3.8493   22.8079    0.5272 C.ar      1 RES1    0.0000
      5 H2         3.8515   22.5594   -0.3894 H         1 RES1    0.0000
      6 C4         3.4249   21.8894    1.4913 C.ar      1 RES1    0.0000
      7 C5         3.0070   20.5592    1.1526 C.ar      1 RES1    0.0000
      8 H3         3.0078   20.2914    0.2408 H         1 RES1    0.0000
      9 C6         2.6124   19.6764    2.0977 C.ar      1 RES1    0.0000
     10 H4         2.3445   18.8047    1.8343 H         1 RES1    0.0000
     11 C7         2.5889   20.0254    3.4912 C.ar      1 RES1    0.0000
     12 C8         2.1893   19.1020    4.4881 C.ar      1 RES1    0.0000
     13 C9         2.1747   19.5229    5.8166 C.ar      1 RES1    0.0000
     14 H5         1.9065   18.9114    6.4930 H         1 RES1    0.0000
     15 C10        2.5429   20.8146    6.1758 C.ar      1 RES1    0.0000
     16 H6         2.5093   21.0692    7.0900 H         1 RES1    0.0000
     17 C11        2.9610   21.7427    5.2204 C.ar      1 RES1    0.0000
     18 C12        3.3661   23.0805    5.5581 C.ar      1 RES1    0.0000
     19 H7         3.3347   23.3579    6.4662 H         1 RES1    0.0000
     20 C13        3.7914   23.9529    4.6137 C.ar      1 RES1    0.0000
     21 H8         4.0658   24.8240    4.8783 H         1 RES1    0.0000
     22 C14        3.8384   23.5964    3.2215 C.ar      1 RES1    0.0000
     23 C15        3.4151   22.2800    2.8561 C.ar      1 RES1    0.0000
     24 C16        2.9888   21.3497    3.8550 C.ar      1 RES1    0.0000
     25 C17        4.7340   25.8991    2.5398 C.3       1 RES1    0.0000
     26 H9         5.3298   26.2144    1.8159 H         1 RES1    0.0000
     27 H10        5.2595   25.8840    3.3789 H         1 RES1    0.0000
     28 C18        3.5765   26.8841    2.6955 C.3       1 RES1    0.0000
     29 H11        3.0322   26.8786    1.8685 H         1 RES1    0.0000
     30 H12        2.9974   26.5895    3.4426 H         1 RES1    0.0000
     31 C19        4.0530   28.3082    2.9673 C.3       1 RES1    0.0000
     32 H13        4.6591   28.3034    3.7498 H         1 RES1    0.0000
     33 H14        4.5668   28.6338    2.1859 H         1 RES1    0.0000
     34 C20        2.8960   29.2577    3.2358 C.3       1 RES1    0.0000
     35 H15        2.3669   28.9057    3.9953 H         1 RES1    0.0000
     36 H16        2.3064   29.2739    2.4405 H         1 RES1    0.0000
     37 C21        3.3222   30.6853    3.5551 C.3       1 RES1    0.0000
     38 H17        3.9562   30.6746    4.3154 H         1 RES1    0.0000
     39 H18        3.7924   31.0670    2.7727 H         1 RES1    0.0000
     40 C22        2.1350   31.5718    3.9077 C.3       1 RES1    0.0000
     41 H19        1.5114   31.5901    3.1390 H         1 RES1    0.0000
     42 H20        1.6549   31.1702    4.6744 H         1 RES1    0.0000
     43 C23        2.5123   33.0025    4.2628 C.3       1 RES1    0.0000
     44 H21        2.9515   33.4279    3.4841 H         1 RES1    0.0000
     45 H22        3.1615   32.9942    5.0102 H         1 RES1    0.0000
     46 C24        1.2950   33.8274    4.6650 C.3       1 RES1    0.0000
     47 H23        0.6619   33.8615    3.9178 H         1 RES1    0.0000
     48 H24        1.5781   34.7357    4.8958 H         1 RES1    0.0000
     49 H25        0.8621   33.4141    5.4411 H         1 RES1    0.0000
     50 C25        1.7836   17.6934    4.0949 C.3       1 RES1    0.0000
     51 H26        2.5362   17.2870    3.5976 H         1 RES1    0.0000
     52 H27        1.0198   17.7584    3.4684 H         1 RES1    0.0000
     53 C26        1.3931   16.7456    5.2149 C.3       1 RES1    0.0000
     54 H28        0.6372   17.1355    5.7216 H         1 RES1    0.0000
     55 H29        2.1570   16.6434    5.8370 H         1 RES1    0.0000
     56 C27        0.9879   15.3683    4.6908 C.3       1 RES1    0.0000
     57 H30        0.2353   15.4733    4.0562 H         1 RES1    0.0000
     58 H31        1.7494   14.9742    4.1946 H         1 RES1    0.0000
     59 C28        0.5716   14.4098    5.8015 C.3       1 RES1    0.0000
     60 H32       -0.1731   14.8159    6.3121 H         1 RES1    0.0000
     61 H33        1.3324   14.2894    6.4229 H         1 RES1    0.0000
     62 C29        0.1320   13.0435    5.2847 C.3       1 RES1    0.0000
     63 H34       -0.6178   13.1640    4.6495 H         1 RES1    0.0000
     64 H35        0.8829   12.6305    4.7906 H         1 RES1    0.0000
     65 C30       -0.3091   12.1019    6.3991 C.3       1 RES1    0.0000
     66 H36       -1.0665   12.5135    6.8861 H         1 RES1    0.0000
     67 H37        0.4370   11.9904    7.0402 H         1 RES1    0.0000
     68 C31       -0.7357   10.7246    5.8926 C.3       1 RES1    0.0000
     69 H38       -1.4945   10.8306    5.2649 H         1 RES1    0.0000
     70 H39        0.0157   10.3144    5.3941 H         1 RES1    0.0000
     71 C32       -1.1501    9.7930    7.0249 C.3       1 RES1    0.0000
     72 H40       -1.3667    8.9102    6.6591 H         1 RES1    0.0000
     73 H41       -1.9374   10.1595    7.4784 H         1 RES1    0.0000
     74 H42       -0.4133    9.7086    7.6657 H         1 RES1    0.0000
@<TRIPOS>BOND
     1    1    2 ar
     2    2    3 1
     3    4    2 ar
     4    5    4 1
     5    6    4 ar
     6    7    6 ar
     7    8    7 1
     8    9    7 ar
     9   10    9 1
    10   11    9 ar
    11   12   11 ar
    12   13   12 ar
    13   14   13 1
    14   15   13 ar
    15   16   15 1
    16   17   15 ar
    17   18   17 ar
    18   19   18 1
    19   20   18 ar
    20   21   20 1
    21   22    1 ar
    22   23    6 ar
    23   24   11 ar
    24   25    1 1
    25   26   25 1
    26   27   25 1
    27   28   25 1
    28   29   28 1
    29   30   28 1
    30   31   28 1
    31   32   31 1
    32   33   31 1
    33   34   31 1
    34   35   34 1
    35   36   34 1
    36   37   34 1
    37   38   37 1
    38   39   37 1
    39   40   37 1
    40   41   40 1
    41   42   40 1
    42   43   40 1
    43   44   43 1
    44   45   43 1
    45   46   43 1
    46   47   46 1
    47   48   46 1
    48   49   46 1
    49   50   12 1
    50   51   50 1
    51   52   50 1
    52   53   50 1
    53   54   53 1
    54   55   53 1
    55   56   53 1
    56   57   56 1
    57   58   56 1
    58   59   56 1
    59   60   59 1
    60   61   59 1
    61   62   59 1
    62   63   62 1
    63   64   62 1
    64   65   62 1
    65   66   65 1
    66   67   65 1
    67   68   65 1
    68   69   68 1
    69   70   68 1
    70   71   68 1
    71   72   71 1
    72   73   71 1
    73   74   71 1
    74   17   24 ar
    75   20   22 ar
    76   22   23 ar
    77   23   24 ar
@<TRIPOS>SUBSTRUCTURE
     1 RES1 1

@<TRIPOS>CRYSIN
   7.7503   34.4156    9.2569  90.0000  94.6142  90.0000 231 1

