# MOL2 file generated by ConQuest
# Please check atom types

@<TRIPOS>MOLECULE
REJTIM
    35    38     1
SMALL
NO_CHARGES
****
Generated from CSD

@<TRIPOS>ATOM
      1 C1         8.9977    3.1443    7.3043 C.ar      1 RES1    0.0000
      2 C2        10.3559    3.4754    7.4543 C.ar      1 RES1    0.0000
      3 H1        10.9242    2.8818    7.8891 H         1 RES1    0.0000
      4 C3        10.8444    4.6231    6.9848 C.ar      1 RES1    0.0000
      5 H2        11.7479    4.8186    7.0845 H         1 RES1    0.0000
      6 C4        10.0095    5.5215    6.3506 C.ar      1 RES1    0.0000
      7 H3        10.3539    6.3222    6.0258 H         1 RES1    0.0000
      8 C5         8.6972    5.2473    6.1985 C.ar      1 RES1    0.0000
      9 H4         8.1464    5.8671    5.7787 H         1 RES1    0.0000
     10 C6         8.1515    4.0478    6.6596 C.ar      1 RES1    0.0000
     11 C7         6.7769    3.7091    6.4595 C.ar      1 RES1    0.0000
     12 C8         6.3241    2.4918    6.8491 C.ar      1 RES1    0.0000
     13 C9         7.1796    1.6219    7.5281 C.ar      1 RES1    0.0000
     14 H5         6.8535    0.8050    7.8291 H         1 RES1    0.0000
     15 C10        8.4714    1.9455    7.7553 C.ar      1 RES1    0.0000
     16 H6         9.0171    1.3534    8.2226 H         1 RES1    0.0000
     17 C11        4.9720    1.9903    6.5239 C.ar      1 RES1    0.0000
     18 C12        4.5132    2.0024    5.2289 C.ar      1 RES1    0.0000
     19 H7         5.0456    2.3684    4.5612 H         1 RES1    0.0000
     20 C13        3.2980    1.4905    4.9043 C.ar      1 RES1    0.0000
     21 H8         3.0088    1.4978    4.0213 H         1 RES1    0.0000
     22 C14        2.5039    0.9655    5.8811 C.ar      1 RES1    0.0000
     23 H9         1.6648    0.6257    5.6693 H         1 RES1    0.0000
     24 C15        2.9495    0.9450    7.1614 C.ar      1 RES1    0.0000
     25 H10        2.4140    0.5761    7.8256 H         1 RES1    0.0000
     26 C16        4.1636    1.4511    7.4908 C.ar      1 RES1    0.0000
     27 H11        4.4498    1.4321    8.3761 H         1 RES1    0.0000
     28 C17        5.9031    4.7019    5.8163 C.3       1 RES1    0.0000
     29 H12        6.0073    4.7748    4.8453 H         1 RES1    0.0000
     30 C18        5.6220    5.9911    6.5181 C.3       1 RES1    0.0000
     31 H13        5.9767    6.1063    7.4127 H         1 RES1    0.0000
     32 H14        5.5934    6.8005    5.9834 H         1 RES1    0.0000
     33 C19        4.5346    4.9921    6.3240 C.3       1 RES1    0.0000
     34 H15        4.2280    4.5021    7.1039 H         1 RES1    0.0000
     35 H16        3.8448    5.1963    5.6729 H         1 RES1    0.0000
@<TRIPOS>BOND
     1    1    2 ar
     2    2    3 1
     3    4    2 ar
     4    5    4 1
     5    6    4 ar
     6    7    6 1
     7    8    6 ar
     8    9    8 1
     9   10    1 ar
    10   11   10 ar
    11   12   11 ar
    12   13   12 ar
    13   14   13 1
    14   15    1 ar
    15   16   15 1
    16   17   12 1
    17   18   17 ar
    18   19   18 1
    19   20   18 ar
    20   21   20 1
    21   22   20 ar
    22   23   22 1
    23   24   22 ar
    24   25   24 1
    25   26   17 ar
    26   27   26 1
    27   28   11 1
    28   29   28 1
    29   30   28 1
    30   31   30 1
    31   32   30 1
    32   33   28 1
    33   34   33 1
    34   35   33 1
    35    8   10 ar
    36   13   15 ar
    37   24   26 ar
    38   30   33 1
@<TRIPOS>SUBSTRUCTURE
     1 RES1 1

@<TRIPOS>CRYSIN
  10.2200   14.5840   17.6450  90.0000  90.0000  90.0000  61 1

