# MOL2 file generated by ConQuest
# Please check atom types

@<TRIPOS>MOLECULE
REXYOL
    40    46     1
SMALL
NO_CHARGES
****
Generated from CSD

@<TRIPOS>ATOM
      1 C1         0.2442    1.2496    0.5612 C.ar      1 RES1    0.0000
      2 C2         1.3005    0.6418   -0.1814 C.ar      1 RES1    0.0000
      3 C3         2.4962    1.3399   -0.2932 C.ar      1 RES1    0.0000
      4 H1         3.1923    0.9504   -0.7710 H         1 RES1    0.0000
      5 C4         2.7079    2.6077    0.2806 C.ar      1 RES1    0.0000
      6 H2         3.5253    3.0385    0.1733 H         1 RES1    0.0000
      7 C5         1.7066    3.2037    0.9973 C.ar      1 RES1    0.0000
      8 C6         1.5937    4.5222    1.7189 C.3       1 RES1    0.0000
      9 H3         1.7149    5.2621    1.1034 H         1 RES1    0.0000
     10 H4         2.2598    4.5875    2.4213 H         1 RES1    0.0000
     11 C7         0.1605    4.5342    2.3179 C.3       1 RES1    0.0000
     12 H5         0.1937    4.5883    3.2854 H         1 RES1    0.0000
     13 H6        -0.3468    5.2885    1.9793 H         1 RES1    0.0000
     14 C8        -0.4602    3.2319    1.8770 C.ar      1 RES1    0.0000
     15 C9        -1.6959    2.6713    2.0595 C.ar      1 RES1    0.0000
     16 H7        -2.3520    3.1252    2.5380 H         1 RES1    0.0000
     17 C10       -1.9644    1.3982    1.5151 C.ar      1 RES1    0.0000
     18 H8        -2.8035    1.0255    1.6621 H         1 RES1    0.0000
     19 C11       -1.0451    0.6711    0.7718 C.ar      1 RES1    0.0000
     20 C12        0.4862    2.5144    1.1253 C.ar      1 RES1    0.0000
     21 C1B       -0.2442   -1.2496   -0.5612 C.ar      1 RES1    0.0000
     22 C2B       -1.3005   -0.6418    0.1814 C.ar      1 RES1    0.0000
     23 C3B       -2.4962   -1.3399    0.2932 C.ar      1 RES1    0.0000
     24 H1B       -3.1923   -0.9504    0.7710 H         1 RES1    0.0000
     25 C4B       -2.7079   -2.6077   -0.2806 C.ar      1 RES1    0.0000
     26 H2B       -3.5253   -3.0385   -0.1733 H         1 RES1    0.0000
     27 C5B       -1.7066   -3.2037   -0.9973 C.ar      1 RES1    0.0000
     28 C6B       -1.5937   -4.5222   -1.7189 C.3       1 RES1    0.0000
     29 H3B       -1.7149   -5.2621   -1.1034 H         1 RES1    0.0000
     30 H4B       -2.2598   -4.5875   -2.4213 H         1 RES1    0.0000
     31 C7B       -0.1605   -4.5342   -2.3179 C.3       1 RES1    0.0000
     32 H5B       -0.1937   -4.5883   -3.2854 H         1 RES1    0.0000
     33 H6B        0.3468   -5.2885   -1.9793 H         1 RES1    0.0000
     34 C8B        0.4602   -3.2319   -1.8770 C.ar      1 RES1    0.0000
     35 C9B        1.6959   -2.6713   -2.0595 C.ar      1 RES1    0.0000
     36 H7B        2.3520   -3.1252   -2.5380 H         1 RES1    0.0000
     37 C10B       1.9644   -1.3982   -1.5151 C.ar      1 RES1    0.0000
     38 H8B        2.8035   -1.0255   -1.6621 H         1 RES1    0.0000
     39 C11B       1.0451   -0.6711   -0.7718 C.ar      1 RES1    0.0000
     40 C12B      -0.4862   -2.5144   -1.1253 C.ar      1 RES1    0.0000
@<TRIPOS>BOND
     1    1    2 ar
     2    2    3 ar
     3    3    4 1
     4    5    3 ar
     5    6    5 1
     6    7    5 ar
     7    8    7 1
     8    9    8 1
     9   10    8 1
    10   11    8 1
    11   12   11 1
    12   13   11 1
    13   14   11 1
    14   15   14 ar
    15   16   15 1
    16   17   15 ar
    17   18   17 1
    18   19    1 ar
    19   20    1 ar
    20   21   22 ar
    21   22   19 ar
    22   23   22 ar
    23   24   23 1
    24   25   23 ar
    25   26   25 1
    26   27   25 ar
    27   28   27 1
    28   29   28 1
    29   30   28 1
    30   31   28 1
    31   32   31 1
    32   33   31 1
    33   34   31 1
    34   35   34 ar
    35   36   35 1
    36   37   35 ar
    37   38   37 1
    38   39    2 ar
    39   40   21 ar
    40    7   20 ar
    41   14   20 ar
    42   17   19 ar
    43   21   39 ar
    44   27   40 ar
    45   34   40 ar
    46   37   39 ar
@<TRIPOS>SUBSTRUCTURE
     1 RES1 1

@<TRIPOS>CRYSIN
   7.7067    8.2568   12.0508  90.0000 101.9810  90.0000 231 1

