# MOL2 file generated by ConQuest
# Please check atom types

@<TRIPOS>MOLECULE
REYKAJ
    39    43     1
SMALL
NO_CHARGES
****
Generated from CSD

@<TRIPOS>ATOM
      1 C1         5.7641    4.1740   11.6313 C.ar      1 RES1    0.0000
      2 H1         5.7149    4.1844   12.5597 H         1 RES1    0.0000
      3 C2         4.8628    4.8729   10.8846 C.ar      1 RES1    0.0000
      4 H2         4.2096    5.3756   11.3156 H         1 RES1    0.0000
      5 C3         4.8976    4.8533    9.4714 C.ar      1 RES1    0.0000
      6 C4         5.8339    4.0186    8.8081 C.ar      1 RES1    0.0000
      7 C5         5.8393    3.9732    7.3593 C.ar      1 RES1    0.0000
      8 C6         6.6136    3.0326    6.5933 C.ar      1 RES1    0.0000
      9 C7         6.9626    1.6890    7.0338 C.ar      1 RES1    0.0000
     10 C8         6.1361    0.8953    7.8895 C.ar      1 RES1    0.0000
     11 C9         6.5985   -0.3437    8.2827 C.ar      1 RES1    0.0000
     12 H3         6.0726   -0.8586    8.8516 H         1 RES1    0.0000
     13 C10        7.8308   -0.8535    7.8563 C.ar      1 RES1    0.0000
     14 H4         8.1524   -1.6550    8.2014 H         1 RES1    0.0000
     15 C11        6.7962    3.3575    9.6083 C.ar      1 RES1    0.0000
     16 H5         7.4633    2.8568    9.1958 H         1 RES1    0.0000
     17 C12        6.7692    3.4374   10.9809 C.ar      1 RES1    0.0000
     18 H6         7.4201    3.0012   11.4827 H         1 RES1    0.0000
     19 C13        5.1405    4.9905    6.6595 C.ar      1 RES1    0.0000
     20 C14        4.2130    5.8175    7.3688 C.ar      1 RES1    0.0000
     21 H7         3.7055    6.4383    6.8989 H         1 RES1    0.0000
     22 C15        4.0586    5.7170    8.7054 C.ar      1 RES1    0.0000
     23 H8         3.3990    6.2157    9.1314 H         1 RES1    0.0000
     24 C16        5.4184    5.2180    5.2876 C.ar      1 RES1    0.0000
     25 H9         4.9112    5.8328    4.8073 H         1 RES1    0.0000
     26 C17        6.4254    4.5396    4.6700 C.ar      1 RES1    0.0000
     27 H10        6.7015    4.7966    3.8209 H         1 RES1    0.0000
     28 C18        7.0583    3.4394    5.3148 C.ar      1 RES1    0.0000
     29 C19        8.1147    1.0859    6.4600 C.ar      1 RES1    0.0000
     30 C20        8.7404    1.7004    5.3226 C.ar      1 RES1    0.0000
     31 H11        9.5476    1.3661    5.0026 H         1 RES1    0.0000
     32 C21        8.1658    2.7610    4.7139 C.ar      1 RES1    0.0000
     33 H12        8.4941    3.0542    3.8953 H         1 RES1    0.0000
     34 C22        8.5565   -0.1626    6.9273 C.ar      1 RES1    0.0000
     35 H13        9.3501   -0.5221    6.6010 H         1 RES1    0.0000
     36 C23        4.7264    1.2629    8.2638 C.3       1 RES1    0.0000
     37 H14        4.2028    0.4638    8.3624 H         1 RES1    0.0000
     38 H15        4.3447    1.8113    7.5753 H         1 RES1    0.0000
     39 H16        4.7318    1.7477    9.0932 H         1 RES1    0.0000
@<TRIPOS>BOND
     1    1    2 1
     2    3    1 ar
     3    4    3 1
     4    5    3 ar
     5    6    5 ar
     6    7    6 ar
     7    8    7 ar
     8    9    8 ar
     9   10    9 ar
    10   11   10 ar
    11   12   11 1
    12   13   11 ar
    13   14   13 1
    14   15    6 ar
    15   16   15 1
    16   17    1 ar
    17   18   17 1
    18   19    7 ar
    19   20   19 ar
    20   21   20 1
    21   22    5 ar
    22   23   22 1
    23   24   19 ar
    24   25   24 1
    25   26   24 ar
    26   27   26 1
    27   28    8 ar
    28   29    9 ar
    29   30   29 ar
    30   31   30 1
    31   32   28 ar
    32   33   32 1
    33   34   13 ar
    34   35   34 1
    35   36   10 1
    36   37   36 1
    37   38   36 1
    38   39   36 1
    39   15   17 ar
    40   20   22 ar
    41   26   28 ar
    42   29   34 ar
    43   30   32 ar
@<TRIPOS>SUBSTRUCTURE
     1 RES1 1

@<TRIPOS>CRYSIN
  11.3527   13.2503   20.1310  90.0000  90.0000  90.0000  61 1

