# MOL2 file generated by ConQuest
# Please check atom types

@<TRIPOS>MOLECULE
RIBYIL
    58    63     1
SMALL
NO_CHARGES
****
Generated from CSD

@<TRIPOS>ATOM
      1 C1        -2.3740    1.3517    9.0911 C.ar      1 RES1    0.0000
      2 H1        -2.6794    1.9829    8.4141 H         1 RES1    0.0000
      3 C2        -3.1311    1.0396   10.1617 C.ar      1 RES1    0.0000
      4 H2        -4.0190    1.4536   10.2864 H         1 RES1    0.0000
      5 C3        -2.6734    0.1343   11.1282 C.ar      1 RES1    0.0000
      6 H3        -3.1856   -0.0790   11.9164 H         1 RES1    0.0000
      7 C4        -1.4731   -0.4582   10.9877 C.ar      1 RES1    0.0000
      8 H4        -1.0978   -1.1139   11.6284 H         1 RES1    0.0000
      9 C5        -0.6275   -0.1619    9.8715 C.ar      1 RES1    0.0000
     10 C6         2.7204   -1.0641    8.5172 C.ar      1 RES1    0.0000
     11 H5         2.9687   -1.6906    9.2234 H         1 RES1    0.0000
     12 C7         3.5161   -0.7908    7.4701 C.ar      1 RES1    0.0000
     13 H6         4.3665   -1.2403    7.3767 H         1 RES1    0.0000
     14 C8         3.1042    0.1383    6.4946 C.ar      1 RES1    0.0000
     15 H7         3.6760    0.3239    5.7288 H         1 RES1    0.0000
     16 C9         1.9006    0.7545    6.5960 C.ar      1 RES1    0.0000
     17 H8         1.6150    1.3746    5.8996 H         1 RES1    0.0000
     18 C10        1.0072    0.4918    7.6737 C.ar      1 RES1    0.0000
     19 C11       -0.2662    1.0843    7.7783 C.ar      1 RES1    0.0000
     20 C12       -1.0811    0.7734    8.8840 C.ar      1 RES1    0.0000
     21 C13        0.6202   -0.7537    9.7293 C.ar      1 RES1    0.0000
     22 H9         0.9249   -1.4220   10.4227 H         1 RES1    0.0000
     23 C14        1.4505   -0.4482    8.6642 C.ar      1 RES1    0.0000
     24 C15       -0.7411    2.0445    6.7112 C.3       1 RES1    0.0000
     25 H10       -1.7562    2.0066    6.6426 H         1 RES1    0.0000
     26 H11       -0.3607    1.7799    5.8116 H         1 RES1    0.0000
     27 C16       -0.3153    3.4991    6.9467 C.3       1 RES1    0.0000
     28 H12       -0.7151    3.8473    7.8151 H         1 RES1    0.0000
     29 H13        0.6926    3.5550    7.0581 H         1 RES1    0.0000
     30 C1B        1.3157    6.5483    3.6537 C.ar      1 RES1    0.0000
     31 H1B        1.6211    5.9171    4.3307 H         1 RES1    0.0000
     32 C2B        2.0728    6.8604    2.5831 C.ar      1 RES1    0.0000
     33 H2B        2.9606    6.4464    2.4585 H         1 RES1    0.0000
     34 C3B        1.6151    7.7657    1.6167 C.ar      1 RES1    0.0000
     35 H3B        2.1273    7.9790    0.8284 H         1 RES1    0.0000
     36 C4B        0.4148    8.3582    1.7571 C.ar      1 RES1    0.0000
     37 H4B        0.0395    9.0139    1.1164 H         1 RES1    0.0000
     38 C5B       -0.4309    8.0619    2.8733 C.ar      1 RES1    0.0000
     39 C6B       -3.7788    8.9641    4.2276 C.ar      1 RES1    0.0000
     40 H5B       -4.0270    9.5906    3.5214 H         1 RES1    0.0000
     41 C7B       -4.5745    8.6908    5.2747 C.ar      1 RES1    0.0000
     42 H6B       -5.4249    9.1403    5.3681 H         1 RES1    0.0000
     43 C8B       -4.1626    7.7618    6.2502 C.ar      1 RES1    0.0000
     44 H7B       -4.7343    7.5761    7.0160 H         1 RES1    0.0000
     45 C9B       -2.9589    7.1456    6.1489 C.ar      1 RES1    0.0000
     46 H8B       -2.6734    6.5254    6.8452 H         1 RES1    0.0000
     47 C10B      -2.0655    7.4082    5.0712 C.ar      1 RES1    0.0000
     48 C11B      -0.7922    6.8157    4.9665 C.ar      1 RES1    0.0000
     49 C12B       0.0228    7.1266    3.8608 C.ar      1 RES1    0.0000
     50 C13B      -1.6785    8.6537    3.0156 C.ar      1 RES1    0.0000
     51 H9B       -1.9832    9.3220    2.3221 H         1 RES1    0.0000
     52 C14B      -2.5088    8.3482    4.0806 C.ar      1 RES1    0.0000
     53 C15B      -0.3172    5.8555    6.0337 C.3       1 RES1    0.0000
     54 H10B       0.6979    5.8934    6.1022 H         1 RES1    0.0000
     55 H11B      -0.6977    6.1201    6.9332 H         1 RES1    0.0000
     56 C16B      -0.7430    4.4009    5.7981 C.3       1 RES1    0.0000
     57 H12B      -0.3433    4.0527    4.9297 H         1 RES1    0.0000
     58 H13B      -1.7509    4.3450    5.6867 H         1 RES1    0.0000
@<TRIPOS>BOND
     1    1    2 1
     2    3    1 ar
     3    4    3 1
     4    5    3 ar
     5    6    5 1
     6    7    5 ar
     7    8    7 1
     8    9    7 ar
     9   10   11 1
    10   12   10 ar
    11   13   12 1
    12   14   12 ar
    13   15   14 1
    14   16   14 ar
    15   17   16 1
    16   18   16 ar
    17   19   18 ar
    18   20    1 ar
    19   21    9 ar
    20   22   21 1
    21   23   10 ar
    22   24   19 1
    23   25   24 1
    24   26   24 1
    25   27   24 1
    26   28   27 1
    27   29   27 1
    28   30   31 1
    29   32   30 ar
    30   33   32 1
    31   34   32 ar
    32   35   34 1
    33   36   34 ar
    34   37   36 1
    35   38   36 ar
    36   39   40 1
    37   41   39 ar
    38   42   41 1
    39   43   41 ar
    40   44   43 1
    41   45   43 ar
    42   46   45 1
    43   47   45 ar
    44   48   47 ar
    45   49   30 ar
    46   50   38 ar
    47   51   50 1
    48   52   39 ar
    49   53   48 1
    50   54   53 1
    51   55   53 1
    52   56   27 1
    53   57   56 1
    54   58   56 1
    55    9   20 ar
    56   18   23 ar
    57   19   20 ar
    58   21   23 ar
    59   38   49 ar
    60   47   52 ar
    61   48   49 ar
    62   50   52 ar
    63   53   56 1
@<TRIPOS>SUBSTRUCTURE
     1 RES1 1

@<TRIPOS>CRYSIN
  11.3964    7.9000   12.7887  90.0000  94.7470  90.0000 231 1

