# MOL2 file generated by ConQuest
# Please check atom types

@<TRIPOS>MOLECULE
RIWSIB
    48    58     1
SMALL
NO_CHARGES
****
Generated from CSD

@<TRIPOS>ATOM
      1 C1        -0.8421    3.9445   30.9786 C.ar      1 RES1    0.0000
      2 H1        -1.4701    3.4243   31.4660 H         1 RES1    0.0000
      3 C2         0.2326    4.5447   31.6765 C.ar      1 RES1    0.0000
      4 H2         0.3691    4.3769   32.6026 H         1 RES1    0.0000
      5 C3         1.0733    5.3783   30.9757 C.ar      1 RES1    0.0000
      6 C4         2.4650    5.9453   31.2954 C.3       1 RES1    0.0000
      7 H3         2.4049    6.7038   31.9295 H         1 RES1    0.0000
      8 H4         3.0559    5.2485   31.6786 H         1 RES1    0.0000
      9 C5         2.9659    6.4049   29.9292 C.ar      1 RES1    0.0000
     10 C6         4.2104    6.4099   29.3187 C.ar      1 RES1    0.0000
     11 C7         4.2419    6.4738   27.8996 C.ar      1 RES1    0.0000
     12 C8         5.3722    5.7681   27.3842 C.ar      1 RES1    0.0000
     13 C9         5.3935    5.1380   26.1204 C.ar      1 RES1    0.0000
     14 C10        6.5418    4.3426   25.8828 C.ar      1 RES1    0.0000
     15 H5         6.6720    3.9507   25.0276 H         1 RES1    0.0000
     16 C11       -1.0138    4.0857   29.6186 C.ar      1 RES1    0.0000
     17 H6        -1.7052    3.6024   29.1811 H         1 RES1    0.0000
     18 C12        5.6036    5.9329   29.7612 C.3       1 RES1    0.0000
     19 H7         6.1302    6.6767   30.1494 H         1 RES1    0.0000
     20 H8         5.5361    5.2024   30.4239 H         1 RES1    0.0000
     21 C13        6.2262    5.4363   28.4493 C.ar      1 RES1    0.0000
     22 C14        4.1302    5.0934   25.3561 C.ar      1 RES1    0.0000
     23 C15        3.0812    5.8842   25.8450 C.ar      1 RES1    0.0000
     24 C16        1.7201    5.4616   25.7201 C.ar      1 RES1    0.0000
     25 C17        0.9754    5.7991   26.8841 C.ar      1 RES1    0.0000
     26 C18        1.8661    6.5679   27.7063 C.ar      1 RES1    0.0000
     27 C19        1.8269    6.4173   29.0669 C.ar      1 RES1    0.0000
     28 C20        0.7712    5.6558   29.6337 C.ar      1 RES1    0.0000
     29 C21       -0.1777    4.9382   28.8638 C.ar      1 RES1    0.0000
     30 C22        0.0121    4.9202   27.4004 C.ar      1 RES1    0.0000
     31 C23       -0.3573    3.7839   26.5741 C.ar      1 RES1    0.0000
     32 H9        -1.0927    3.2382   26.8283 H         1 RES1    0.0000
     33 C24        0.3465    3.4888   25.4276 C.ar      1 RES1    0.0000
     34 C25        0.4359    2.2239   24.5960 C.3       1 RES1    0.0000
     35 H10       -0.2782    2.2060   23.9117 H         1 RES1    0.0000
     36 H11        0.3471    1.4219   25.1693 H         1 RES1    0.0000
     37 C26        1.8523    2.2664   23.9182 C.3       1 RES1    0.0000
     38 H12        2.4077    1.5014   24.2157 H         1 RES1    0.0000
     39 H13        1.7704    2.2394   22.9316 H         1 RES1    0.0000
     40 C27        2.4617    3.5844   24.3731 C.ar      1 RES1    0.0000
     41 C28        3.7797    3.9704   24.5195 C.ar      1 RES1    0.0000
     42 H14        4.4636    3.4911   24.0652 H         1 RES1    0.0000
     43 C29        1.4402    4.3019   25.0494 C.ar      1 RES1    0.0000
     44 C30        3.1426    6.6118   27.0834 C.ar      1 RES1    0.0000
     45 C31        7.4691    4.1331   26.8791 C.ar      1 RES1    0.0000
     46 H15        8.2560    3.6406   26.6719 H         1 RES1    0.0000
     47 C32        7.3015    4.6157   28.1863 C.ar      1 RES1    0.0000
     48 H16        7.9144    4.3817   28.8741 H         1 RES1    0.0000
@<TRIPOS>BOND
     1    1    2 1
     2    3    1 ar
     3    4    3 1
     4    5    3 ar
     5    6    5 1
     6    7    6 1
     7    8    6 1
     8    9    6 1
     9   10    9 ar
    10   11   10 ar
    11   12   11 1
    12   13   12 ar
    13   14   13 ar
    14   15   14 1
    15   16    1 ar
    16   17   16 1
    17   18   10 1
    18   19   18 1
    19   20   18 1
    20   21   12 ar
    21   22   13 1
    22   23   22 ar
    23   24   23 ar
    24   25   24 ar
    25   26   25 1
    26   27    9 ar
    27   28    5 ar
    28   29   16 ar
    29   30   25 ar
    30   31   30 ar
    31   32   31 1
    32   33   31 ar
    33   34   33 1
    34   35   34 1
    35   36   34 1
    36   37   34 1
    37   38   37 1
    38   39   37 1
    39   40   37 1
    40   41   22 ar
    41   42   41 1
    42   43   24 ar
    43   44   11 ar
    44   45   14 ar
    45   46   45 1
    46   47   21 ar
    47   48   47 1
    48   18   21 1
    49   23   44 1
    50   26   27 ar
    51   26   44 ar
    52   27   28 1
    53   28   29 ar
    54   29   30 1
    55   33   43 ar
    56   40   41 ar
    57   40   43 ar
    58   45   47 ar
@<TRIPOS>SUBSTRUCTURE
     1 RES1 1

@<TRIPOS>CRYSIN
  18.3650   18.3650   29.5206  90.0000  90.0000 120.0000 233 1

