# MOL2 file generated by ConQuest
# Please check atom types

@<TRIPOS>MOLECULE
RUNZEH
    50    55     1
SMALL
NO_CHARGES
****
Generated from CSD

@<TRIPOS>ATOM
      1 C1         3.8439    4.2175    1.0780 C.ar      1 RES1    0.0000
      2 C2         3.7590    4.9818   -0.0690 C.ar      1 RES1    0.0000
      3 H1         3.0289    4.8548   -0.6641 H         1 RES1    0.0000
      4 C3         4.7308    5.9376   -0.3662 C.ar      1 RES1    0.0000
      5 H2         4.6790    6.4219   -1.1821 H         1 RES1    0.0000
      6 C4         5.7634    6.1864    0.5074 C.ar      1 RES1    0.0000
      7 H3         6.4129    6.8449    0.2879 H         1 RES1    0.0000
      8 C5         5.8750    5.4764    1.7301 C.ar      1 RES1    0.0000
      9 C6         6.9758    5.6855    2.6621 C.ar      1 RES1    0.0000
     10 C7         7.8040    6.8723    2.6855 C.ar      1 RES1    0.0000
     11 C8         7.3848    8.1100    2.1348 C.ar      1 RES1    0.0000
     12 H4         6.5226    8.1767    1.7431 H         1 RES1    0.0000
     13 C9         8.1970    9.2109    2.1562 C.ar      1 RES1    0.0000
     14 H5         7.8933   10.0269    1.7771 H         1 RES1    0.0000
     15 C10        9.4722    9.1456    2.7323 C.ar      1 RES1    0.0000
     16 H6        10.0432    9.9039    2.6985 H         1 RES1    0.0000
     17 C11        9.9063    7.9879    3.3492 C.ar      1 RES1    0.0000
     18 C12        9.0590    6.8435    3.3804 C.ar      1 RES1    0.0000
     19 C13        9.3775    5.6933    4.1802 C.ar      1 RES1    0.0000
     20 H7        10.2244    5.6359    4.6059 H         1 RES1    0.0000
     21 C14        8.4823    4.6935    4.3315 C.ar      1 RES1    0.0000
     22 H8         8.6697    3.9919    4.9437 H         1 RES1    0.0000
     23 C15        7.2595    4.6657    3.5926 C.ar      1 RES1    0.0000
     24 C16        6.3218    3.6214    3.8024 C.ar      1 RES1    0.0000
     25 H9         6.5017    2.9614    4.4620 H         1 RES1    0.0000
     26 C17        5.1724    3.5432    3.0820 C.ar      1 RES1    0.0000
     27 H10        4.5194    2.8913    3.3082 H         1 RES1    0.0000
     28 C18        4.9333    4.4323    1.9857 C.ar      1 RES1    0.0000
     29 C19        2.8396    3.1395    1.3023 C.ar      1 RES1    0.0000
     30 C20        2.0925    3.0541    2.4801 C.ar      1 RES1    0.0000
     31 H11        2.2164    3.7020    3.1632 H         1 RES1    0.0000
     32 C21        1.1705    2.0308    2.6614 C.ar      1 RES1    0.0000
     33 H12        0.6665    1.9871    3.4658 H         1 RES1    0.0000
     34 C22        0.9797    1.0712    1.6754 C.ar      1 RES1    0.0000
     35 H13        0.3647    0.3602    1.8111 H         1 RES1    0.0000
     36 C23        1.6950    1.1614    0.4904 C.ar      1 RES1    0.0000
     37 H14        1.5559    0.5194   -0.1949 H         1 RES1    0.0000
     38 C24        2.6106    2.1815    0.3016 C.ar      1 RES1    0.0000
     39 H15        3.0906    2.2340   -0.5168 H         1 RES1    0.0000
     40 C25       11.2447    7.9796    4.0069 C.ar      1 RES1    0.0000
     41 C26       12.2140    7.0327    3.6774 C.ar      1 RES1    0.0000
     42 H16       12.0252    6.3775    3.0170 H         1 RES1    0.0000
     43 C27       13.4526    7.0374    4.3044 C.ar      1 RES1    0.0000
     44 H17       14.1032    6.3836    4.0766 H         1 RES1    0.0000
     45 C28       13.7402    7.9996    5.2651 C.ar      1 RES1    0.0000
     46 H18       14.5876    8.0012    5.6951 H         1 RES1    0.0000
     47 C29       12.7926    8.9582    5.5980 C.ar      1 RES1    0.0000
     48 H19       12.9899    9.6171    6.2538 H         1 RES1    0.0000
     49 C30       11.5550    8.9493    4.9682 C.ar      1 RES1    0.0000
     50 H20       10.9103    9.6098    5.1930 H         1 RES1    0.0000
@<TRIPOS>BOND
     1    1    2 ar
     2    2    3 1
     3    4    2 ar
     4    5    4 1
     5    6    4 ar
     6    7    6 1
     7    8    6 ar
     8    9    8 ar
     9   10    9 ar
    10   11   10 ar
    11   12   11 1
    12   13   11 ar
    13   14   13 1
    14   15   13 ar
    15   16   15 1
    16   17   15 ar
    17   18   10 ar
    18   19   18 ar
    19   20   19 1
    20   21   19 ar
    21   22   21 1
    22   23    9 ar
    23   24   23 ar
    24   25   24 1
    25   26   24 ar
    26   27   26 1
    27   28    1 ar
    28   29    1 1
    29   30   29 ar
    30   31   30 1
    31   32   30 ar
    32   33   32 1
    33   34   32 ar
    34   35   34 1
    35   36   34 ar
    36   37   36 1
    37   38   29 ar
    38   39   38 1
    39   40   17 1
    40   41   40 ar
    41   42   41 1
    42   43   41 ar
    43   44   43 1
    44   45   43 ar
    45   46   45 1
    46   47   45 ar
    47   48   47 1
    48   49   40 ar
    49   50   49 1
    50    8   28 ar
    51   17   18 ar
    52   21   23 ar
    53   26   28 ar
    54   36   38 ar
    55   47   49 ar
@<TRIPOS>SUBSTRUCTURE
     1 RES1 1

@<TRIPOS>CRYSIN
   9.4832    9.6223   11.9463  76.4530  73.8740  70.7370   2 1

