# MOL2 file generated by ConQuest
# Please check atom types

@<TRIPOS>MOLECULE
SAPTUZ
    50    53     1
SMALL
NO_CHARGES
****
Generated from CSD

@<TRIPOS>ATOM
      1 C1         2.9320    6.4123    3.7688 C.ar      1 RES1    0.0000
      2 C2         1.6948    6.4313    3.0634 C.ar      1 RES1    0.0000
      3 C3         1.2788    5.0312    2.8036 C.ar      1 RES1    0.0000
      4 C4         3.5738    7.5929    4.1402 C.ar      1 RES1    0.0000
      5 C5         1.7550    8.8443    3.0685 C.ar      1 RES1    0.0000
      6 C6         1.1053    7.6472    2.6980 C.ar      1 RES1    0.0000
      7 C7         2.9733    8.8165    3.7722 C.ar      1 RES1    0.0000
      8 C8         3.3363    4.9877    3.9469 C.ar      1 RES1    0.0000
      9 C9        -0.1978    7.6591    1.9330 C.3       1 RES1    0.0000
     10 H1        -0.2285    6.8734    1.3324 H         1 RES1    0.0000
     11 H2        -0.2340    8.4709    1.3690 H         1 RES1    0.0000
     12 C10        4.9186    7.5278    4.8362 C.3       1 RES1    0.0000
     13 H3         4.9116    6.7795    5.4854 H         1 RES1    0.0000
     14 H4         5.0633    8.3678    5.3414 H         1 RES1    0.0000
     15 C11        2.3030    4.2171    3.3522 C.ar      1 RES1    0.0000
     16 C12        3.6579   10.1263    4.1419 C.3       1 RES1    0.0000
     17 H5         4.6374    9.9813    4.1718 H         1 RES1    0.0000
     18 H6         3.4730   10.7972    3.4366 H         1 RES1    0.0000
     19 C13        0.2027    4.3869    2.2209 C.ar      1 RES1    0.0000
     20 H7        -0.5155    4.8909    1.8537 H         1 RES1    0.0000
     21 C14        4.4205    2.9043    4.4767 C.ar      1 RES1    0.0000
     22 H8         5.1584    2.4501    4.8652 H         1 RES1    0.0000
     23 C15        1.1755    2.2064    2.7065 C.ar      1 RES1    0.0000
     24 H9         1.1150    1.2606    2.6613 H         1 RES1    0.0000
     25 C16        2.2993    2.8140    3.3233 C.ar      1 RES1    0.0000
     26 C17        4.4004    4.3177    4.4997 C.ar      1 RES1    0.0000
     27 H10        5.1163    4.8016    4.8950 H         1 RES1    0.0000
     28 C18        1.1563   10.1724    2.6477 C.3       1 RES1    0.0000
     29 H11        1.3856   10.8591    3.3224 H         1 RES1    0.0000
     30 H12        0.1700   10.0890    2.6221 H         1 RES1    0.0000
     31 C19        0.1788    2.9811    2.1766 C.ar      1 RES1    0.0000
     32 H13       -0.5593    2.5509    1.7617 H         1 RES1    0.0000
     33 C20       -1.4223    7.6327    2.8530 C.3       1 RES1    0.0000
     34 H14       -1.3764    6.8459    3.4349 H         1 RES1    0.0000
     35 H15       -2.2374    7.5908    2.3104 H         1 RES1    0.0000
     36 H16       -1.4367    8.4457    3.4008 H         1 RES1    0.0000
     37 C21        3.4129    2.1698    3.9136 C.ar      1 RES1    0.0000
     38 H17        3.4621    1.2216    3.9179 H         1 RES1    0.0000
     39 C22        6.0714    7.3288    3.8583 C.3       1 RES1    0.0000
     40 H18        5.9005    6.5365    3.3079 H         1 RES1    0.0000
     41 H19        6.9059    7.2058    4.3575 H         1 RES1    0.0000
     42 H20        6.1491    8.1157    3.2807 H         1 RES1    0.0000
     43 C23        1.6577   10.6322    1.2719 C.3       1 RES1    0.0000
     44 H21        2.6340   10.7193    1.2923 H         1 RES1    0.0000
     45 H22        1.2558   11.4985    1.0504 H         1 RES1    0.0000
     46 H23        1.4038    9.9721    0.5938 H         1 RES1    0.0000
     47 C24        3.1976   10.6808    5.4837 C.3       1 RES1    0.0000
     48 H24        2.2337   10.8568    5.4505 H         1 RES1    0.0000
     49 H25        3.6759   11.5146    5.6745 H         1 RES1    0.0000
     50 H26        3.3853   10.0271    6.1891 H         1 RES1    0.0000
@<TRIPOS>BOND
     1    1    2 ar
     2    2    3 ar
     3    3   15 ar
     4    4    1 ar
     5    5    6 ar
     6    6    2 ar
     7    7    4 ar
     8    8    1 ar
     9    9    6 1
    10   10    9 1
    11   11    9 1
    12   12    4 1
    13   13   12 1
    14   14   12 1
    15   15    8 ar
    16   16    7 1
    17   17   16 1
    18   18   16 1
    19   19    3 ar
    20   20   19 1
    21   21   22 1
    22   23   24 1
    23   25   15 ar
    24   26    8 ar
    25   27   26 1
    26   28    5 1
    27   29   28 1
    28   30   28 1
    29   31   19 ar
    30   32   31 1
    31   33    9 1
    32   34   33 1
    33   35   33 1
    34   36   33 1
    35   37   21 ar
    36   38   37 1
    37   39   12 1
    38   40   39 1
    39   41   39 1
    40   42   39 1
    41   43   28 1
    42   44   43 1
    43   45   43 1
    44   46   43 1
    45   47   16 1
    46   48   47 1
    47   49   47 1
    48   50   47 1
    49    5    7 ar
    50   21   26 ar
    51   23   25 ar
    52   23   31 ar
    53   25   37 ar
@<TRIPOS>SUBSTRUCTURE
     1 RES1 1

@<TRIPOS>CRYSIN
  18.2792   22.9191    8.5190  90.0000  90.0000  90.0000  41 1

