# MOL2 file generated by ConQuest
# Please check atom types

@<TRIPOS>MOLECULE
SEHNAW01
    44    48     1
SMALL
NO_CHARGES
****
Generated from CSD

@<TRIPOS>ATOM
      1 C1         2.6224    9.9429    1.9239 C.ar      1 RES1    0.0000
      2 C2        -0.2153    6.0640    5.4799 C.ar      1 RES1    0.0000
      3 C3         0.7434    6.0410    4.4314 C.ar      1 RES1    0.0000
      4 C4         3.5677   11.0059    1.8038 C.ar      1 RES1    0.0000
      5 C5         3.8660    9.1430    3.8377 C.ar      1 RES1    0.0000
      6 H1         3.9904    8.5168    4.5154 H         1 RES1    0.0000
      7 C6         1.5811    9.8705    0.9804 C.ar      1 RES1    0.0000
      8 H2         0.9570    9.1852    1.0452 H         1 RES1    0.0000
      9 C7         0.7602    4.9383    3.5464 C.ar      1 RES1    0.0000
     10 C8         4.6323   11.1084    2.7175 C.ar      1 RES1    0.0000
     11 H3         5.2391   11.8082    2.6377 H         1 RES1    0.0000
     12 C9        -0.2499    3.9260    3.6403 C.ar      1 RES1    0.0000
     13 C10       -1.2058    3.9960    4.6487 C.ar      1 RES1    0.0000
     14 H4        -1.8672    3.3445    4.6969 H         1 RES1    0.0000
     15 C11        3.4115   11.9325    0.7431 C.ar      1 RES1    0.0000
     16 H5         4.0211   12.6299    0.6562 H         1 RES1    0.0000
     17 C12        2.7925    8.9994    2.9963 C.ar      1 RES1    0.0000
     18 C13        4.7863   10.1999    3.7155 C.ar      1 RES1    0.0000
     19 H6         5.4951   10.2747    4.3131 H         1 RES1    0.0000
     20 C14        1.8572    7.8750    3.1776 C.2       1 RES1    0.0000
     21 H7         1.3407    7.6373    2.4405 H         1 RES1    0.0000
     22 C15       -0.2688    7.1221    6.4491 C.ar      1 RES1    0.0000
     23 H8         0.3469    7.8170    6.4035 H         1 RES1    0.0000
     24 C16        1.6787    7.1679    4.2825 C.2       1 RES1    0.0000
     25 H9         2.1857    7.4020    5.0263 H         1 RES1    0.0000
     26 C17       -1.1913    5.0252    5.5873 C.ar      1 RES1    0.0000
     27 C18        1.4634   10.7911   -0.0361 C.ar      1 RES1    0.0000
     28 H10        0.7652   10.7211   -0.6458 H         1 RES1    0.0000
     29 C19       -2.1578    5.0807    6.6356 C.ar      1 RES1    0.0000
     30 H11       -2.7986    4.4110    6.7044 H         1 RES1    0.0000
     31 C20       -1.2074    7.1233    7.4363 C.ar      1 RES1    0.0000
     32 H12       -1.2208    7.8158    8.0582 H         1 RES1    0.0000
     33 C21        2.3903   11.8299   -0.1535 C.ar      1 RES1    0.0000
     34 H13        2.3106   12.4501   -0.8429 H         1 RES1    0.0000
     35 C22        1.7969    4.7392    2.5736 C.ar      1 RES1    0.0000
     36 H14        2.4846    5.3618    2.5002 H         1 RES1    0.0000
     37 C23       -2.1572    6.0893    7.5275 C.ar      1 RES1    0.0000
     38 H15       -2.7891    6.1026    8.2086 H         1 RES1    0.0000
     39 C24        0.7507    2.7026    1.8230 C.ar      1 RES1    0.0000
     40 H16        0.7507    1.9763    1.2423 H         1 RES1    0.0000
     41 C25       -0.2387    2.8401    2.7209 C.ar      1 RES1    0.0000
     42 H17       -0.9269    2.2152    2.7414 H         1 RES1    0.0000
     43 C26        1.7847    3.6497    1.7569 C.ar      1 RES1    0.0000
     44 H18        2.4740    3.5303    1.1438 H         1 RES1    0.0000
@<TRIPOS>BOND
     1    1    4 ar
     2    2    3 ar
     3    3    9 ar
     4    4   10 ar
     5    5    6 1
     6    7    1 ar
     7    8    7 1
     8    9   12 ar
     9   10   11 1
    10   12   13 ar
    11   13   14 1
    12   15    4 ar
    13   16   15 1
    14   17    1 ar
    15   18    5 ar
    16   19   18 1
    17   20   17 1
    18   21   20 1
    19   22    2 ar
    20   23   22 1
    21   24    3 1
    22   25   24 1
    23   26    2 ar
    24   27    7 ar
    25   28   27 1
    26   29   26 ar
    27   30   29 1
    28   31   22 ar
    29   32   31 1
    30   33   15 ar
    31   34   33 1
    32   35    9 ar
    33   36   35 1
    34   37   29 ar
    35   38   37 1
    36   39   40 1
    37   41   12 ar
    38   42   41 1
    39   43   35 ar
    40   44   43 1
    41    5   17 ar
    42   10   18 ar
    43   13   26 ar
    44   20   24 2
    45   27   33 ar
    46   31   37 ar
    47   39   41 ar
    48   39   43 ar
@<TRIPOS>SUBSTRUCTURE
     1 RES1 1

@<TRIPOS>CRYSIN
   5.5771   12.0652   25.9356  90.0000  90.0000  90.0000  19 1

