# MOL2 file generated by ConQuest
# Please check atom types

@<TRIPOS>MOLECULE
SEQDUN
    47    52     1
SMALL
NO_CHARGES
****
Generated from CSD

@<TRIPOS>ATOM
      1 C1        26.7125    9.0923    1.4557 C.ar      1 RES1    0.0000
      2 C2        26.8945    7.7551    1.4908 C.ar      1 RES1    0.0000
      3 C3        28.1600    7.3022    1.0199 C.ar      1 RES1    0.0000
      4 C4        28.4784    5.9245    0.9912 C.ar      1 RES1    0.0000
      5 C5        29.6571    5.4766    0.4895 C.ar      1 RES1    0.0000
      6 C6        30.5918    6.3698   -0.0165 C.ar      1 RES1    0.0000
      7 C7        30.3436    7.7095    0.0100 C.ar      1 RES1    0.0000
      8 C8        29.1443    8.2333    0.5268 C.ar      1 RES1    0.0000
      9 C9        28.8879    9.6350    0.5232 C.ar      1 RES1    0.0000
     10 C10       27.6720    9.9804    0.9977 C.ar      1 RES1    0.0000
     11 C11       26.4064   10.4877    1.4127 C.2       1 RES1    0.0000
     12 C12       25.5379   11.5187    1.5022 C.2       1 RES1    0.0000
     13 C13       24.1566   11.3555    1.9724 C.ar      1 RES1    0.0000
     14 C14       23.8216   10.3333    2.8518 C.ar      1 RES1    0.0000
     15 C15       22.5272   10.1790    3.3091 C.ar      1 RES1    0.0000
     16 C16       21.5635   11.0557    2.9056 C.ar      1 RES1    0.0000
     17 C17       21.8820   12.0728    2.0305 C.ar      1 RES1    0.0000
     18 C18       23.1806   12.2639    1.5488 C.ar      1 RES1    0.0000
     19 C19       25.9474   12.8572    1.0715 C.ar      1 RES1    0.0000
     20 C20       27.2915   13.2494    1.1059 C.ar      1 RES1    0.0000
     21 C21       27.6802   14.4803    0.6622 C.ar      1 RES1    0.0000
     22 C22       26.7332   15.3646    0.1720 C.ar      1 RES1    0.0000
     23 C23       25.4097   15.0016    0.1512 C.ar      1 RES1    0.0000
     24 C24       24.9714   13.7542    0.6085 C.ar      1 RES1    0.0000
     25 C25       23.5032   13.3139    0.4960 C.3       1 RES1    0.0000
     26 C26       23.3295   12.6573   -0.8887 C.3       1 RES1    0.0000
     27 C27       22.5396   14.5107    0.5927 C.3       1 RES1    0.0000
     28 H1        26.2162    7.1655    1.8413 H         1 RES1    0.0000
     29 H2        27.8333    5.2932    1.3338 H         1 RES1    0.0000
     30 H3        29.8556    4.5354    0.4867 H         1 RES1    0.0000
     31 H4        31.4189    6.0472   -0.3942 H         1 RES1    0.0000
     32 H5        30.9971    8.3180   -0.3598 H         1 RES1    0.0000
     33 H6        29.5372   10.2713    0.1978 H         1 RES1    0.0000
     34 H7        24.5206    9.7362    3.1514 H         1 RES1    0.0000
     35 H8        22.2997    9.4592    3.9090 H         1 RES1    0.0000
     36 H9        20.6537   10.9646    3.2252 H         1 RES1    0.0000
     37 H10       21.1872   12.6776    1.7517 H         1 RES1    0.0000
     38 H11       27.9615   12.6523    1.4600 H         1 RES1    0.0000
     39 H12       28.6066   14.7498    0.6601 H         1 RES1    0.0000
     40 H13       27.0144   16.2274   -0.1512 H         1 RES1    0.0000
     41 H14       24.7522   15.6202   -0.1964 H         1 RES1    0.0000
     42 H15       23.9168   11.8932   -0.9375 H         1 RES1    0.0000
     43 H16       22.4196   12.3777   -1.0435 H         1 RES1    0.0000
     44 H17       23.5900   13.3000   -1.5596 H         1 RES1    0.0000
     45 H18       21.6173   14.2260    0.5139 H         1 RES1    0.0000
     46 H19       22.6719   14.9446    1.4435 H         1 RES1    0.0000
     47 H20       22.7464   15.1268   -0.1190 H         1 RES1    0.0000
@<TRIPOS>BOND
     1    1    2 ar
     2    2    3 ar
     3    3    4 ar
     4    4    5 ar
     5    5    6 ar
     6    6    7 ar
     7    7    8 ar
     8    8    3 ar
     9    9    8 ar
    10   10    1 ar
    11   11    1 1
    12   12   11 2
    13   13   12 1
    14   14   13 ar
    15   15   14 ar
    16   16   15 ar
    17   17   16 ar
    18   18   13 ar
    19   19   12 1
    20   20   19 ar
    21   21   20 ar
    22   22   21 ar
    23   23   22 ar
    24   24   19 ar
    25   25   18 1
    26   26   25 1
    27   27   25 1
    28   28    2 1
    29   29    4 1
    30   30    5 1
    31   31    6 1
    32   32    7 1
    33   33    9 1
    34   34   14 1
    35   35   15 1
    36   36   16 1
    37   37   17 1
    38   38   20 1
    39   39   21 1
    40   40   22 1
    41   41   23 1
    42   42   26 1
    43   43   26 1
    44   44   26 1
    45   45   27 1
    46   46   27 1
    47   47   27 1
    48    9   10 ar
    49   10   11 1
    50   17   18 ar
    51   23   24 ar
    52   24   25 1
@<TRIPOS>SUBSTRUCTURE
     1 RES1 1

@<TRIPOS>CRYSIN
  41.3570   12.6510    7.1672  90.0000  90.0000  90.0000  61 1

