# MOL2 file generated by ConQuest
# Please check atom types

@<TRIPOS>MOLECULE
SESPEL
    46    53     1
SMALL
NO_CHARGES
****
Generated from CSD

@<TRIPOS>ATOM
      1 C1         1.0806    4.6407    9.5037 C.ar      1 RES1    0.0000
      2 C2         1.7804    4.7734   10.7124 C.ar      1 RES1    0.0000
      3 C3         2.9360    5.5263   10.6551 C.ar      1 RES1    0.0000
      4 C4         3.3811    6.0076    9.3990 C.ar      1 RES1    0.0000
      5 C5         2.6931    5.7930    8.2151 C.ar      1 RES1    0.0000
      6 C6         1.4689    5.1018    8.2473 C.ar      1 RES1    0.0000
      7 C7         0.5587    4.8160    7.1693 C.ar      1 RES1    0.0000
      8 C8        -0.5949    4.1105    7.3616 C.ar      1 RES1    0.0000
      9 C9        -0.9943    3.6430    8.6680 C.ar      1 RES1    0.0000
     10 C10       -2.1300    2.9007    9.0300 C.ar      1 RES1    0.0000
     11 C11       -2.2989    2.5298   10.3507 C.ar      1 RES1    0.0000
     12 C12       -1.4050    2.8743   11.3795 C.ar      1 RES1    0.0000
     13 C13       -0.2988    3.6483   11.0712 C.ar      1 RES1    0.0000
     14 C14       -0.1374    3.9617    9.7126 C.ar      1 RES1    0.0000
     15 C15        0.9419    4.1359   11.7816 C.2       1 RES1    0.0000
     16 H1         3.3955    5.7542   11.4758 H         1 RES1    0.0000
     17 H2         4.2383    6.5095    9.4253 H         1 RES1    0.0000
     18 H3         3.0983    6.1870    7.3773 H         1 RES1    0.0000
     19 H4         0.7633    5.1456    6.2650 H         1 RES1    0.0000
     20 H5        -1.1582    3.9808    6.4729 H         1 RES1    0.0000
     21 H6        -2.7629    2.6394    8.3469 H         1 RES1    0.0000
     22 H7        -3.0778    1.9540   10.6005 H         1 RES1    0.0000
     23 H8        -1.6047    2.5391   12.2810 H         1 RES1    0.0000
     24 C16        1.0707    3.1335   15.2805 C.ar      1 RES1    0.0000
     25 C17        0.3108    3.5812   14.2025 C.ar      1 RES1    0.0000
     26 C18       -1.0444    3.7470   14.4211 C.ar      1 RES1    0.0000
     27 C19       -1.5771    3.3383   15.6635 C.ar      1 RES1    0.0000
     28 C20       -0.8083    2.8180   16.6834 C.ar      1 RES1    0.0000
     29 C21        0.5936    2.7137   16.5221 C.ar      1 RES1    0.0000
     30 C22        1.5896    2.2669   17.4615 C.ar      1 RES1    0.0000
     31 C23        2.9164    2.2856   17.1479 C.ar      1 RES1    0.0000
     32 C24        3.4106    2.7747   15.8804 C.ar      1 RES1    0.0000
     33 C25        4.7283    2.8839   15.4193 C.ar      1 RES1    0.0000
     34 C26        4.9771    3.3650   14.1590 C.ar      1 RES1    0.0000
     35 C27        3.9646    3.7801   13.2639 C.ar      1 RES1    0.0000
     36 C28        2.6434    3.7227   13.6902 C.ar      1 RES1    0.0000
     37 C29        2.4414    3.1992   14.9811 C.ar      1 RES1    0.0000
     38 C30        1.2722    3.9051   13.0864 C.2       1 RES1    0.0000
     39 H9        -1.6381    4.1247   13.7704 H         1 RES1    0.0000
     40 H10       -2.4940    3.4378   15.8209 H         1 RES1    0.0000
     41 H11       -1.2243    2.5191   17.5256 H         1 RES1    0.0000
     42 H12        1.2878    1.9437   18.4565 H         1 RES1    0.0000
     43 H13        3.5983    1.9628   17.8423 H         1 RES1    0.0000
     44 H14        5.4852    2.6314   15.9635 H         1 RES1    0.0000
     45 H15        5.8900    3.3998   13.8212 H         1 RES1    0.0000
     46 H16        4.1964    4.1139   12.3366 H         1 RES1    0.0000
@<TRIPOS>BOND
     1    1    2 ar
     2    2    3 ar
     3    3    4 ar
     4    4    5 ar
     5    5    6 ar
     6    6    1 ar
     7    7    6 ar
     8    8    7 ar
     9    9    8 ar
    10   10    9 ar
    11   11   10 ar
    12   12   11 ar
    13   13   12 ar
    14   14    1 ar
    15   15    2 1
    16   16    3 1
    17   17    4 1
    18   18    5 1
    19   19    7 1
    20   20    8 1
    21   21   10 1
    22   22   11 1
    23   23   12 1
    24   24   25 ar
    25   25   26 ar
    26   26   27 ar
    27   27   28 ar
    28   28   29 ar
    29   29   24 ar
    30   30   29 ar
    31   31   30 ar
    32   32   31 ar
    33   33   32 ar
    34   34   33 ar
    35   35   34 ar
    36   36   35 ar
    37   37   24 ar
    38   38   15 2
    39   39   26 1
    40   40   27 1
    41   41   28 1
    42   42   30 1
    43   43   31 1
    44   44   33 1
    45   45   34 1
    46   46   35 1
    47    9   14 ar
    48   13   14 ar
    49   13   15 1
    50   25   38 1
    51   32   37 ar
    52   36   37 ar
    53   36   38 1
@<TRIPOS>SUBSTRUCTURE
     1 RES1 1

@<TRIPOS>CRYSIN
  18.7160    3.9960   25.1430  90.0000 105.9100  90.0000  14 1

