# MOL2 file generated by ConQuest
# Please check atom types

@<TRIPOS>MOLECULE
SIDQIH
    58    63     1
SMALL
NO_CHARGES
****
Generated from CSD

@<TRIPOS>ATOM
      1 C1        10.5633    3.1248    3.8099 C.ar      1 RES1    0.0000
      2 C2         8.6848    3.7693    2.3944 C.ar      1 RES1    0.0000
      3 C3         9.8356    1.9692    4.2453 C.ar      1 RES1    0.0000
      4 C4         9.9925    3.9924    2.8565 C.ar      1 RES1    0.0000
      5 C5         7.9624    2.6107    2.8413 C.ar      1 RES1    0.0000
      6 C6         8.5633    1.7401    3.7383 C.ar      1 RES1    0.0000
      7 H1         8.0999    0.9798    4.0086 H         1 RES1    0.0000
      8 C7        13.6554    8.2110   -0.7897 C.ar      1 RES1    0.0000
      9 C8        12.0620    6.2593    0.4991 C.ar      1 RES1    0.0000
     10 C9        10.4468    1.0883    5.1818 C.ar      1 RES1    0.0000
     11 H2         9.9854    0.3316    5.4640 H         1 RES1    0.0000
     12 C10       14.4266    9.2647   -1.4527 C.2       1 RES1    0.0000
     13 H3        14.8030    9.9122   -0.9017 H         1 RES1    0.0000
     14 C11       11.8656    3.3231    4.3509 C.ar      1 RES1    0.0000
     15 H4        12.3625    4.0597    4.0747 H         1 RES1    0.0000
     16 C12       15.5067   10.4512   -4.8698 C.ar      1 RES1    0.0000
     17 C13       11.6839    1.3302    5.6701 C.ar      1 RES1    0.0000
     18 H5        12.0637    0.7421    6.2824 H         1 RES1    0.0000
     19 C14       13.2663    8.3426    0.5391 C.ar      1 RES1    0.0000
     20 H6        13.5386    9.0925    1.0168 H         1 RES1    0.0000
     21 C15       12.4890    7.3955    1.1668 C.ar      1 RES1    0.0000
     22 H7        12.2464    7.5204    2.0557 H         1 RES1    0.0000
     23 C16       10.8240    5.1056    2.3304 C.2       1 RES1    0.0000
     24 H8        11.0893    5.7628    2.9329 H         1 RES1    0.0000
     25 C17       14.6438    9.3933   -2.7467 C.2       1 RES1    0.0000
     26 H9        14.2806    8.7294   -3.2882 H         1 RES1    0.0000
     27 C18       13.2470    7.0572   -1.4500 C.ar      1 RES1    0.0000
     28 H10       13.5082    6.9190   -2.3326 H         1 RES1    0.0000
     29 C19       11.2088    5.2347    1.1038 C.2       1 RES1    0.0000
     30 H11       10.8989    4.5811    0.5194 H         1 RES1    0.0000
     31 C20       12.4012    2.4706    5.2543 C.ar      1 RES1    0.0000
     32 H12       13.2466    2.6374    5.6037 H         1 RES1    0.0000
     33 C21       12.4657    6.1199   -0.8238 C.ar      1 RES1    0.0000
     34 H13       12.1971    5.3669   -1.2986 H         1 RES1    0.0000
     35 C22       14.9892    9.4339   -5.6990 C.ar      1 RES1    0.0000
     36 H14       14.4991    8.7421   -5.3170 H         1 RES1    0.0000
     37 C23       16.2140   11.5092   -5.5042 C.ar      1 RES1    0.0000
     38 C24       15.3854   10.4506   -3.4401 C.ar      1 RES1    0.0000
     39 C25        8.0083    4.6684    1.5196 C.ar      1 RES1    0.0000
     40 H15        8.4495    5.4324    1.2251 H         1 RES1    0.0000
     41 C26        6.6321    2.3985    2.3613 C.ar      1 RES1    0.0000
     42 H16        6.1626    1.6418    2.6291 H         1 RES1    0.0000
     43 C27       15.9714   11.4777   -2.7352 C.ar      1 RES1    0.0000
     44 H17       15.9123   11.4777   -1.8083 H         1 RES1    0.0000
     45 C28       16.6547   12.5235   -3.3730 C.ar      1 RES1    0.0000
     46 H18       17.0344   13.2068   -2.8692 H         1 RES1    0.0000
     47 C29       16.3924   11.4813   -6.9028 C.ar      1 RES1    0.0000
     48 H19       16.8548   12.1743   -7.3140 H         1 RES1    0.0000
     49 C30       16.7619   12.5405   -4.7206 C.ar      1 RES1    0.0000
     50 H20       17.2060   13.2444   -5.1357 H         1 RES1    0.0000
     51 C31        6.7412    4.4368    1.1075 C.ar      1 RES1    0.0000
     52 H21        6.3242    5.0474    0.5440 H         1 RES1    0.0000
     53 C32        6.0458    3.2879    1.5191 C.ar      1 RES1    0.0000
     54 H22        5.1807    3.1363    1.2129 H         1 RES1    0.0000
     55 C33       15.1918    9.4418   -7.0506 C.ar      1 RES1    0.0000
     56 H23       14.8493    8.7536   -7.5737 H         1 RES1    0.0000
     57 C34       15.9115   10.4797   -7.6526 C.ar      1 RES1    0.0000
     58 H24       16.0560   10.4743   -8.5709 H         1 RES1    0.0000
@<TRIPOS>BOND
     1    1    3 ar
     2    2    4 ar
     3    3    6 ar
     4    4    1 ar
     5    5    2 ar
     6    6    5 ar
     7    7    6 1
     8    8   12 1
     9    9   21 ar
    10   10    3 ar
    11   11   10 1
    12   12   13 1
    13   14    1 ar
    14   15   14 1
    15   16   35 ar
    16   17   10 ar
    17   18   17 1
    18   19    8 ar
    19   20   19 1
    20   21   19 ar
    21   22   21 1
    22   23    4 1
    23   24   23 1
    24   25   12 2
    25   26   25 1
    26   27    8 ar
    27   28   27 1
    28   29    9 1
    29   30   29 1
    30   31   14 ar
    31   32   31 1
    32   33    9 ar
    33   34   33 1
    34   35   36 1
    35   37   16 ar
    36   38   16 ar
    37   39    2 ar
    38   40   39 1
    39   41    5 ar
    40   42   41 1
    41   43   38 ar
    42   44   43 1
    43   45   43 ar
    44   46   45 1
    45   47   37 ar
    46   48   47 1
    47   49   37 ar
    48   50   49 1
    49   51   39 ar
    50   52   51 1
    51   53   41 ar
    52   54   53 1
    53   55   35 ar
    54   56   55 1
    55   57   47 ar
    56   58   57 1
    57   17   31 ar
    58   23   29 2
    59   25   38 1
    60   27   33 ar
    61   45   49 ar
    62   51   53 ar
    63   55   57 ar
@<TRIPOS>SUBSTRUCTURE
     1 RES1 1

@<TRIPOS>CRYSIN
  15.7869    6.0629   25.6359  90.0000 107.1020  90.0000 231 1

