# MOL2 file generated by ConQuest
# Please check atom types

@<TRIPOS>MOLECULE
SIJHOK
    70    79     1
SMALL
NO_CHARGES
****
Generated from CSD

@<TRIPOS>ATOM
      1 C1         1.8420   -4.1974    5.4793 C.ar      1 RES1    0.0000
      2 C2         1.3796   -3.8156    6.7421 C.ar      1 RES1    0.0000
      3 H1         1.0037   -4.4549    7.3027 H         1 RES1    0.0000
      4 C3         1.4715   -2.4993    7.1748 C.ar      1 RES1    0.0000
      5 H2         1.1668   -2.2772    8.0249 H         1 RES1    0.0000
      6 C4         2.0085   -1.5061    6.3643 C.ar      1 RES1    0.0000
      7 C5         2.4498   -1.8773    5.0934 C.ar      1 RES1    0.0000
      8 H3         2.7957   -1.2303    4.5221 H         1 RES1    0.0000
      9 C6         2.3817   -3.1974    4.6698 C.ar      1 RES1    0.0000
     10 H4         2.7041   -3.4206    3.8261 H         1 RES1    0.0000
     11 C7         2.0389   -0.0704    6.7723 C.ar      1 RES1    0.0000
     12 C8         2.7649    0.3773    7.8993 C.ar      1 RES1    0.0000
     13 C9         2.7280    1.7663    8.2283 C.ar      1 RES1    0.0000
     14 C10        1.9920    2.6747    7.4309 C.ar      1 RES1    0.0000
     15 C11        1.2933    2.1915    6.3216 C.ar      1 RES1    0.0000
     16 H5         0.8064    2.7798    5.7901 H         1 RES1    0.0000
     17 C12        1.3206    0.8423    6.0077 C.ar      1 RES1    0.0000
     18 H6         0.8470    0.5390    5.2674 H         1 RES1    0.0000
     19 C13        3.5537   -0.4936    8.7247 C.ar      1 RES1    0.0000
     20 H7         3.6196   -1.3940    8.5015 H         1 RES1    0.0000
     21 C14        4.2057   -0.0343    9.8239 C.ar      1 RES1    0.0000
     22 H8         4.6982   -0.6287   10.3427 H         1 RES1    0.0000
     23 C15        4.1508    1.3535   10.2019 C.ar      1 RES1    0.0000
     24 C16        3.4300    2.2449    9.3811 C.ar      1 RES1    0.0000
     25 C17        3.3791    3.6326    9.7119 C.ar      1 RES1    0.0000
     26 C18        2.6316    4.5215    8.8751 C.ar      1 RES1    0.0000
     27 H9         2.5998    5.4270    9.0851 H         1 RES1    0.0000
     28 C19        1.9702    4.0709    7.7861 C.ar      1 RES1    0.0000
     29 H10        1.4945    4.6710    7.2586 H         1 RES1    0.0000
     30 C20        4.7915    1.8350   11.3530 C.ar      1 RES1    0.0000
     31 H11        5.2598    1.2483   11.9025 H         1 RES1    0.0000
     32 C21        4.7298    3.1830   11.6751 C.ar      1 RES1    0.0000
     33 H12        5.1576    3.4935   12.4399 H         1 RES1    0.0000
     34 C22        4.0429    4.0651   10.8739 C.ar      1 RES1    0.0000
     35 H13        4.0164    4.9656   11.1047 H         1 RES1    0.0000
     36 C1A        1.7548   -5.6167    5.0177 C.ar      1 RES1    0.0000
     37 C2A        2.2173   -5.9985    3.7549 C.ar      1 RES1    0.0000
     38 H1A        2.5931   -5.3592    3.1942 H         1 RES1    0.0000
     39 C3A        2.1253   -7.3148    3.3222 C.ar      1 RES1    0.0000
     40 H2A        2.4300   -7.5369    2.4720 H         1 RES1    0.0000
     41 C4A        1.5884   -8.3080    4.1327 C.ar      1 RES1    0.0000
     42 C5A        1.1470   -7.9368    5.4035 C.ar      1 RES1    0.0000
     43 H3A        0.8012   -8.5838    5.9749 H         1 RES1    0.0000
     44 C6A        1.2152   -6.6167    5.8272 C.ar      1 RES1    0.0000
     45 H4A        0.8928   -6.3935    6.6708 H         1 RES1    0.0000
     46 C7A        1.5579   -9.7437    3.7246 C.ar      1 RES1    0.0000
     47 C8A        0.8320  -10.1914    2.5977 C.ar      1 RES1    0.0000
     48 C9A        0.8688  -11.5804    2.2687 C.ar      1 RES1    0.0000
     49 C10A       1.6048  -12.4888    3.0661 C.ar      1 RES1    0.0000
     50 C11A       2.3035  -12.0056    4.1754 C.ar      1 RES1    0.0000
     51 H5A        2.7904  -12.5939    4.7068 H         1 RES1    0.0000
     52 C12A       2.2763  -10.6564    4.4892 C.ar      1 RES1    0.0000
     53 H6A        2.7499  -10.3531    5.2296 H         1 RES1    0.0000
     54 C13A       0.0431   -9.3205    1.7723 C.ar      1 RES1    0.0000
     55 H7A       -0.0227   -8.4201    1.9955 H         1 RES1    0.0000
     56 C14A      -0.6089   -9.7798    0.6731 C.ar      1 RES1    0.0000
     57 H8A       -1.1014   -9.1854    0.1543 H         1 RES1    0.0000
     58 C15A      -0.5540  -11.1676    0.2951 C.ar      1 RES1    0.0000
     59 C16A       0.1668  -12.0590    1.1158 C.ar      1 RES1    0.0000
     60 C17A       0.2178  -13.4467    0.7851 C.ar      1 RES1    0.0000
     61 C18A       0.9652  -14.3356    1.6219 C.ar      1 RES1    0.0000
     62 H9A        0.9970  -15.2411    1.4118 H         1 RES1    0.0000
     63 C19A       1.6266  -13.8850    2.7108 C.ar      1 RES1    0.0000
     64 H10A       2.1023  -14.4851    3.2383 H         1 RES1    0.0000
     65 C20A      -1.1947  -11.6491   -0.8560 C.ar      1 RES1    0.0000
     66 H11A      -1.6630  -11.0624   -1.4055 H         1 RES1    0.0000
     67 C21A      -1.1330  -12.9971   -1.1782 C.ar      1 RES1    0.0000
     68 H12A      -1.5608  -13.3076   -1.9430 H         1 RES1    0.0000
     69 C22A      -0.4461  -13.8792   -0.3769 C.ar      1 RES1    0.0000
     70 H13A      -0.4196  -14.7798   -0.6078 H         1 RES1    0.0000
@<TRIPOS>BOND
     1    1    2 ar
     2    2    3 1
     3    4    2 ar
     4    5    4 1
     5    6    4 ar
     6    7    6 ar
     7    8    7 1
     8    9    1 ar
     9   10    9 1
    10   11    6 1
    11   12   11 ar
    12   13   12 ar
    13   14   13 ar
    14   15   14 ar
    15   16   15 1
    16   17   11 ar
    17   18   17 1
    18   19   12 ar
    19   20   19 1
    20   21   19 ar
    21   22   21 1
    22   23   21 ar
    23   24   13 ar
    24   25   24 ar
    25   26   25 ar
    26   27   26 1
    27   28   14 ar
    28   29   28 1
    29   30   23 ar
    30   31   30 1
    31   32   30 ar
    32   33   32 1
    33   34   25 ar
    34   35   34 1
    35   36    1 1
    36   37   36 ar
    37   38   37 1
    38   39   37 ar
    39   40   39 1
    40   41   39 ar
    41   42   41 ar
    42   43   42 1
    43   44   36 ar
    44   45   44 1
    45   46   41 1
    46   47   46 ar
    47   48   47 ar
    48   49   48 ar
    49   50   49 ar
    50   51   50 1
    51   52   46 ar
    52   53   52 1
    53   54   47 ar
    54   55   54 1
    55   56   54 ar
    56   57   56 1
    57   58   56 ar
    58   59   48 ar
    59   60   59 ar
    60   61   60 ar
    61   62   61 1
    62   63   49 ar
    63   64   63 1
    64   65   58 ar
    65   66   65 1
    66   67   65 ar
    67   68   67 1
    68   69   60 ar
    69   70   69 1
    70    7    9 ar
    71   15   17 ar
    72   23   24 ar
    73   26   28 ar
    74   32   34 ar
    75   42   44 ar
    76   50   52 ar
    77   58   59 ar
    78   61   63 ar
    79   67   69 ar
@<TRIPOS>SUBSTRUCTURE
     1 RES1 1

@<TRIPOS>CRYSIN
   8.0943    8.7229   10.6687  99.1290  90.4390 114.9430   2 1

