# MOL2 file generated by ConQuest
# Please check atom types

@<TRIPOS>MOLECULE
SINFOK
    30    32     2
SMALL
NO_CHARGES
****
Generated from CSD

@<TRIPOS>ATOM
      1 C1         0.7469    4.1083    1.6651 C.ar      1 RES1    0.0000
      2 C2         1.0802    3.8970    0.2936 C.ar      1 RES1    0.0000
      3 C3         0.1633    3.5101   -0.6211 C.ar      1 RES1    0.0000
      4 C4        -1.1677    3.2392   -0.2171 C.ar      1 RES1    0.0000
      5 C5        -1.4591    3.2511    1.1482 C.ar      1 RES1    0.0000
      6 C6        -0.3458    3.6607    2.0943 C.ar      1 RES1    0.0000
      7 C7        -0.5511    3.3497    3.5034 C.2       1 RES1    0.0000
      8 C8        -0.7383    4.1842    4.5010 C.2       1 RES1    0.0000
      9 C9         2.4519    3.9663   -0.1154 C.ar      1 RES1    0.0000
     10 C10        1.7905    4.6393    2.5397 C.ar      1 RES1    0.0000
     11 C11        3.1460    4.4919    2.1282 C.ar      1 RES1    0.0000
     12 C12        4.1940    4.7986    3.0191 C.ar      1 RES1    0.0000
     13 C13        3.9352    5.3416    4.2325 C.ar      1 RES1    0.0000
     14 C14        2.6378    5.7122    4.5437 C.ar      1 RES1    0.0000
     15 C15        1.5592    5.3957    3.7230 C.ar      1 RES1    0.0000
     16 C16        0.2928    6.1066    4.0543 C.2       1 RES1    0.0000
     17 C17       -0.8648    5.6092    4.4307 C.2       1 RES1    0.0000
     18 C18        3.4345    4.1419    0.7679 C.ar      1 RES1    0.0000
     19 H1         0.3966    3.4245   -1.5183 H         1 RES1    0.0000
     20 H2        -1.8560    2.9585   -0.8282 H         1 RES1    0.0000
     21 H3        -2.3348    2.9260    1.5058 H         1 RES1    0.0000
     22 H4        -1.1219    2.3625    3.6389 H         1 RES1    0.0000
     23 H5        -1.5402    3.8363    5.3455 H         1 RES1    0.0000
     24 H6         2.6224    3.8146   -1.0666 H         1 RES1    0.0000
     25 H7         5.1151    4.6382    2.7104 H         1 RES1    0.0000
     26 H8         4.6528    5.5594    4.8812 H         1 RES1    0.0000
     27 H9         0.4112    7.0982    4.0279 H         1 RES1    0.0000
     28 H10       -1.6111    6.2096    4.7557 H         1 RES1    0.0000
     29 H11        4.3882    4.1289    0.4894 H         1 RES1    0.0000
     30 H12       -0.6565    2.3950   -0.9537 Du        2 SUP2    0.0000
@<TRIPOS>BOND
     1    1    2 ar
     2    2    3 ar
     3    3    4 ar
     4    4    5 ar
     5    5    6 ar
     6    6    1 ar
     7    7    6 1
     8    8    7 2
     9    9    2 ar
    10   10    1 ar
    11   11   10 ar
    12   12   11 ar
    13   13   12 ar
    14   14   13 ar
    15   15   10 ar
    16   16   15 1
    17   17    8 1
    18   18    9 ar
    19   19    3 1
    20   20    4 1
    21   21    5 1
    22   22    7 1
    23   23    8 1
    24   24    9 1
    25   25   12 1
    26   26   13 1
    27   27   16 1
    28   28   17 1
    29   29   18 1
    30   11   18 ar
    31   14   15 ar
    32   16   17 2
@<TRIPOS>SUBSTRUCTURE
     1 RES1 1
     2 SUP2 30

@<TRIPOS>CRYSIN
   8.8220   10.8370   12.8190  90.0000 101.8000  90.0000 231 1

