# MOL2 file generated by ConQuest
# Please check atom types

@<TRIPOS>MOLECULE
SIVKEN
    56    62     1
SMALL
NO_CHARGES
****
Generated from CSD

@<TRIPOS>ATOM
      1 C1         5.7917    3.3482    7.5099 C.ar      1 RES1    0.0000
      2 C2         6.8625    3.3596    8.4128 C.ar      1 RES1    0.0000
      3 C3         6.9748    4.3294    9.5231 C.ar      1 RES1    0.0000
      4 C4         6.2555    5.5400    9.5231 C.ar      1 RES1    0.0000
      5 C5         6.5152    6.5338   10.4348 C.ar      1 RES1    0.0000
      6 C6         7.5077    6.3736   11.3749 C.ar      1 RES1    0.0000
      7 C7         8.2303    5.2046   11.4068 C.ar      1 RES1    0.0000
      8 C8         7.9691    4.1667   10.5004 C.ar      1 RES1    0.0000
      9 C9         8.7465    2.9207   10.5288 C.ar      1 RES1    0.0000
     10 C10        9.4039    2.5172   11.6995 C.ar      1 RES1    0.0000
     11 C11       10.1069    1.3368   11.7474 C.ar      1 RES1    0.0000
     12 C12       10.1398    0.5234   10.6335 C.ar      1 RES1    0.0000
     13 C13        9.4791    0.8853    9.4788 C.ar      1 RES1    0.0000
     14 C14        8.7782    2.1060    9.3865 C.ar      1 RES1    0.0000
     15 C15        7.9819    2.4768    8.1857 C.ar      1 RES1    0.0000
     16 C16        8.1795    1.9434    6.9140 C.ar      1 RES1    0.0000
     17 C17        7.2055    2.1590    5.8888 C.ar      1 RES1    0.0000
     18 C18        7.4106    1.7252    4.5531 C.ar      1 RES1    0.0000
     19 C19        6.4178    1.7882    3.6290 C.ar      1 RES1    0.0000
     20 C20        5.1468    2.2649    3.9891 C.ar      1 RES1    0.0000
     21 C21        4.9273    2.7404    5.2449 C.ar      1 RES1    0.0000
     22 C22        5.9587    2.7568    6.2240 C.ar      1 RES1    0.0000
     23 C23        4.4226    3.7896    7.9126 C.ar      1 RES1    0.0000
     24 C24        3.7116    4.8136    7.2953 C.ar      1 RES1    0.0000
     25 C25        2.4090    5.0911    7.6891 C.ar      1 RES1    0.0000
     26 C26        1.8048    4.3621    8.6682 C.ar      1 RES1    0.0000
     27 C27        2.4729    3.3432    9.2712 C.ar      1 RES1    0.0000
     28 C28        3.7728    3.0632    8.9023 C.ar      1 RES1    0.0000
     29 C29        9.3701    1.1211    6.5504 C.ar      1 RES1    0.0000
     30 C30       10.6455    1.6672    6.5415 C.ar      1 RES1    0.0000
     31 C31       11.7415    0.8840    6.2559 C.ar      1 RES1    0.0000
     32 C32       11.5843   -0.4502    5.9686 C.ar      1 RES1    0.0000
     33 C33       10.3284   -1.0013    5.9437 C.ar      1 RES1    0.0000
     34 C34        9.2325   -0.2295    6.2293 C.ar      1 RES1    0.0000
     35 H1         5.5650    5.6737    8.8686 H         1 RES1    0.0000
     36 H2         6.0010    7.3446   10.4171 H         1 RES1    0.0000
     37 H3         7.6940    7.0735   12.0046 H         1 RES1    0.0000
     38 H4         8.9253    5.0974   12.0595 H         1 RES1    0.0000
     39 H5         9.3622    3.0733   12.4817 H         1 RES1    0.0000
     40 H6        10.5712    1.0808   12.5473 H         1 RES1    0.0000
     41 H7        10.6267   -0.3039   10.6618 H         1 RES1    0.0000
     42 H8         9.4952    0.2951    8.7232 H         1 RES1    0.0000
     43 H9         8.2691    1.3796    4.2995 H         1 RES1    0.0000
     44 H10        6.5854    1.5070    2.7262 H         1 RES1    0.0000
     45 H11        4.4315    2.2561    3.3470 H         1 RES1    0.0000
     46 H12        4.0568    3.0733    5.4755 H         1 RES1    0.0000
     47 H13        4.1214    5.3281    6.5965 H         1 RES1    0.0000
     48 H14        1.9279    5.8061    7.2652 H         1 RES1    0.0000
     49 H15        0.9052    4.5690    8.9342 H         1 RES1    0.0000
     50 H16        2.0421    2.8211    9.9506 H         1 RES1    0.0000
     51 H17        4.2398    2.3469    9.3404 H         1 RES1    0.0000
     52 H18       10.7647    2.6004    6.7348 H         1 RES1    0.0000
     53 H19       12.6197    1.2724    6.2577 H         1 RES1    0.0000
     54 H20       12.3521   -0.9963    5.7859 H         1 RES1    0.0000
     55 H21       10.2161   -1.9295    5.7256 H         1 RES1    0.0000
     56 H22        8.3576   -0.6242    6.2080 H         1 RES1    0.0000
@<TRIPOS>BOND
     1    1    2 ar
     2    2    3 1
     3    3    4 ar
     4    4    5 ar
     5    5    6 ar
     6    6    7 ar
     7    7    8 ar
     8    8    3 ar
     9    9    8 1
    10   10    9 ar
    11   11   10 ar
    12   12   11 ar
    13   13   12 ar
    14   14    9 ar
    15   15    2 ar
    16   16   15 ar
    17   17   16 ar
    18   18   17 ar
    19   19   18 ar
    20   20   19 ar
    21   21   20 ar
    22   22    1 ar
    23   23    1 1
    24   24   23 ar
    25   25   24 ar
    26   26   25 ar
    27   27   26 ar
    28   28   23 ar
    29   29   16 1
    30   30   29 ar
    31   31   30 ar
    32   32   31 ar
    33   33   32 ar
    34   34   29 ar
    35   35    4 1
    36   36    5 1
    37   37    6 1
    38   38    7 1
    39   39   10 1
    40   40   11 1
    41   41   12 1
    42   42   13 1
    43   43   18 1
    44   44   19 1
    45   45   20 1
    46   46   21 1
    47   47   24 1
    48   48   25 1
    49   49   26 1
    50   50   27 1
    51   51   28 1
    52   52   30 1
    53   53   31 1
    54   54   32 1
    55   55   33 1
    56   56   34 1
    57   13   14 ar
    58   14   15 1
    59   17   22 ar
    60   21   22 ar
    61   27   28 ar
    62   33   34 ar
@<TRIPOS>SUBSTRUCTURE
     1 RES1 1

@<TRIPOS>CRYSIN
  10.1590   12.6110   18.4040  90.0000 105.4700  90.0000  14 1

