# MOL2 file generated by ConQuest
# Please check atom types

@<TRIPOS>MOLECULE
SIVLUE
    62    68     1
SMALL
NO_CHARGES
****
Generated from CSD

@<TRIPOS>ATOM
      1 C1         8.4287    6.8268    3.8343 C.ar      1 RES1    0.0000
      2 C2         9.1761    7.8407    3.2267 C.ar      1 RES1    0.0000
      3 C3         9.8229    8.9454    3.9880 C.ar      1 RES1    0.0000
      4 C4        10.1138    8.8255    5.3531 C.ar      1 RES1    0.0000
      5 C5        10.9123    9.7418    6.0126 C.ar      1 RES1    0.0000
      6 C6        11.4322   10.8123    5.3309 C.ar      1 RES1    0.0000
      7 C7        11.1707   10.9527    3.9991 C.ar      1 RES1    0.0000
      8 C8        10.3738   10.0416    3.2989 C.ar      1 RES1    0.0000
      9 C9        10.1417   10.1769    1.8653 C.ar      1 RES1    0.0000
     10 C10       10.2902   11.4134    1.2188 C.ar      1 RES1    0.0000
     11 C11       10.0782   11.5487   -0.1241 C.ar      1 RES1    0.0000
     12 C12        9.6713   10.4526   -0.8613 C.ar      1 RES1    0.0000
     13 C13        9.4995    9.2332   -0.2445 C.ar      1 RES1    0.0000
     14 C14        9.7440    9.0533    1.1132 C.ar      1 RES1    0.0000
     15 C15        9.4716    7.7688    1.8245 C.ar      1 RES1    0.0000
     16 C16        9.4113    6.5254    1.1799 C.ar      1 RES1    0.0000
     17 C17        8.8836    5.4070    1.8764 C.ar      1 RES1    0.0000
     18 C18        8.8867    4.1019    1.3096 C.ar      1 RES1    0.0000
     19 C19        8.2384    3.0743    1.9023 C.ar      1 RES1    0.0000
     20 C20        7.5142    3.2850    3.0767 C.ar      1 RES1    0.0000
     21 C21        7.5126    4.5044    3.6787 C.ar      1 RES1    0.0000
     22 C22        8.2538    5.5885    3.1396 C.ar      1 RES1    0.0000
     23 C23        7.7679    7.0101    5.1494 C.ar      1 RES1    0.0000
     24 C24        6.8442    8.0360    5.3291 C.ar      1 RES1    0.0000
     25 C25        6.2082    8.2158    6.5386 C.ar      1 RES1    0.0000
     26 C26        6.4542    7.3937    7.6185 C.ar      1 RES1    0.0000
     27 C27        7.3502    6.3524    7.4351 C.ar      1 RES1    0.0000
     28 C28        7.9923    6.1606    6.2293 C.ar      1 RES1    0.0000
     29 C29        5.7826    7.6147    8.9503 C.3       1 RES1    0.0000
     30 C30        9.8446    6.3147   -0.2241 C.ar      1 RES1    0.0000
     31 C31       11.1800    6.3678   -0.5835 C.ar      1 RES1    0.0000
     32 C32       11.5653    6.2274   -1.9023 C.ar      1 RES1    0.0000
     33 C33       10.6508    6.0493   -2.9100 C.ar      1 RES1    0.0000
     34 C34        9.3123    5.9533   -2.5488 C.ar      1 RES1    0.0000
     35 C35        8.9223    6.0647   -1.2355 C.ar      1 RES1    0.0000
     36 C36       11.0500    5.9962   -4.3640 C.3       1 RES1    0.0000
     37 H1         9.7486    8.0857    5.8440 H         1 RES1    0.0000
     38 H2        11.0995    9.6288    6.9461 H         1 RES1    0.0000
     39 H3        11.9784   11.4563    5.7884 H         1 RES1    0.0000
     40 H4        11.5467   11.6995    3.5268 H         1 RES1    0.0000
     41 H5        10.5471   12.1841    1.7319 H         1 RES1    0.0000
     42 H6        10.2113   12.3965   -0.5520 H         1 RES1    0.0000
     43 H7         9.5088   10.5417   -1.8041 H         1 RES1    0.0000
     44 H8         9.2039    8.4847   -0.7669 H         1 RES1    0.0000
     45 H9         9.3602    3.9478    0.4890 H         1 RES1    0.0000
     46 H10        8.2755    2.1974    1.5133 H         1 RES1    0.0000
     47 H11        7.0144    2.5622    3.4638 H         1 RES1    0.0000
     48 H12        7.0020    4.6346    4.4826 H         1 RES1    0.0000
     49 H13        6.6461    8.6269    4.5993 H         1 RES1    0.0000
     50 H14        5.5768    8.9334    6.6312 H         1 RES1    0.0000
     51 H15        7.5266    5.7512    8.1631 H         1 RES1    0.0000
     52 H16        8.6051    5.4275    6.1348 H         1 RES1    0.0000
     53 H17        4.8851    7.9230    8.8077 H         1 RES1    0.0000
     54 H18        6.2716    8.2741    9.4486 H         1 RES1    0.0000
     55 H19        5.7656    6.7909    9.4412 H         1 RES1    0.0000
     56 H20       11.8484    6.5048    0.0926 H         1 RES1    0.0000
     57 H21       12.4999    6.2531   -2.1190 H         1 RES1    0.0000
     58 H22        8.6500    5.8061   -3.2267 H         1 RES1    0.0000
     59 H23        7.9939    5.9653   -1.0114 H         1 RES1    0.0000
     60 H24       10.4078    5.4789   -4.8549 H         1 RES1    0.0000
     61 H25       11.9165    5.5885   -4.4437 H         1 RES1    0.0000
     62 H26       11.0825    6.8868   -4.7197 H         1 RES1    0.0000
@<TRIPOS>BOND
     1    1    2 ar
     2    2    3 1
     3    3    4 ar
     4    4    5 ar
     5    5    6 ar
     6    6    7 ar
     7    7    8 ar
     8    8    3 ar
     9    9    8 1
    10   10    9 ar
    11   11   10 ar
    12   12   11 ar
    13   13   12 ar
    14   14    9 ar
    15   15    2 ar
    16   16   15 ar
    17   17   16 ar
    18   18   17 ar
    19   19   18 ar
    20   20   19 ar
    21   21   20 ar
    22   22    1 ar
    23   23    1 1
    24   24   23 ar
    25   25   24 ar
    26   26   25 ar
    27   27   26 ar
    28   28   23 ar
    29   29   26 1
    30   30   16 1
    31   31   30 ar
    32   32   31 ar
    33   33   32 ar
    34   34   33 ar
    35   35   30 ar
    36   36   33 1
    37   37    4 1
    38   38    5 1
    39   39    6 1
    40   40    7 1
    41   41   10 1
    42   42   11 1
    43   43   12 1
    44   44   13 1
    45   45   18 1
    46   46   19 1
    47   47   20 1
    48   48   21 1
    49   49   24 1
    50   50   25 1
    51   51   27 1
    52   52   28 1
    53   53   29 1
    54   54   29 1
    55   55   29 1
    56   56   31 1
    57   57   32 1
    58   58   34 1
    59   59   35 1
    60   60   36 1
    61   61   36 1
    62   62   36 1
    63   13   14 ar
    64   14   15 1
    65   17   22 ar
    66   21   22 ar
    67   27   28 ar
    68   34   35 ar
@<TRIPOS>SUBSTRUCTURE
     1 RES1 1

@<TRIPOS>CRYSIN
  15.4740   17.1270   18.5230  90.0000  90.0000  90.0000  56 1

