# MOL2 file generated by ConQuest
# Please check atom types

@<TRIPOS>MOLECULE
SIZLAQ
    76    84     1
SMALL
NO_CHARGES
****
Generated from CSD

@<TRIPOS>ATOM
      1 C1         5.3413   11.2219    6.7557 C.ar      1 RES1    0.0000
      2 C2         5.5966   11.3906    5.3819 C.ar      1 RES1    0.0000
      3 C3         5.8166   12.6808    4.8273 C.ar      1 RES1    0.0000
      4 H1         5.8110   13.4392    5.4003 H         1 RES1    0.0000
      5 C4         6.0409   12.8613    3.4589 C.ar      1 RES1    0.0000
      6 C5         6.1521   14.1665    2.8786 C.ar      1 RES1    0.0000
      7 H2         6.1196   14.9358    3.4360 H         1 RES1    0.0000
      8 C6         6.3048   14.3123    1.5303 C.ar      1 RES1    0.0000
      9 H3         6.3651   15.1838    1.1553 H         1 RES1    0.0000
     10 C7         6.3746   13.1726    0.6787 C.ar      1 RES1    0.0000
     11 H4         6.4821   13.2920   -0.2577 H         1 RES1    0.0000
     12 C8         6.2882   11.9145    1.1945 C.ar      1 RES1    0.0000
     13 H5         6.3468   11.1630    0.6148 H         1 RES1    0.0000
     14 C9         6.1095   11.7125    2.5996 C.ar      1 RES1    0.0000
     15 C10        5.9499   10.4321    3.1372 C.ar      1 RES1    0.0000
     16 H6         6.0434    9.6773    2.5695 H         1 RES1    0.0000
     17 C11        5.6508   10.2326    4.5128 C.ar      1 RES1    0.0000
     18 C12        5.4059    8.9467    5.0325 C.ar      1 RES1    0.0000
     19 C13        5.0811    8.7843    6.4003 C.ar      1 RES1    0.0000
     20 C14        4.7572    7.5161    6.9393 C.ar      1 RES1    0.0000
     21 H7         4.7049    6.7659    6.3590 H         1 RES1    0.0000
     22 C15        4.5125    7.3417    8.3018 C.ar      1 RES1    0.0000
     23 C16        4.1805    6.0624    8.8562 C.ar      1 RES1    0.0000
     24 H8         4.0887    5.3102    8.2826 H         1 RES1    0.0000
     25 C17        3.9944    5.9121   10.1980 C.ar      1 RES1    0.0000
     26 H9         3.7857    5.0540   10.5513 H         1 RES1    0.0000
     27 C18        4.1104    7.0279   11.0756 C.ar      1 RES1    0.0000
     28 H10        3.9934    6.9050   12.0098 H         1 RES1    0.0000
     29 C19        4.3874    8.2704   10.5878 C.ar      1 RES1    0.0000
     30 H11        4.4503    9.0067   11.1841 H         1 RES1    0.0000
     31 C20        4.5843    8.4730    9.1847 C.ar      1 RES1    0.0000
     32 C21        4.8279    9.7384    8.6587 C.ar      1 RES1    0.0000
     33 H12        4.8259   10.4896    9.2402 H         1 RES1    0.0000
     34 C22        5.0792    9.9346    7.2765 C.ar      1 RES1    0.0000
     35 C23        5.3255   12.3902    7.6859 C.ar      1 RES1    0.0000
     36 C24        4.1245   12.9962    8.0343 C.ar      1 RES1    0.0000
     37 H13        3.3153   12.6977    7.6354 H         1 RES1    0.0000
     38 C25        4.0918   14.0324    8.9592 C.ar      1 RES1    0.0000
     39 H14        3.2594   14.4314    9.1838 H         1 RES1    0.0000
     40 C26        5.2592   14.4966    9.5646 C.ar      1 RES1    0.0000
     41 C27        6.4663   13.8925    9.2084 C.ar      1 RES1    0.0000
     42 H15        7.2762   14.1916    9.6033 H         1 RES1    0.0000
     43 C28        6.4960   12.8536    8.2803 C.ar      1 RES1    0.0000
     44 H16        7.3276   12.4551    8.0501 H         1 RES1    0.0000
     45 C29        5.2006   15.5889   10.5695 C.ar      1 RES1    0.0000
     46 C30        4.1994   16.5634   10.5048 C.ar      1 RES1    0.0000
     47 H17        3.5685   16.5441    9.7950 H         1 RES1    0.0000
     48 C31        4.1193   17.5628   11.4701 C.ar      1 RES1    0.0000
     49 H18        3.4299   18.2151   11.4190 H         1 RES1    0.0000
     50 C32        5.0395   17.6124   12.5064 C.ar      1 RES1    0.0000
     51 H19        4.9873   18.2969   13.1627 H         1 RES1    0.0000
     52 C33        6.0340   16.6553   12.5749 C.ar      1 RES1    0.0000
     53 H20        6.6666   16.6858   13.2838 H         1 RES1    0.0000
     54 C34        6.1197   15.6519   11.6214 C.ar      1 RES1    0.0000
     55 H21        6.8089   15.0012   11.6838 H         1 RES1    0.0000
     56 C35        5.5939    7.7503    4.1579 C.ar      1 RES1    0.0000
     57 C36        4.6416    7.3220    3.2384 C.ar      1 RES1    0.0000
     58 H22        3.8019    7.7636    3.1903 H         1 RES1    0.0000
     59 C37        4.9072    6.2480    2.3846 C.ar      1 RES1    0.0000
     60 H23        4.2451    5.9727    1.7617 H         1 RES1    0.0000
     61 C38        6.1313    5.5725    2.4326 C.ar      1 RES1    0.0000
     62 C39        7.0681    5.9917    3.3819 C.ar      1 RES1    0.0000
     63 H24        7.9000    5.5365    3.4492 H         1 RES1    0.0000
     64 C40        6.8035    7.0609    4.2285 C.ar      1 RES1    0.0000
     65 H25        7.4571    7.3275    4.8646 H         1 RES1    0.0000
     66 C41        6.4409    4.4606    1.4944 C.ar      1 RES1    0.0000
     67 C42        5.4283    3.6768    0.9329 C.ar      1 RES1    0.0000
     68 H26        4.5243    3.8300    1.1817 H         1 RES1    0.0000
     69 C43        5.7261    2.6761    0.0140 C.ar      1 RES1    0.0000
     70 H27        5.0252    2.1535   -0.3583 H         1 RES1    0.0000
     71 C44        7.0378    2.4349   -0.3628 C.ar      1 RES1    0.0000
     72 H28        7.2391    1.7555   -0.9959 H         1 RES1    0.0000
     73 C45        8.0526    3.1962    0.1942 C.ar      1 RES1    0.0000
     74 H29        8.9546    3.0313   -0.0527 H         1 RES1    0.0000
     75 C46        7.7605    4.1994    1.1117 C.ar      1 RES1    0.0000
     76 H30        8.4670    4.7160    1.4837 H         1 RES1    0.0000
@<TRIPOS>BOND
     1    1    2 ar
     2    2    3 ar
     3    3    4 1
     4    5    3 ar
     5    6    5 ar
     6    7    6 1
     7    8    6 ar
     8    9    8 1
     9   10    8 ar
    10   11   10 1
    11   12   10 ar
    12   13   12 1
    13   14    5 ar
    14   15   14 ar
    15   16   15 1
    16   17    2 ar
    17   18   17 ar
    18   19   18 ar
    19   20   19 ar
    20   21   20 1
    21   22   20 ar
    22   23   22 ar
    23   24   23 1
    24   25   23 ar
    25   26   25 1
    26   27   25 ar
    27   28   27 1
    28   29   27 ar
    29   30   29 1
    30   31   22 ar
    31   32   31 ar
    32   33   32 1
    33   34    1 ar
    34   35    1 1
    35   36   35 ar
    36   37   36 1
    37   38   36 ar
    38   39   38 1
    39   40   38 ar
    40   41   40 ar
    41   42   41 1
    42   43   35 ar
    43   44   43 1
    44   45   40 1
    45   46   45 ar
    46   47   46 1
    47   48   46 ar
    48   49   48 1
    49   50   48 ar
    50   51   50 1
    51   52   50 ar
    52   53   52 1
    53   54   45 ar
    54   55   54 1
    55   56   18 1
    56   57   56 ar
    57   58   57 1
    58   59   57 ar
    59   60   59 1
    60   61   59 ar
    61   62   61 ar
    62   63   62 1
    63   64   56 ar
    64   65   64 1
    65   66   61 1
    66   67   66 ar
    67   68   67 1
    68   69   67 ar
    69   70   69 1
    70   71   69 ar
    71   72   71 1
    72   73   71 ar
    73   74   73 1
    74   75   66 ar
    75   76   75 1
    76   12   14 ar
    77   15   17 ar
    78   19   34 ar
    79   29   31 ar
    80   32   34 ar
    81   41   43 ar
    82   52   54 ar
    83   62   64 ar
    84   73   75 ar
@<TRIPOS>SUBSTRUCTURE
     1 RES1 1

@<TRIPOS>CRYSIN
   9.5942   27.2600   12.3336  90.0000 103.6620  90.0000 231 1

