# MOL2 file generated by ConQuest
# Please check atom types

@<TRIPOS>MOLECULE
SOFLUV
    47    51     1
SMALL
NO_CHARGES
****
Generated from CSD

@<TRIPOS>ATOM
      1 C1         1.4845    0.0160    2.0877 C.3       1 RES1    0.0000
      2 H1         1.0512   -0.9115    1.9808 H         1 RES1    0.0000
      3 C2         2.7662   -0.1054    2.9093 C.3       1 RES1    0.0000
      4 H2         3.1247    0.8357    3.1746 H         1 RES1    0.0000
      5 C3         2.7145   -0.9140    4.1660 C.2       1 RES1    0.0000
      6 H3         1.8464   -0.8203    4.8374 H         1 RES1    0.0000
      7 C4         3.7197   -1.6640    4.5271 C.2       1 RES1    0.0000
      8 H4         3.7102   -2.2403    5.3732 H         1 RES1    0.0000
      9 C5         4.9913   -1.7947    3.7612 C.3       1 RES1    0.0000
     10 H5         5.7876   -1.4662    4.4128 H         1 RES1    0.0000
     11 H6         5.0937   -2.7136    3.6036 H         1 RES1    0.0000
     12 C6         5.0972   -0.8530    2.5499 C.3       1 RES1    0.0000
     13 H7         5.8073   -1.1420    1.9874 H         1 RES1    0.0000
     14 H8         5.3935    0.0524    2.9233 H         1 RES1    0.0000
     15 C7         3.7493   -0.6946    1.9043 C.3       1 RES1    0.0000
     16 H9         3.3552   -1.6135    1.6406 H         1 RES1    0.0000
     17 C8         3.5437    0.1670    0.6563 C.3       1 RES1    0.0000
     18 H10        3.8909   -0.4400   -0.2512 H         1 RES1    0.0000
     19 C9         4.3439    1.4686    0.6507 C.3       1 RES1    0.0000
     20 H11        4.1998    1.9068    1.6095 H         1 RES1    0.0000
     21 H12        5.3062    1.2517    0.6580 H         1 RES1    0.0000
     22 C10        3.9085    2.3993   -0.4686 C.3       1 RES1    0.0000
     23 H13        4.1353    2.0418   -1.4917 H         1 RES1    0.0000
     24 H14        4.5235    3.0938   -0.5335 H         1 RES1    0.0000
     25 C11        2.4385    2.6248   -0.4102 C.2       1 RES1    0.0000
     26 H15        2.1720    3.5172   -0.8714 H         1 RES1    0.0000
     27 C12        1.6078    1.7626    0.1376 C.2       1 RES1    0.0000
     28 H16        0.5743    1.8933    0.1645 H         1 RES1    0.0000
     29 C13        2.0170    0.4105    0.6462 C.3       1 RES1    0.0000
     30 H17        1.5546   -0.3199    0.0245 H         1 RES1    0.0000
     31 C14        0.4220    0.9060    2.6919 C.ar      1 RES1    0.0000
     32 C15       -0.8758    0.4863    2.7582 C.ar      1 RES1    0.0000
     33 H18       -1.2006   -0.4209    2.4009 H         1 RES1    0.0000
     34 C16       -1.9061    1.2985    3.3159 C.ar      1 RES1    0.0000
     35 C17       -3.2585    0.8973    3.3913 C.ar      1 RES1    0.0000
     36 H19       -3.4829   -0.0080    2.9656 H         1 RES1    0.0000
     37 C18       -4.2033    1.7207    3.9528 C.ar      1 RES1    0.0000
     38 H20       -5.1721    1.3429    3.9171 H         1 RES1    0.0000
     39 C19       -3.8387    2.9749    4.4615 C.ar      1 RES1    0.0000
     40 H21       -4.5841    3.6337    4.8285 H         1 RES1    0.0000
     41 C20       -2.5502    3.3909    4.3990 C.ar      1 RES1    0.0000
     42 H22       -2.3008    4.1902    4.6818 H         1 RES1    0.0000
     43 C21       -1.5508    2.5718    3.8244 C.ar      1 RES1    0.0000
     44 C22       -0.2061    2.9897    3.7537 C.ar      1 RES1    0.0000
     45 H23        0.0047    3.9110    4.1016 H         1 RES1    0.0000
     46 C23        0.7445    2.1946    3.1963 C.ar      1 RES1    0.0000
     47 H24        1.7743    2.5478    3.1145 H         1 RES1    0.0000
@<TRIPOS>BOND
     1    1    2 1
     2    3    1 1
     3    4    3 1
     4    5    3 1
     5    6    5 1
     6    7    5 2
     7    8    7 1
     8    9    7 1
     9   10    9 1
    10   11    9 1
    11   12    9 1
    12   13   12 1
    13   14   12 1
    14   15    3 1
    15   16   15 1
    16   17   15 1
    17   18   17 1
    18   19   17 1
    19   20   19 1
    20   21   19 1
    21   22   19 1
    22   23   22 1
    23   24   22 1
    24   25   22 1
    25   26   25 1
    26   27   25 2
    27   28   27 1
    28   29    1 1
    29   30   29 1
    30   31    1 1
    31   32   31 ar
    32   33   32 1
    33   34   32 ar
    34   35   34 ar
    35   36   35 1
    36   37   35 ar
    37   38   37 1
    38   39   37 ar
    39   40   39 1
    40   41   39 ar
    41   42   41 1
    42   43   34 ar
    43   44   43 ar
    44   45   44 1
    45   46   31 ar
    46   47   46 1
    47   12   15 1
    48   17   29 1
    49   27   29 1
    50   41   43 ar
    51   44   46 ar
@<TRIPOS>SUBSTRUCTURE
     1 RES1 1

@<TRIPOS>CRYSIN
  12.3730    6.1630   23.8020  90.0000 110.9350  90.0000  14 1

