# MOL2 file generated by ConQuest
# Please check atom types

@<TRIPOS>MOLECULE
SOHVUG
    15    17     1
SMALL
NO_CHARGES
****
Generated from CSD

@<TRIPOS>ATOM
      1 C1         1.8882    2.3396   -3.2079 C.ar      1 RES1    0.0000
      2 C2         1.2010    1.3252   -3.4503 C.ar      1 RES1    0.0000
      3 C3         0.7511    0.4638   -2.7691 C.ar      1 RES1    0.0000
      4 C4         0.9287    0.3232   -1.3465 C.ar      1 RES1    0.0000
      5 C5         1.3619    0.4520    1.9355 C.ar      1 RES1    0.0000
      6 C6         1.6337    0.7240    3.3682 C.ar      1 RES1    0.0000
      7 C7         2.3130    1.8284    3.5786 C.ar      1 RES1    0.0000
      8 C8         2.7445    2.9578    2.8252 C.ar      1 RES1    0.0000
      9 C9         3.0064    3.8218    0.4829 C.ar      1 RES1    0.0000
     10 C10        2.7893    3.7521   -1.0259 C.ar      1 RES1    0.0000
     11 C11        1.9840    2.5570   -1.5188 C.ar      1 RES1    0.0000
     12 C12        1.6180    1.3909   -0.7454 C.ar      1 RES1    0.0000
     13 C13        1.9527    1.6425    0.9237 C.ar      1 RES1    0.0000
     14 C14        2.6076    2.7535    1.3585 C.ar      1 RES1    0.0000
     15 C15        2.3332    0.3422    4.5924 C.3       1 RES1    0.0000
@<TRIPOS>BOND
     1    1    2 ar
     2    2    3 ar
     3    3    4 ar
     4    4   12 ar
     5    5    6 ar
     6    6    7 ar
     7    7    8 ar
     8    8   14 ar
     9    9   10 ar
    10   10   11 ar
    11   11    1 ar
    12   12   11 ar
    13   13    5 ar
    14   14    9 ar
    15   15    6 1
    16   12   13 ar
    17   13   14 ar
@<TRIPOS>SUBSTRUCTURE
     1 RES1 1

@<TRIPOS>CRYSIN
   8.1420    6.5700   20.3760  90.0000 100.4700  90.0000  14 1

