# MOL2 file generated by ConQuest
# Please check atom types

@<TRIPOS>MOLECULE
SOTMIX
    44    50     1
SMALL
NO_CHARGES
****
Generated from CSD

@<TRIPOS>ATOM
      1 C1         2.9868    0.8875    2.4770 C.ar      1 RES1    0.0000
      2 C2         4.2651    0.3423    2.2607 C.ar      1 RES1    0.0000
      3 C3         4.6377    0.0279    0.9507 C.ar      1 RES1    0.0000
      4 C4         6.0022   -0.1791    0.5101 C.ar      1 RES1    0.0000
      5 C5         7.0555    0.3224    1.2564 C.ar      1 RES1    0.0000
      6 C6         8.3380    0.1234    0.8554 C.ar      1 RES1    0.0000
      7 C7         8.6157   -0.5254   -0.3473 C.ar      1 RES1    0.0000
      8 C8         7.5973   -0.9472   -1.1472 C.ar      1 RES1    0.0000
      9 C9         6.2729   -0.7721   -0.7463 C.ar      1 RES1    0.0000
     10 C10        5.1932   -1.1104   -1.6434 C.ar      1 RES1    0.0000
     11 C11        5.4311   -1.8029   -2.8422 C.ar      1 RES1    0.0000
     12 C12        4.4425   -2.0258   -3.7413 C.ar      1 RES1    0.0000
     13 C13        3.1817   -1.5681   -3.4515 C.ar      1 RES1    0.0000
     14 C14        2.9188   -0.9074   -2.2726 C.ar      1 RES1    0.0000
     15 C15        3.9249   -0.6567   -1.3358 C.ar      1 RES1    0.0000
     16 C16        3.6267   -0.0080   -0.0437 C.ar      1 RES1    0.0000
     17 C17        2.3849    0.5134    0.2144 C.ar      1 RES1    0.0000
     18 C18        2.0659    1.0388    1.4826 C.ar      1 RES1    0.0000
     19 C19        0.8359    1.6437    1.8677 C.ar      1 RES1    0.0000
     20 C20        0.6444    2.0776    3.1796 C.ar      1 RES1    0.0000
     21 C21        1.6125    1.8905    4.1760 C.ar      1 RES1    0.0000
     22 C22        2.7670    1.2656    3.8108 C.ar      1 RES1    0.0000
     23 C23        3.9388    0.8557    4.5471 C.ar      1 RES1    0.0000
     24 C24        4.1911    0.9154    5.9107 C.ar      1 RES1    0.0000
     25 C25        5.3510    0.3701    6.3712 C.ar      1 RES1    0.0000
     26 C26        6.2353   -0.2587    5.4879 C.ar      1 RES1    0.0000
     27 C27        5.9851   -0.3144    4.1164 C.ar      1 RES1    0.0000
     28 C28        4.8495    0.2786    3.6262 C.ar      1 RES1    0.0000
     29 H1         9.1044    0.5572    1.4290 H         1 RES1    0.0000
     30 H2         6.8475    0.9194    2.2031 H         1 RES1    0.0000
     31 H3         1.6997    0.5970   -0.4367 H         1 RES1    0.0000
     32 H4         1.4237    2.3084    5.2200 H         1 RES1    0.0000
     33 H5        -0.1781    2.5472    3.3940 H         1 RES1    0.0000
     34 H6         0.0348    1.8427    1.1512 H         1 RES1    0.0000
     35 H7         6.5251   -0.8756    3.5131 H         1 RES1    0.0000
     36 H8         7.0867   -0.8756    5.8750 H         1 RES1    0.0000
     37 H9         5.4957    0.3980    7.3636 H         1 RES1    0.0000
     38 H10        3.4268    1.4726    6.5299 H         1 RES1    0.0000
     39 H11        9.5263   -0.5970   -0.7344 H         1 RES1    0.0000
     40 H12        7.8375   -1.3532   -2.0443 H         1 RES1    0.0000
     41 H13        6.4089   -2.0895   -3.0963 H         1 RES1    0.0000
     42 H14        4.5956   -2.5870   -4.6047 H         1 RES1    0.0000
     43 H15        2.4454   -1.7910   -4.1482 H         1 RES1    0.0000
     44 H16        1.9298   -0.5174   -2.0840 H         1 RES1    0.0000
@<TRIPOS>BOND
     1    1    2 ar
     2    2    3 ar
     3    3    4 ar
     4    4    5 ar
     5    5    6 ar
     6    6    7 ar
     7    7    8 ar
     8    8    9 ar
     9    9    4 ar
    10   10    9 ar
    11   11   10 ar
    12   12   11 ar
    13   13   12 ar
    14   14   13 ar
    15   15   10 ar
    16   16    3 ar
    17   17   16 ar
    18   18    1 ar
    19   19   18 ar
    20   20   19 ar
    21   21   20 ar
    22   22    1 ar
    23   23   22 1
    24   24   23 ar
    25   25   24 ar
    26   26   25 ar
    27   27   26 ar
    28   28    2 1
    29   29    6 1
    30   30    5 1
    31   31   17 1
    32   32   21 1
    33   33   20 1
    34   34   19 1
    35   35   27 1
    36   36   26 1
    37   37   25 1
    38   38   24 1
    39   39    7 1
    40   40    8 1
    41   41   11 1
    42   42   12 1
    43   43   13 1
    44   44   14 1
    45   14   15 ar
    46   15   16 ar
    47   17   18 ar
    48   21   22 ar
    49   23   28 ar
    50   27   28 ar
@<TRIPOS>SUBSTRUCTURE
     1 RES1 1

@<TRIPOS>CRYSIN
  20.9500    3.9800   22.5000  90.0000 118.1000  90.0000  14 1

