# MOL2 file generated by ConQuest
# Please check atom types

@<TRIPOS>MOLECULE
SUJTAU
    39    43     1
SMALL
NO_CHARGES
****
Generated from CSD

@<TRIPOS>ATOM
      1 C1        10.1828    6.8594    5.2809 C.ar      1 RES1    0.0000
      2 H1        10.9026    6.9800    5.8886 H         1 RES1    0.0000
      3 C2        10.0748    5.6782    4.5493 C.ar      1 RES1    0.0000
      4 H2        10.7237    4.9920    4.6546 H         1 RES1    0.0000
      5 C3         9.0109    5.5033    3.6605 C.ar      1 RES1    0.0000
      6 H3         8.9423    4.6965    3.1632 H         1 RES1    0.0000
      7 C4         8.8462    6.5754    0.1519 C.ar      1 RES1    0.0000
      8 H4         8.8702    7.2622    0.8082 H         1 RES1    0.0000
      9 C5         9.6572    6.6646   -0.9494 C.ar      1 RES1    0.0000
     10 H5        10.2250    7.4183   -1.0572 H         1 RES1    0.0000
     11 C6         9.6549    5.6504   -1.9177 C.ar      1 RES1    0.0000
     12 H6        10.2246    5.7216   -2.6749 H         1 RES1    0.0000
     13 C7         4.2275    3.6968    3.0731 C.ar      1 RES1    0.0000
     14 H7         4.0206    2.8635    2.6665 H         1 RES1    0.0000
     15 C8         6.1969    3.2422    0.5119 C.ar      1 RES1    0.0000
     16 H8         5.5942    2.5114    0.5797 H         1 RES1    0.0000
     17 C9         7.0674    3.3399   -0.5454 C.ar      1 RES1    0.0000
     18 H9         7.0693    2.6585   -1.2076 H         1 RES1    0.0000
     19 C10        8.8413    4.5591   -1.7828 C.ar      1 RES1    0.0000
     20 H10        8.8632    3.8753   -2.4428 H         1 RES1    0.0000
     21 C11        9.2351    7.8579    5.1183 C.ar      1 RES1    0.0000
     22 H11        9.3067    8.6623    5.6180 H         1 RES1    0.0000
     23 C12        8.0463    6.5006    3.4955 C.ar      1 RES1    0.0000
     24 C13        6.8469    6.3028    2.5703 C.3       1 RES1    0.0000
     25 H12        6.5690    7.1892    2.1998 H         1 RES1    0.0000
     26 C14        7.0757    5.3297    1.4188 C.ar      1 RES1    0.0000
     27 C15        7.9722    5.4726    0.3265 C.ar      1 RES1    0.0000
     28 C16        5.6469    5.6522    3.2721 C.ar      1 RES1    0.0000
     29 C17        5.3215    4.4403    2.6525 C.ar      1 RES1    0.0000
     30 C18        3.4424    4.2003    4.1028 C.ar      1 RES1    0.0000
     31 H13        2.6840    3.7071    4.3936 H         1 RES1    0.0000
     32 C19        3.7436    5.4104    4.7174 C.ar      1 RES1    0.0000
     33 H14        3.1876    5.7403    5.4135 H         1 RES1    0.0000
     34 C20        4.8784    6.1539    4.3074 C.ar      1 RES1    0.0000
     35 H15        5.1047    6.9727    4.7316 H         1 RES1    0.0000
     36 C21        6.2204    4.2570    1.4967 C.ar      1 RES1    0.0000
     37 C22        7.9638    4.4312   -0.6732 C.ar      1 RES1    0.0000
     38 C23        8.1734    7.6879    4.2216 C.ar      1 RES1    0.0000
     39 H16        7.5365    8.3825    4.1062 H         1 RES1    0.0000
@<TRIPOS>BOND
     1    1    2 1
     2    3    1 ar
     3    4    3 1
     4    5    3 ar
     5    6    5 1
     6    7    8 1
     7    9    7 ar
     8   10    9 1
     9   11    9 ar
    10   12   11 1
    11   13   14 1
    12   15   16 1
    13   17   15 ar
    14   18   17 1
    15   19   11 ar
    16   20   19 1
    17   21    1 ar
    18   22   21 1
    19   23    5 ar
    20   24   23 1
    21   25   24 1
    22   26   24 1
    23   27    7 ar
    24   28   24 1
    25   29   13 ar
    26   30   13 ar
    27   31   30 1
    28   32   30 ar
    29   33   32 1
    30   34   28 ar
    31   35   34 1
    32   36   15 ar
    33   37   17 ar
    34   38   21 ar
    35   39   38 1
    36   19   37 ar
    37   23   38 ar
    38   26   27 ar
    39   26   36 ar
    40   27   37 ar
    41   28   29 ar
    42   29   36 1
    43   32   34 ar
@<TRIPOS>SUBSTRUCTURE
     1 RES1 1

@<TRIPOS>CRYSIN
  10.4301    6.0297   12.7142  90.0000 108.9180  90.0000   4 1

