# MOL2 file generated by ConQuest
# Please check atom types

@<TRIPOS>MOLECULE
SULNUK
    34    38     1
SMALL
NO_CHARGES
****
Generated from CSD

@<TRIPOS>ATOM
      1 C1        -0.3535    0.7200    3.9265 C.ar      1 RES1    0.0000
      2 C2         0.4150   -0.0962    4.8045 C.ar      1 RES1    0.0000
      3 C3        -0.0641   -0.3632    6.1109 C.ar      1 RES1    0.0000
      4 H1         0.4183   -0.9337    6.6642 H         1 RES1    0.0000
      5 C4        -1.2090    0.1929    6.5703 C.ar      1 RES1    0.0000
      6 H2        -1.5190   -0.0112    7.4225 H         1 RES1    0.0000
      7 C5        -1.9175    1.0719    5.7584 C.ar      1 RES1    0.0000
      8 H3        -2.6815    1.4882    6.0880 H         1 RES1    0.0000
      9 C6        -1.4999    1.3304    4.4770 C.ar      1 RES1    0.0000
     10 H4        -1.9874    1.9261    3.9549 H         1 RES1    0.0000
     11 C7         1.6788   -0.5798    4.3872 C.ar      1 RES1    0.0000
     12 H5         2.1668   -1.1338    4.9526 H         1 RES1    0.0000
     13 C8         2.1831   -0.2497    3.1846 C.ar      1 RES1    0.0000
     14 H6         3.0414   -0.5295    2.9614 H         1 RES1    0.0000
     15 C9         1.4339    0.5192    2.2435 C.ar      1 RES1    0.0000
     16 C10        0.1236    0.9484    2.5672 C.ar      1 RES1    0.0000
     17 C11       -0.6520    1.5892    1.5144 C.ar      1 RES1    0.0000
     18 C12        0.0304    1.8845    0.3141 C.ar      1 RES1    0.0000
     19 C13        1.3699    1.5068    0.0453 C.ar      1 RES1    0.0000
     20 C14        2.0418    0.8024    0.9793 C.ar      1 RES1    0.0000
     21 H7         2.9027    0.4998    0.8007 H         1 RES1    0.0000
     22 C15       -2.0373    1.9006    1.4847 C.ar      1 RES1    0.0000
     23 H8        -2.5729    1.6666    2.2094 H         1 RES1    0.0000
     24 C16       -2.6026    2.5407    0.4090 C.ar      1 RES1    0.0000
     25 H9        -3.5089    2.7473    0.4385 H         1 RES1    0.0000
     26 C17       -1.8691    2.8953   -0.7329 C.ar      1 RES1    0.0000
     27 H10       -2.2668    3.3629   -1.4320 H         1 RES1    0.0000
     28 C18       -0.5488    2.5317   -0.7867 C.ar      1 RES1    0.0000
     29 C19        0.4747    2.6632   -1.8878 C.3       1 RES1    0.0000
     30 H11        0.6615    3.5967   -2.0738 H         1 RES1    0.0000
     31 H12        0.1599    2.2395   -2.7008 H         1 RES1    0.0000
     32 C20        1.7331    1.9508   -1.3542 C.3       1 RES1    0.0000
     33 H13        1.9565    1.1876   -1.9086 H         1 RES1    0.0000
     34 H14        2.4895    2.5577   -1.3366 H         1 RES1    0.0000
@<TRIPOS>BOND
     1    1    2 ar
     2    2    3 ar
     3    3    4 1
     4    5    3 ar
     5    6    5 1
     6    7    5 ar
     7    8    7 1
     8    9    1 ar
     9   10    9 1
    10   11    2 ar
    11   12   11 1
    12   13   11 ar
    13   14   13 1
    14   15   13 ar
    15   16    1 ar
    16   17   16 ar
    17   18   17 ar
    18   19   18 ar
    19   20   15 ar
    20   21   20 1
    21   22   17 ar
    22   23   22 1
    23   24   22 ar
    24   25   24 1
    25   26   24 ar
    26   27   26 1
    27   28   18 ar
    28   29   28 1
    29   30   29 1
    30   31   29 1
    31   32   19 1
    32   33   32 1
    33   34   32 1
    34    7    9 ar
    35   15   16 ar
    36   19   20 ar
    37   26   28 ar
    38   29   32 1
@<TRIPOS>SUBSTRUCTURE
     1 RES1 1

@<TRIPOS>CRYSIN
   7.7302    8.0355   21.3019  90.0000  96.0580  90.0000 231 1

