# MOL2 file generated by ConQuest
# Please check atom types

@<TRIPOS>MOLECULE
SULPAS
    32    36     1
SMALL
NO_CHARGES
****
Generated from CSD

@<TRIPOS>ATOM
      1 C1         4.2819   11.0362    2.1351 C.ar      1 RES1    0.0000
      2 C2         4.2579   12.3644    2.6483 C.ar      1 RES1    0.0000
      3 C3         5.1966   13.3123    2.1949 C.ar      1 RES1    0.0000
      4 H1         5.1736   14.1731    2.5447 H         1 RES1    0.0000
      5 C4         6.1256   13.0102    1.2716 C.ar      1 RES1    0.0000
      6 H2         6.7372   13.6501    0.9845 H         1 RES1    0.0000
      7 C5         6.1525   11.7364    0.7625 C.ar      1 RES1    0.0000
      8 H3         6.7816   11.5195    0.1115 H         1 RES1    0.0000
      9 C6         5.2799   10.7816    1.1885 C.ar      1 RES1    0.0000
     10 H4         5.3511    9.9238    0.8356 H         1 RES1    0.0000
     11 C7         3.2997   12.7230    3.6297 C.ar      1 RES1    0.0000
     12 H5         3.2838   13.5916    3.9622 H         1 RES1    0.0000
     13 C8         2.4179   11.8226    4.0826 C.ar      1 RES1    0.0000
     14 H6         1.8063   12.0811    4.7346 H         1 RES1    0.0000
     15 C9         2.3840   10.4775    3.5989 C.ar      1 RES1    0.0000
     16 C10        3.3169   10.0674    2.6005 C.ar      1 RES1    0.0000
     17 C11        3.1976    8.6768    2.1386 C.ar      1 RES1    0.0000
     18 C12        2.2122    7.8874    2.7179 C.ar      1 RES1    0.0000
     19 C13        1.3036    8.3172    3.7412 C.ar      1 RES1    0.0000
     20 C14        1.3991    9.5940    4.1473 C.ar      1 RES1    0.0000
     21 H7         0.8144    9.9109    4.7978 H         1 RES1    0.0000
     22 C15        3.9468    7.9745    1.1462 C.ar      1 RES1    0.0000
     23 H8         4.6281    8.4192    0.6968 H         1 RES1    0.0000
     24 C16        3.6891    6.6601    0.8361 C.ar      1 RES1    0.0000
     25 H9         4.2026    6.2530    0.1767 H         1 RES1    0.0000
     26 C17        2.6889    5.9024    1.4657 C.ar      1 RES1    0.0000
     27 H10        2.5424    5.0099    1.2452 H         1 RES1    0.0000
     28 C18        1.9371    6.5393    2.4213 C.ar      1 RES1    0.0000
     29 C19        0.8319    6.1322    3.2734 C.2       1 RES1    0.0000
     30 H11        0.4438    5.2873    3.2863 H         1 RES1    0.0000
     31 C20        0.4571    7.1692    4.0393 C.2       1 RES1    0.0000
     32 H12       -0.2349    7.1564    4.6620 H         1 RES1    0.0000
@<TRIPOS>BOND
     1    1    2 ar
     2    2    3 ar
     3    3    4 1
     4    5    3 ar
     5    6    5 1
     6    7    5 ar
     7    8    7 1
     8    9    1 ar
     9   10    9 1
    10   11    2 ar
    11   12   11 1
    12   13   11 ar
    13   14   13 1
    14   15   13 ar
    15   16    1 ar
    16   17   16 ar
    17   18   17 ar
    18   19   18 ar
    19   20   15 ar
    20   21   20 1
    21   22   17 ar
    22   23   22 1
    23   24   22 ar
    24   25   24 1
    25   26   24 ar
    26   27   26 1
    27   28   18 ar
    28   29   28 1
    29   30   29 1
    30   31   19 1
    31   32   31 1
    32    7    9 ar
    33   15   16 ar
    34   19   20 ar
    35   26   28 ar
    36   29   31 2
@<TRIPOS>SUBSTRUCTURE
     1 RES1 1

@<TRIPOS>CRYSIN
  26.1030    9.9050    4.9770  90.0000  90.0000  90.0000  33 1

