# MOL2 file generated by ConQuest
# Please check atom types

@<TRIPOS>MOLECULE
SUMMES
    35    39     1
SMALL
NO_CHARGES
****
Generated from CSD

@<TRIPOS>ATOM
      1 C1        -2.6384    2.4629    2.2351 C.2       1 RES1    0.0000
      2 C2        -2.7341    1.0726    2.4649 C.2       1 RES1    0.0000
      3 C3        -1.7785    0.2317    3.0040 C.2       1 RES1    0.0000
      4 C4        -0.7405    0.7072    3.8047 C.2       1 RES1    0.0000
      5 C5         0.5672    0.2052    3.8873 C.2       1 RES1    0.0000
      6 C6         1.6619    1.0194    4.0882 C.2       1 RES1    0.0000
      7 C7         1.7663    2.4205    3.8704 C.2       1 RES1    0.0000
      8 C8         0.7761    3.2766    3.3810 C.2       1 RES1    0.0000
      9 C9         1.0969    4.5005    2.6200 C.ar      1 RES1    0.0000
     10 C10        0.0855    5.0534    1.7626 C.ar      1 RES1    0.0000
     11 C11        2.3243    5.1241    2.6867 C.ar      1 RES1    0.0000
     12 C12        2.6138    6.2534    1.9148 C.ar      1 RES1    0.0000
     13 C13        1.6942    6.7600    1.0554 C.ar      1 RES1    0.0000
     14 C14        0.4132    6.1749    0.9440 C.ar      1 RES1    0.0000
     15 C15       -0.5463    6.6663    0.0259 C.ar      1 RES1    0.0000
     16 C16       -1.7784    6.1095   -0.0507 C.ar      1 RES1    0.0000
     17 C17       -2.1134    5.0214    0.7639 C.ar      1 RES1    0.0000
     18 C18       -1.2167    4.4638    1.6552 C.ar      1 RES1    0.0000
     19 C19       -1.5316    3.2856    2.4848 C.2       1 RES1    0.0000
     20 C20       -0.5802    2.9087    3.4486 C.2       1 RES1    0.0000
     21 C21       -1.0009    1.9810    4.5309 C.3       1 RES1    0.0000
     22 H1        -3.3348    2.8340    1.6611 H         1 RES1    0.0000
     23 H2        -3.5097    0.6874    2.0292 H         1 RES1    0.0000
     24 H3        -1.8065   -0.7103    2.7354 H         1 RES1    0.0000
     25 H4         0.7080   -0.7540    3.7301 H         1 RES1    0.0000
     26 H5         2.5546    0.5759    4.1976 H         1 RES1    0.0000
     27 H6         2.6951    2.7725    3.8395 H         1 RES1    0.0000
     28 H7         2.9892    4.7748    3.2825 H         1 RES1    0.0000
     29 H8         3.4894    6.6597    2.0292 H         1 RES1    0.0000
     30 H9         1.8964    7.5281    0.4974 H         1 RES1    0.0000
     31 H10       -0.2752    7.4154   -0.5471 H         1 RES1    0.0000
     32 H11       -2.4380    6.4733   -0.7062 H         1 RES1    0.0000
     33 H12       -3.0100    4.6364    0.6764 H         1 RES1    0.0000
     34 H13       -1.9629    2.1257    4.7646 H         1 RES1    0.0000
     35 H14       -0.4138    2.0936    5.3316 H         1 RES1    0.0000
@<TRIPOS>BOND
     1    1    2 2
     2    2    3 1
     3    3    4 2
     4    4    5 1
     5    5    6 2
     6    6    7 1
     7    7    8 2
     8    8    9 1
     9    9   10 ar
    10   10   14 ar
    11   11    9 ar
    12   12   11 ar
    13   13   12 ar
    14   14   13 ar
    15   15   14 ar
    16   16   15 ar
    17   17   16 ar
    18   18   10 ar
    19   19    1 1
    20   20    8 1
    21   21    4 1
    22   22    1 1
    23   23    2 1
    24   24    3 1
    25   25    5 1
    26   26    6 1
    27   27    7 1
    28   28   11 1
    29   29   12 1
    30   30   13 1
    31   31   15 1
    32   32   16 1
    33   33   17 1
    34   34   21 1
    35   35   21 1
    36   17   18 ar
    37   18   19 1
    38   19   20 2
    39   20   21 1
@<TRIPOS>SUBSTRUCTURE
     1 RES1 1

@<TRIPOS>CRYSIN
   7.8230    8.4600   10.2840  94.6300 103.8700  90.7000   2 1

