# MOL2 file generated by ConQuest
# Please check atom types

@<TRIPOS>MOLECULE
SUVXUE
    85    92     1
SMALL
NO_CHARGES
****
Generated from CSD

@<TRIPOS>ATOM
      1 C1        10.4743    1.2383    0.1068 C.ar      1 RES1    0.0000
      2 H1        11.1077    1.3161   -0.5689 H         1 RES1    0.0000
      3 C2         9.1973    1.5819   -0.1530 C.ar      1 RES1    0.0000
      4 H2         8.9662    1.8948   -0.9981 H         1 RES1    0.0000
      5 C3         8.1986    1.4684    0.8593 C.ar      1 RES1    0.0000
      6 C4         6.9019    1.9276    0.6451 C.ar      1 RES1    0.0000
      7 H3         6.6703    2.2456   -0.1972 H         1 RES1    0.0000
      8 C5         5.9512    1.9255    1.6383 C.ar      1 RES1    0.0000
      9 C6         6.2947    1.3140    2.8523 C.ar      1 RES1    0.0000
     10 H4         5.6526    1.2752    3.5243 H         1 RES1    0.0000
     11 C7         7.5449    0.7618    3.1051 C.ar      1 RES1    0.0000
     12 C8         7.8925    0.1166    4.4005 C.ar      1 RES1    0.0000
     13 C9         6.9284   -0.4029    5.2530 C.ar      1 RES1    0.0000
     14 C10        7.2591   -0.7342    6.5870 C.ar      1 RES1    0.0000
     15 C11        6.3164   -1.2608    7.5104 C.ar      1 RES1    0.0000
     16 H5         5.4636   -1.4776    7.2089 H         1 RES1    0.0000
     17 C12        6.6258   -1.4613    8.8314 C.ar      1 RES1    0.0000
     18 H6         5.9798   -1.7946    9.4105 H         1 RES1    0.0000
     19 C13        7.8905   -1.1719    9.3068 C.ar      1 RES1    0.0000
     20 C14        8.8314   -0.7015    8.4537 C.ar      1 RES1    0.0000
     21 H7         9.6774   -0.5103    8.7882 H         1 RES1    0.0000
     22 C15        8.5782   -0.4847    7.0519 C.ar      1 RES1    0.0000
     23 C16        9.5924   -0.1094    6.1284 C.ar      1 RES1    0.0000
     24 C17        9.2769    0.0910    4.7772 C.ar      1 RES1    0.0000
     25 C18       10.2960    0.1943    3.7047 C.ar      1 RES1    0.0000
     26 C19       11.6284   -0.2025    3.8696 C.ar      1 RES1    0.0000
     27 H8        11.8843   -0.5471    4.6950 H         1 RES1    0.0000
     28 C20       12.5973   -0.1125    2.8692 C.ar      1 RES1    0.0000
     29 C21       12.2137    0.4009    1.6636 C.ar      1 RES1    0.0000
     30 H9        12.8556    0.5184    1.0023 H         1 RES1    0.0000
     31 C22       10.8833    0.7567    1.3878 C.ar      1 RES1    0.0000
     32 C23        9.9039    0.6146    2.4056 C.ar      1 RES1    0.0000
     33 C24        8.5447    0.9387    2.1253 C.ar      1 RES1    0.0000
     34 C25        4.5903    2.6311    1.4863 C.3       1 RES1    0.0000
     35 C26        4.2556    2.9164    0.0308 C.3       1 RES1    0.0000
     36 H10        4.8898    3.5432   -0.3266 H         1 RES1    0.0000
     37 H11        3.3723    3.2866   -0.0288 H         1 RES1    0.0000
     38 H12        4.2964    2.1004   -0.4724 H         1 RES1    0.0000
     39 C27        4.6696    3.9308    2.2407 C.3       1 RES1    0.0000
     40 H13        5.0295    3.7703    3.1156 H         1 RES1    0.0000
     41 H14        3.7924    4.3102    2.3187 H         1 RES1    0.0000
     42 H15        5.2412    4.5403    1.7683 H         1 RES1    0.0000
     43 C28        3.4570    1.7527    2.0251 C.3       1 RES1    0.0000
     44 H16        3.4966    0.8886    1.6081 H         1 RES1    0.0000
     45 H17        2.6125    2.1648    1.8279 H         1 RES1    0.0000
     46 H18        3.5521    1.6545    2.9739 H         1 RES1    0.0000
     47 C29        5.5511   -0.7649    4.8030 C.ar      1 RES1    0.0000
     48 C30        4.4155   -0.1166    5.2577 C.ar      1 RES1    0.0000
     49 H19        4.4963    0.5921    5.8554 H         1 RES1    0.0000
     50 C31        3.1572   -0.5133    4.8306 C.ar      1 RES1    0.0000
     51 H20        2.4027   -0.0562    5.1242 H         1 RES1    0.0000
     52 C32        3.0210   -1.5666    3.9844 C.ar      1 RES1    0.0000
     53 H21        2.1746   -1.8345    3.7112 H         1 RES1    0.0000
     54 C33        4.1197   -2.2302    3.5367 C.ar      1 RES1    0.0000
     55 H22        4.0220   -2.9512    2.9575 H         1 RES1    0.0000
     56 C34        5.3921   -1.8335    3.9439 C.ar      1 RES1    0.0000
     57 H23        6.1396   -2.2916    3.6352 H         1 RES1    0.0000
     58 C35        8.1274   -1.4357   10.7619 C.3       1 RES1    0.0000
     59 H24        9.0326   -1.2056   10.9879 H         1 RES1    0.0000
     60 H25        7.9767   -2.3652   10.9488 H         1 RES1    0.0000
     61 H26        7.5228   -0.9040   11.2857 H         1 RES1    0.0000
     62 C36       10.9524    0.1974    6.6977 C.ar      1 RES1    0.0000
     63 C37       11.7501   -0.7905    7.2787 C.ar      1 RES1    0.0000
     64 H27       11.4593   -1.6740    7.2910 H         1 RES1    0.0000
     65 C38       12.9641   -0.4612    7.8291 C.ar      1 RES1    0.0000
     66 H28       13.4901   -1.1259    8.2132 H         1 RES1    0.0000
     67 C39       13.4110    0.8314    7.8209 C.ar      1 RES1    0.0000
     68 H29       14.2349    1.0451    8.1967 H         1 RES1    0.0000
     69 C40       12.6387    1.8100    7.2561 C.ar      1 RES1    0.0000
     70 H30       12.9343    2.6914    7.2520 H         1 RES1    0.0000
     71 C41       11.4281    1.4899    6.6942 C.ar      1 RES1    0.0000
     72 H31       10.9171    2.1617    6.3031 H         1 RES1    0.0000
     73 C42       14.0340   -0.5686    3.1505 C.3       1 RES1    0.0000
     74 C43       14.9297   -0.3640    1.9162 C.3       1 RES1    0.0000
     75 H32       15.8053   -0.7189    2.0928 H         1 RES1    0.0000
     76 H33       14.9975    0.5737    1.7231 H         1 RES1    0.0000
     77 H34       14.5472   -0.8201    1.1645 H         1 RES1    0.0000
     78 C44       14.0382   -1.9869    3.5551 C.3       1 RES1    0.0000
     79 H35       13.5257   -2.0912    4.3602 H         1 RES1    0.0000
     80 H36       14.9420   -2.2732    3.7112 H         1 RES1    0.0000
     81 H37       13.6504   -2.5196    2.8568 H         1 RES1    0.0000
     82 C45       14.6156    0.3262    4.2432 C.3       1 RES1    0.0000
     83 H38       14.1074    0.2158    5.0503 H         1 RES1    0.0000
     84 H39       14.5732    1.2424    3.9618 H         1 RES1    0.0000
     85 H40       15.5292    0.0818    4.4054 H         1 RES1    0.0000
@<TRIPOS>BOND
     1    1    2 1
     2    3    1 ar
     3    4    3 1
     4    5    3 ar
     5    6    5 ar
     6    7    6 1
     7    8    6 ar
     8    9    8 ar
     9   10    9 1
    10   11    9 ar
    11   12   11 ar
    12   13   12 ar
    13   14   13 ar
    14   15   14 ar
    15   16   15 1
    16   17   15 ar
    17   18   17 1
    18   19   17 ar
    19   20   19 ar
    20   21   20 1
    21   22   14 ar
    22   23   22 ar
    23   24   12 ar
    24   25   24 ar
    25   26   25 ar
    26   27   26 1
    27   28   26 ar
    28   29   28 ar
    29   30   29 1
    30   31    1 ar
    31   32   25 ar
    32   33    5 ar
    33   34    8 1
    34   35   34 1
    35   36   35 1
    36   37   35 1
    37   38   35 1
    38   39   34 1
    39   40   39 1
    40   41   39 1
    41   42   39 1
    42   43   34 1
    43   44   43 1
    44   45   43 1
    45   46   43 1
    46   47   13 1
    47   48   47 ar
    48   49   48 1
    49   50   48 ar
    50   51   50 1
    51   52   50 ar
    52   53   52 1
    53   54   52 ar
    54   55   54 1
    55   56   47 ar
    56   57   56 1
    57   58   19 1
    58   59   58 1
    59   60   58 1
    60   61   58 1
    61   62   23 1
    62   63   62 ar
    63   64   63 1
    64   65   63 ar
    65   66   65 1
    66   67   65 ar
    67   68   67 1
    68   69   67 ar
    69   70   69 1
    70   71   62 ar
    71   72   71 1
    72   73   28 1
    73   74   73 1
    74   75   74 1
    75   76   74 1
    76   77   74 1
    77   78   73 1
    78   79   78 1
    79   80   78 1
    80   81   78 1
    81   82   73 1
    82   83   82 1
    83   84   82 1
    84   85   82 1
    85   11   33 ar
    86   20   22 ar
    87   23   24 ar
    88   29   31 ar
    89   31   32 ar
    90   32   33 ar
    91   54   56 ar
    92   69   71 ar
@<TRIPOS>SUBSTRUCTURE
     1 RES1 1

@<TRIPOS>CRYSIN
  15.5265   10.2258   20.7939  90.0000  98.9970  90.0000 231 1

