# MOL2 file generated by ConQuest
# Please check atom types

@<TRIPOS>MOLECULE
TARNAE
    58    65     1
SMALL
NO_CHARGES
****
Generated from CSD

@<TRIPOS>ATOM
      1 C1         7.8172    5.5053   12.5314 C.ar      1 RES1    0.0000
      2 C2         7.1028    5.5938   13.6873 C.ar      1 RES1    0.0000
      3 C3         5.6632    5.6945   13.4959 C.ar      1 RES1    0.0000
      4 C4         4.7657    5.7333   14.5983 C.ar      1 RES1    0.0000
      5 H1         5.1092    5.6146   15.4760 H         1 RES1    0.0000
      6 C5         3.4169    5.9376   14.4366 C.ar      1 RES1    0.0000
      7 H2         2.8466    5.9699   15.1954 H         1 RES1    0.0000
      8 C6         2.8855    6.0965   13.1568 C.ar      1 RES1    0.0000
      9 H3         1.9618    6.2921   13.0457 H         1 RES1    0.0000
     10 C7         5.0905    5.7319   12.1785 C.ar      1 RES1    0.0000
     11 C8         3.6948    5.9714   12.0619 C.ar      1 RES1    0.0000
     12 H4         3.3127    6.0461   11.1956 H         1 RES1    0.0000
     13 C9         5.8916    5.5715   10.9895 C.ar      1 RES1    0.0000
     14 C10        7.2318    5.4895   11.2237 C.ar      1 RES1    0.0000
     15 C11        8.5833    5.3413   10.6028 C.ar      1 RES1    0.0000
     16 C12        9.2926    5.2054    9.4718 C.ar      1 RES1    0.0000
     17 H5         8.8715    5.2011    8.6203 H         1 RES1    0.0000
     18 C13       10.7273    5.0645    9.6086 C.ar      1 RES1    0.0000
     19 C14       11.5441    4.9048    8.5002 C.ar      1 RES1    0.0000
     20 H6        11.1489    4.8933    7.6358 H         1 RES1    0.0000
     21 C15       12.9357    4.7603    8.6119 C.ar      1 RES1    0.0000
     22 C16       13.7797    4.5855    7.4848 C.ar      1 RES1    0.0000
     23 H7        13.4046    4.5826    6.6132 H         1 RES1    0.0000
     24 C17       15.1285    4.4208    7.6419 C.ar      1 RES1    0.0000
     25 H8        15.6779    4.3064    6.8748 H         1 RES1    0.0000
     26 C18       15.7136    4.4186    8.9204 C.ar      1 RES1    0.0000
     27 H9        16.6509    4.3036    9.0126 H         1 RES1    0.0000
     28 C19       14.9307    4.5833   10.0304 C.ar      1 RES1    0.0000
     29 H10       15.3310    4.5776   10.8913 H         1 RES1    0.0000
     30 C20       13.5261    4.7631    9.9096 C.ar      1 RES1    0.0000
     31 C21       12.6996    4.9221   11.0313 C.ar      1 RES1    0.0000
     32 H11       13.0940    4.9178   11.8948 H         1 RES1    0.0000
     33 C22       11.3250    5.0853   10.9222 C.ar      1 RES1    0.0000
     34 C23       10.5145    5.2392   12.1086 C.ar      1 RES1    0.0000
     35 H12       10.8990    5.2529   12.9768 H         1 RES1    0.0000
     36 C24        9.1851    5.3622   11.9219 C.ar      1 RES1    0.0000
     37 C25        7.7934    5.5916   15.0045 C.ar      1 RES1    0.0000
     38 C26        8.9290    4.7869   15.1657 C.ar      1 RES1    0.0000
     39 H13        9.2209    4.2424   14.4440 H         1 RES1    0.0000
     40 C27        9.6348    4.7689   16.3552 C.ar      1 RES1    0.0000
     41 H14       10.3987    4.2115   16.4463 H         1 RES1    0.0000
     42 C28        9.2275    5.5643   17.4179 C.ar      1 RES1    0.0000
     43 H15        9.7026    5.5456   18.2393 H         1 RES1    0.0000
     44 C29        8.1198    6.3870   17.2707 C.ar      1 RES1    0.0000
     45 H16        7.8420    6.9408   17.9920 H         1 RES1    0.0000
     46 C30        7.4172    6.4043   16.0774 C.ar      1 RES1    0.0000
     47 H17        6.6653    6.9789   15.9873 H         1 RES1    0.0000
     48 C31        5.3333    5.4622    9.6231 C.ar      1 RES1    0.0000
     49 C32        5.8575    6.2252    8.5805 C.ar      1 RES1    0.0000
     50 H18        6.5679    6.8308    8.7558 H         1 RES1    0.0000
     51 C33        5.3603    6.1145    7.3012 C.ar      1 RES1    0.0000
     52 H19        5.7297    6.6452    6.6037 H         1 RES1    0.0000
     53 C34        4.3266    5.2342    7.0234 C.ar      1 RES1    0.0000
     54 H20        3.9754    5.1731    6.1424 H         1 RES1    0.0000
     55 C35        3.8061    4.4424    8.0369 C.ar      1 RES1    0.0000
     56 H21        3.1087    3.8246    7.8498 H         1 RES1    0.0000
     57 C36        4.3084    4.5567    9.3189 C.ar      1 RES1    0.0000
     58 H22        3.9520    4.0101   10.0090 H         1 RES1    0.0000
@<TRIPOS>BOND
     1    1    2 ar
     2    2    3 ar
     3    3    4 ar
     4    4    5 1
     5    6    4 ar
     6    7    6 1
     7    8    6 ar
     8    9    8 1
     9   10    3 ar
    10   11    8 ar
    11   12   11 1
    12   13   10 ar
    13   14    1 ar
    14   15   14 1
    15   16   15 ar
    16   17   16 1
    17   18   16 ar
    18   19   18 ar
    19   20   19 1
    20   21   19 ar
    21   22   21 ar
    22   23   22 1
    23   24   22 ar
    24   25   24 1
    25   26   24 ar
    26   27   26 1
    27   28   26 ar
    28   29   28 1
    29   30   21 ar
    30   31   30 ar
    31   32   31 1
    32   33   18 ar
    33   34   33 ar
    34   35   34 1
    35   36    1 1
    36   37    2 1
    37   38   37 ar
    38   39   38 1
    39   40   38 ar
    40   41   40 1
    41   42   40 ar
    42   43   42 1
    43   44   42 ar
    44   45   44 1
    45   46   37 ar
    46   47   46 1
    47   48   13 1
    48   49   48 ar
    49   50   49 1
    50   51   49 ar
    51   52   51 1
    52   53   51 ar
    53   54   53 1
    54   55   53 ar
    55   56   55 1
    56   57   48 ar
    57   58   57 1
    58   10   11 ar
    59   13   14 ar
    60   15   36 ar
    61   28   30 ar
    62   31   33 ar
    63   34   36 ar
    64   44   46 ar
    65   55   57 ar
@<TRIPOS>SUBSTRUCTURE
     1 RES1 1

@<TRIPOS>CRYSIN
  26.8400    7.1918   25.8030  90.0000 112.8390  90.0000  15 1

