# MOL2 file generated by ConQuest
# Please check atom types

@<TRIPOS>MOLECULE
TAYFOO
    44    48     1
SMALL
NO_CHARGES
****
Generated from CSD

@<TRIPOS>ATOM
      1 C1         4.3519    7.2955    7.9631 C.2       1 RES1    0.0000
      2 C2         4.3405    6.4855    9.0818 C.2       1 RES1    0.0000
      3 C3         5.7285    6.2151    9.4441 C.ar      1 RES1    0.0000
      4 C4         6.3593    5.5017   10.4459 C.ar      1 RES1    0.0000
      5 C5         7.7604    5.4713   10.4664 C.ar      1 RES1    0.0000
      6 C6         8.5293    6.1378    9.5600 C.ar      1 RES1    0.0000
      7 C7         7.9232    6.8926    8.5128 C.ar      1 RES1    0.0000
      8 C8         8.5331    7.6598    7.4769 C.ar      1 RES1    0.0000
      9 C9         7.7687    8.3111    6.5853 C.ar      1 RES1    0.0000
     10 C10        6.3638    8.2973    6.5967 C.ar      1 RES1    0.0000
     11 C11        5.7305    7.5812    7.5883 C.ar      1 RES1    0.0000
     12 C12        6.5307    6.8954    8.5083 C.ar      1 RES1    0.0000
     13 C13        3.2240    5.9750    9.8121 C.1       1 RES1    0.0000
     14 C14        2.3704    5.5624   10.5345 C.1       1 RES1    0.0000
     15 C15        1.4176    5.0463   11.4636 C.ar      1 RES1    0.0000
     16 C16        1.8407    4.3950   12.6187 C.ar      1 RES1    0.0000
     17 C17        0.9311    3.9231   13.5307 C.ar      1 RES1    0.0000
     18 C18       -0.3918    4.0762   13.3388 C.ar      1 RES1    0.0000
     19 C19       -0.8385    4.7220   12.2223 C.ar      1 RES1    0.0000
     20 C20        0.0589    5.1981   11.2626 C.ar      1 RES1    0.0000
     21 C21        3.2476    7.8006    7.2259 C.1       1 RES1    0.0000
     22 C22        2.3815    8.2504    6.5081 C.1       1 RES1    0.0000
     23 C23        1.4344    8.7403    5.5768 C.ar      1 RES1    0.0000
     24 C24        0.0723    8.5885    5.7733 C.ar      1 RES1    0.0000
     25 C25       -0.8340    9.0797    4.8215 C.ar      1 RES1    0.0000
     26 C26       -0.3757    9.6924    3.7061 C.ar      1 RES1    0.0000
     27 C27        0.9457    9.8801    3.4937 C.ar      1 RES1    0.0000
     28 C28        1.8805    9.3861    4.4092 C.ar      1 RES1    0.0000
     29 H1         5.8540    5.0408   11.1047 H         1 RES1    0.0000
     30 H2         8.1958    4.9649   11.1433 H         1 RES1    0.0000
     31 H3         9.4760    6.1019    9.6259 H         1 RES1    0.0000
     32 H4         9.4801    7.7136    7.4168 H         1 RES1    0.0000
     33 H5         8.2024    8.8120    5.9061 H         1 RES1    0.0000
     34 H6         5.8654    8.7693    5.9414 H         1 RES1    0.0000
     35 H7         2.7711    4.2763   12.7788 H         1 RES1    0.0000
     36 H8         1.2390    3.4801   14.3133 H         1 RES1    0.0000
     37 H9        -1.0106    3.7340   13.9760 H         1 RES1    0.0000
     38 H10       -1.7702    4.8517   12.0996 H         1 RES1    0.0000
     39 H11       -0.2626    5.6203   10.4755 H         1 RES1    0.0000
     40 H12       -0.2481    8.1524    6.5513 H         1 RES1    0.0000
     41 H13       -1.7688    8.9804    4.9589 H         1 RES1    0.0000
     42 H14       -0.9951   10.0015    3.0564 H         1 RES1    0.0000
     43 H15        1.2402   10.3520    2.7225 H         1 RES1    0.0000
     44 H16        2.8105    9.4813    4.2422 H         1 RES1    0.0000
@<TRIPOS>BOND
     1    1    2 2
     2    2    3 1
     3    3    4 ar
     4    4    5 ar
     5    5    6 ar
     6    6    7 ar
     7    7    8 ar
     8    8    9 ar
     9    9   10 ar
    10   10   11 ar
    11   11    1 1
    12   12    3 ar
    13   13    2 1
    14   14   13 3
    15   15   14 1
    16   16   15 ar
    17   17   16 ar
    18   18   17 ar
    19   19   18 ar
    20   20   15 ar
    21   21    1 1
    22   22   21 3
    23   23   22 1
    24   24   23 ar
    25   25   24 ar
    26   26   25 ar
    27   27   26 ar
    28   28   23 ar
    29   29    4 1
    30   30    5 1
    31   31    6 1
    32   32    8 1
    33   33    9 1
    34   34   10 1
    35   35   16 1
    36   36   17 1
    37   37   18 1
    38   38   19 1
    39   39   20 1
    40   40   24 1
    41   41   25 1
    42   42   26 1
    43   43   27 1
    44   44   28 1
    45    7   12 ar
    46   11   12 ar
    47   19   20 ar
    48   27   28 ar
@<TRIPOS>SUBSTRUCTURE
     1 RES1 1

@<TRIPOS>CRYSIN
  12.3450   13.7990   11.3580  90.0000  90.1400  90.0000  14 2

