# MOL2 file generated by ConQuest
# Please check atom types

@<TRIPOS>MOLECULE
TETLUA
    46    48     1
SMALL
NO_CHARGES
****
Generated from CSD

@<TRIPOS>ATOM
      1 C1         0.9435    6.0163    7.1400 C.ar      1 RES1    0.0000
      2 C2         0.9965    4.4237    5.2523 C.ar      1 RES1    0.0000
      3 C3         0.9710    4.7122    6.6232 C.ar      1 RES1    0.0000
      4 C4         0.9844    6.8123    4.8274 C.ar      1 RES1    0.0000
      5 C5         0.9763    3.5598    7.4277 C.ar      1 RES1    0.0000
      6 C6         1.0063    5.4565    4.3647 C.ar      1 RES1    0.0000
      7 C7         0.9537    7.0633    6.1861 C.ar      1 RES1    0.0000
      8 C8         0.9526    3.7002    8.7807 C.ar      1 RES1    0.0000
      9 C9         0.9162    6.1188    8.5520 C.ar      1 RES1    0.0000
     10 C10        0.9124    5.0084    9.3675 C.ar      1 RES1    0.0000
     11 C11        1.0185    2.9166    5.0746 C.3       1 RES1    0.0000
     12 C12        1.0259    7.9248    3.7739 C.3       1 RES1    0.0000
     13 C13        1.0082    2.3420    6.5232 C.3       1 RES1    0.0000
     14 C14        0.9667    9.3243    4.3880 C.3       1 RES1    0.0000
     15 C15        0.8924    5.1163   10.8982 C.3       1 RES1    0.0000
     16 C16        2.2480    4.6455   11.4264 C.3       1 RES1    0.0000
     17 C17        0.6432    6.5378   11.3727 C.3       1 RES1    0.0000
     18 C18       -0.2039    4.2181   11.4738 C.3       1 RES1    0.0000
     19 C19        2.3432    7.8122    3.0016 C.3       1 RES1    0.0000
     20 C20       -0.1590    7.7726    2.8207 C.3       1 RES1    0.0000
     21 H1         1.0318    5.2937    3.4258 H         1 RES1    0.0000
     22 H2         0.8683    6.9463    8.9338 H         1 RES1    0.0000
     23 H3         1.8339    1.7992    6.6881 H         1 RES1    0.0000
     24 H4         0.1777    1.7462    6.6881 H         1 RES1    0.0000
     25 H5         0.2122    2.6547    4.6022 H         1 RES1    0.0000
     26 H6         1.8629    2.6054    4.5972 H         1 RES1    0.0000
     27 H7         0.9064    9.9923    3.6666 H         1 RES1    0.0000
     28 H8        -0.1547    6.9164    2.3704 H         1 RES1    0.0000
     29 H9        -0.9974    7.8425    3.3222 H         1 RES1    0.0000
     30 H10        2.4222    6.9726    2.5575 H         1 RES1    0.0000
     31 H11        0.1308    9.4132    4.9216 H         1 RES1    0.0000
     32 H12        1.7984    9.4970    5.0626 H         1 RES1    0.0000
     33 H13       -0.1261    8.4406    2.0709 H         1 RES1    0.0000
     34 H14        2.3178    8.4632    2.2818 H         1 RES1    0.0000
     35 H15        0.6158    6.5508   12.3758 H         1 RES1    0.0000
     36 H16        3.1885    7.9078    3.6279 H         1 RES1    0.0000
     37 H17        2.2628    3.6826   11.1282 H         1 RES1    0.0000
     38 H18       -0.2027    4.2854   12.4756 H         1 RES1    0.0000
     39 H19        1.3659    7.1338   11.0409 H         1 RES1    0.0000
     40 H20       -1.0924    4.8540   11.0533 H         1 RES1    0.0000
     41 H21        2.1891    4.7030   12.3882 H         1 RES1    0.0000
     42 H22       -0.2785    6.8043   11.0159 H         1 RES1    0.0000
     43 H23        0.9161    7.9776    6.4761 H         1 RES1    0.0000
     44 H24        0.9927    2.9318    9.3280 H         1 RES1    0.0000
     45 H25       -0.0057    3.3034   11.2779 H         1 RES1    0.0000
     46 H26        2.7789    5.5599   11.1157 H         1 RES1    0.0000
@<TRIPOS>BOND
     1    1    3 ar
     2    2    3 ar
     3    3    5 ar
     4    4    6 ar
     5    5    8 ar
     6    6    2 ar
     7    7    1 ar
     8    8   10 ar
     9    9    1 ar
    10   10    9 ar
    11   11    2 1
    12   12    4 1
    13   13    5 1
    14   14   12 1
    15   15   10 1
    16   16   15 1
    17   17   15 1
    18   18   15 1
    19   19   12 1
    20   20   12 1
    21   21    6 1
    22   22    9 1
    23   23   13 1
    24   24   13 1
    25   25   11 1
    26   26   11 1
    27   27   14 1
    28   28   20 1
    29   29   20 1
    30   30   19 1
    31   31   14 1
    32   32   14 1
    33   33   20 1
    34   34   19 1
    35   35   17 1
    36   36   19 1
    37   37   16 1
    38   38   18 1
    39   39   17 1
    40   40   18 1
    41   41   16 1
    42   42   17 1
    43   43    7 1
    44   44    8 1
    45   45   18 1
    46   46   16 1
    47    4    7 ar
    48   11   13 1
@<TRIPOS>SUBSTRUCTURE
     1 RES1 1

@<TRIPOS>CRYSIN
   6.8740    9.8180   12.7340  99.6490  96.2360  90.4450   2 1

