# MOL2 file generated by ConQuest
# Please check atom types

@<TRIPOS>MOLECULE
TEWWOK
    56    60     1
SMALL
NO_CHARGES
****
Generated from CSD

@<TRIPOS>ATOM
      1 C1         2.9086    4.8163    5.5700 C.ar      1 RES1    0.0000
      2 C2         4.1158    4.1858    5.5883 C.ar      1 RES1    0.0000
      3 C3         5.1260    4.4864    4.6017 C.ar      1 RES1    0.0000
      4 C4         6.3333    3.7685    4.5678 C.ar      1 RES1    0.0000
      5 H1         6.5142    3.1365    5.2549 H         1 RES1    0.0000
      6 C5         7.2600    3.9537    3.5711 C.ar      1 RES1    0.0000
      7 H2         8.0796    3.4749    3.5817 H         1 RES1    0.0000
      8 C6         6.9788    4.8562    2.5427 C.ar      1 RES1    0.0000
      9 H3         7.5880    4.9568    1.8213 H         1 RES1    0.0000
     10 C7         5.8253    5.5950    2.5746 C.ar      1 RES1    0.0000
     11 H4         5.6479    6.1990    1.8632 H         1 RES1    0.0000
     12 C8         4.8923    5.4902    3.6284 C.ar      1 RES1    0.0000
     13 C9         3.6828    6.2983    3.7122 C.ar      1 RES1    0.0000
     14 C10        3.4727    7.5090    2.9755 C.ar      1 RES1    0.0000
     15 C11        2.2212    8.0878    3.0126 C.ar      1 RES1    0.0000
     16 H5         2.0840    8.8826    2.5115 H         1 RES1    0.0000
     17 C12        1.1446    7.5789    3.7393 C.ar      1 RES1    0.0000
     18 C13        1.3933    6.4989    4.5644 C.ar      1 RES1    0.0000
     19 H6         0.6938    6.1661    5.1155 H         1 RES1    0.0000
     20 C14        2.6570    5.8802    4.6084 C.ar      1 RES1    0.0000
     21 C15        4.5550    8.2639    2.2346 C.3       1 RES1    0.0000
     22 H7         5.4019    8.1794    2.7190 H         1 RES1    0.0000
     23 H8         4.3074    9.2104    2.1717 H         1 RES1    0.0000
     24 H9         4.6555    7.8913    1.3333 H         1 RES1    0.0000
     25 C16       -0.2039    8.2318    3.6429 C.3       1 RES1    0.0000
     26 H10       -0.8307    7.7753    4.2423 H         1 RES1    0.0000
     27 H11       -0.5312    8.1724    2.7207 H         1 RES1    0.0000
     28 H12       -0.1298    9.1734    3.9041 H         1 RES1    0.0000
     29 C17        1.8558    4.4794    6.5750 C.ar      1 RES1    0.0000
     30 C18        1.5608    5.3623    7.6106 C.ar      1 RES1    0.0000
     31 H13        2.0289    6.1864    7.6671 H         1 RES1    0.0000
     32 C19        0.5922    5.0617    8.5659 C.ar      1 RES1    0.0000
     33 C20       -0.0918    3.8586    8.4558 C.ar      1 RES1    0.0000
     34 H14       -0.7573    3.6454    9.0980 H         1 RES1    0.0000
     35 C21        0.1727    2.9569    7.4288 C.ar      1 RES1    0.0000
     36 C22        1.1617    3.2743    6.5063 C.ar      1 RES1    0.0000
     37 H15        1.3680    2.6563    5.8144 H         1 RES1    0.0000
     38 C23        0.2862    6.0179    9.6974 C.3       1 RES1    0.0000
     39 H16        1.0438    6.6275    9.8231 H         1 RES1    0.0000
     40 H17        0.1332    5.5112   10.5220 H         1 RES1    0.0000
     41 H18       -0.5169    6.5359    9.4797 H         1 RES1    0.0000
     42 C24       -0.6412    1.6944    7.2971 C.3       1 RES1    0.0000
     43 H19       -1.3478    1.8301    6.6318 H         1 RES1    0.0000
     44 H20       -1.0445    1.4743    8.1621 H         1 RES1    0.0000
     45 H21       -0.0593    0.9598    7.0118 H         1 RES1    0.0000
     46 C25        4.4165    3.1345    6.6114 C.ar      1 RES1    0.0000
     47 C26        4.8275    3.4623    7.8891 C.ar      1 RES1    0.0000
     48 H22        4.8868    4.3766    8.1394 H         1 RES1    0.0000
     49 C27        5.1553    2.4837    8.8103 C.ar      1 RES1    0.0000
     50 H23        5.4417    2.7297    9.6819 H         1 RES1    0.0000
     51 C28        5.0681    1.1499    8.4641 C.ar      1 RES1    0.0000
     52 H24        5.2926    0.4774    9.0963 H         1 RES1    0.0000
     53 C29        4.6510    0.7976    7.1928 C.ar      1 RES1    0.0000
     54 H25        4.5894   -0.1188    6.9508 H         1 RES1    0.0000
     55 C30        4.3231    1.7783    6.2747 C.ar      1 RES1    0.0000
     56 H26        4.0315    1.5295    5.4065 H         1 RES1    0.0000
@<TRIPOS>BOND
     1    1    2 ar
     2    2    3 ar
     3    3    4 ar
     4    4    5 1
     5    6    4 ar
     6    7    6 1
     7    8    6 ar
     8    9    8 1
     9   10    8 ar
    10   11   10 1
    11   12    3 ar
    12   13   12 ar
    13   14   13 ar
    14   15   14 ar
    15   16   15 1
    16   17   15 ar
    17   18   17 ar
    18   19   18 1
    19   20    1 ar
    20   21   14 1
    21   22   21 1
    22   23   21 1
    23   24   21 1
    24   25   17 1
    25   26   25 1
    26   27   25 1
    27   28   25 1
    28   29    1 1
    29   30   29 ar
    30   31   30 1
    31   32   30 ar
    32   33   32 ar
    33   34   33 1
    34   35   33 ar
    35   36   29 ar
    36   37   36 1
    37   38   32 1
    38   39   38 1
    39   40   38 1
    40   41   38 1
    41   42   35 1
    42   43   42 1
    43   44   42 1
    44   45   42 1
    45   46    2 1
    46   47   46 ar
    47   48   47 1
    48   49   47 ar
    49   50   49 1
    50   51   49 ar
    51   52   51 1
    52   53   51 ar
    53   54   53 1
    54   55   46 ar
    55   56   55 1
    56   10   12 ar
    57   13   20 ar
    58   18   20 ar
    59   35   36 ar
    60   53   55 ar
@<TRIPOS>SUBSTRUCTURE
     1 RES1 1

@<TRIPOS>CRYSIN
  17.4337    6.9903   17.9350  90.0000 103.6400  90.0000  14 1

