# MOL2 file generated by ConQuest
# Please check atom types

@<TRIPOS>MOLECULE
TEYGOW
    36    39     1
SMALL
NO_CHARGES
****
Generated from CSD

@<TRIPOS>ATOM
      1 C1        17.5983    3.1745    8.3777 C.1       1 RES1    0.0000
      2 C2        18.8792    3.8128    8.7231 C.ar      1 RES1    0.0000
      3 C3        18.8909    5.0830    9.3633 C.ar      1 RES1    0.0000
      4 H1        18.0714    5.5304    9.5394 H         1 RES1    0.0000
      5 C4        20.0550    5.6534    9.7222 C.ar      1 RES1    0.0000
      6 H2        20.0440    6.4990   10.1548 H         1 RES1    0.0000
      7 C5        21.2943    5.0215    9.4679 C.ar      1 RES1    0.0000
      8 C6        22.5402    5.6036    9.8667 C.ar      1 RES1    0.0000
      9 H3        22.5528    6.4211   10.3505 H         1 RES1    0.0000
     10 C7        23.7266    4.9717    9.5447 C.ar      1 RES1    0.0000
     11 H4        24.5555    5.3928    9.7433 H         1 RES1    0.0000
     12 C8        23.7167    3.7232    8.9322 C.ar      1 RES1    0.0000
     13 H5        24.5414    3.2764    8.7818 H         1 RES1    0.0000
     14 C9        22.5121    3.0996    8.5267 C.ar      1 RES1    0.0000
     15 H6        22.5177    2.2692    8.0655 H         1 RES1    0.0000
     16 C10       21.2967    3.7642    8.8374 C.ar      1 RES1    0.0000
     17 C11       20.0426    3.1499    8.4304 C.ar      1 RES1    0.0000
     18 H7        20.0298    2.3160    7.9752 H         1 RES1    0.0000
     19 C12       16.5486    2.6733    8.1332 C.1       1 RES1    0.0000
     20 C13       15.3154    2.0584    7.8315 C.ar      1 RES1    0.0000
     21 C14       15.2861    0.7671    7.2078 C.ar      1 RES1    0.0000
     22 H8        16.1021    0.3139    7.0340 H         1 RES1    0.0000
     23 C15       14.0880    0.1716    6.8549 C.ar      1 RES1    0.0000
     24 H9        14.0953   -0.6805    6.4351 H         1 RES1    0.0000
     25 C16       12.8543    0.8128    7.1107 C.ar      1 RES1    0.0000
     26 C17       11.5964    0.2471    6.7910 C.ar      1 RES1    0.0000
     27 H10       11.5636   -0.6248    6.4148 H         1 RES1    0.0000
     28 C18       10.4482    0.9112    7.0054 C.ar      1 RES1    0.0000
     29 H11        9.6259    0.5546    6.6856 H         1 RES1    0.0000
     30 C19       10.4560    2.1614    7.7179 C.ar      1 RES1    0.0000
     31 H12        9.6394    2.5813    7.9632 H         1 RES1    0.0000
     32 C20       11.5957    2.7102    8.0234 C.ar      1 RES1    0.0000
     33 H13       11.5772    3.5710    8.4236 H         1 RES1    0.0000
     34 C21       12.8611    2.1093    7.7976 C.ar      1 RES1    0.0000
     35 C22       14.0950    2.6569    8.0873 C.ar      1 RES1    0.0000
     36 H14       14.1060    3.5142    8.4959 H         1 RES1    0.0000
@<TRIPOS>BOND
     1    1    2 1
     2    2    3 ar
     3    3    4 1
     4    5    3 ar
     5    6    5 1
     6    7    5 ar
     7    8    7 ar
     8    9    8 1
     9   10    8 ar
    10   11   10 1
    11   12   10 ar
    12   13   12 1
    13   14   12 ar
    14   15   14 1
    15   16    7 ar
    16   17    2 ar
    17   18   17 1
    18   19    1 3
    19   20   19 1
    20   21   20 ar
    21   22   21 1
    22   23   21 ar
    23   24   23 1
    24   25   23 ar
    25   26   25 ar
    26   27   26 1
    27   28   26 ar
    28   29   28 1
    29   30   28 ar
    30   31   30 1
    31   32   30 ar
    32   33   32 1
    33   34   25 ar
    34   35   20 ar
    35   36   35 1
    36   14   16 ar
    37   16   17 ar
    38   32   34 ar
    39   34   35 ar
@<TRIPOS>SUBSTRUCTURE
     1 RES1 1

@<TRIPOS>CRYSIN
  33.3260    5.8560    7.5350  90.0000  93.1270  90.0000   9 1

