# MOL2 file generated by ConQuest
# Please check atom types

@<TRIPOS>MOLECULE
TIDTOQ
    49    55     1
SMALL
NO_CHARGES
****
Generated from CSD

@<TRIPOS>ATOM
      1 C1         3.8276    0.7549    2.5712 C.2       1 RES1    0.0000
      2 H1         3.0980    0.1012    2.6207 H         1 RES1    0.0000
      3 C2         4.9365    0.4957    1.8369 C.2       1 RES1    0.0000
      4 H2         4.9923   -0.3681    1.3245 H         1 RES1    0.0000
      5 C3         6.0660    1.4144    1.8108 C.2       1 RES1    0.0000
      6 H3         6.9005    1.1059    1.3427 H         1 RES1    0.0000
      7 C4         6.0289    2.6209    2.4052 C.2       1 RES1    0.0000
      8 H4         6.7866    3.2214    2.3837 H         1 RES1    0.0000
      9 C5         4.7919    3.0807    3.0966 C.3       1 RES1    0.0000
     10 C6         3.9824    4.2304    2.4554 C.ar      1 RES1    0.0000
     11 C7         3.9405    4.7381    1.1769 C.ar      1 RES1    0.0000
     12 H5         4.5797    4.4185    0.4699 H         1 RES1    0.0000
     13 C8         2.9578    5.7001    0.8814 C.ar      1 RES1    0.0000
     14 H6         2.8813    6.0556   -0.0527 H         1 RES1    0.0000
     15 C9         2.0716    6.1411    1.8482 C.ar      1 RES1    0.0000
     16 H7         1.4084    6.8310    1.6465 H         1 RES1    0.0000
     17 C10        2.1277    5.6331    3.1561 C.ar      1 RES1    0.0000
     18 H8         1.5037    5.9686    3.8763 H         1 RES1    0.0000
     19 C11        3.0803    4.6745    3.4368 C.ar      1 RES1    0.0000
     20 C12        3.3282    3.8186    4.6714 C.3       1 RES1    0.0000
     21 H9         2.9528    4.1977    5.5289 H         1 RES1    0.0000
     22 C13        2.8529    2.4145    4.2404 C.2       1 RES1    0.0000
     23 C14        3.7464    1.9795    3.3141 C.2       1 RES1    0.0000
     24 C15        4.8663    3.6291    4.5491 C.3       1 RES1    0.0000
     25 H10        5.2446    2.9496    5.1968 H         1 RES1    0.0000
     26 H11        5.3763    4.4695    4.6337 H         1 RES1    0.0000
     27 C16        2.1428    1.9150    7.0385 C.ar      1 RES1    0.0000
     28 H12        2.9989    2.3021    6.8331 H         1 RES1    0.0000
     29 C17        1.7740    1.7405    8.3448 C.ar      1 RES1    0.0000
     30 H13        2.3783    2.0244    9.0690 H         1 RES1    0.0000
     31 C18        0.5307    1.1325    8.6710 C.ar      1 RES1    0.0000
     32 H14        0.2893    1.0122    9.6118 H         1 RES1    0.0000
     33 C19       -0.2956    0.6903    7.6866 C.ar      1 RES1    0.0000
     34 H15       -1.1419    0.2359    7.9004 H         1 RES1    0.0000
     35 C20        0.0349    0.8786    6.3072 C.ar      1 RES1    0.0000
     36 C21       -0.8122    0.4383    5.2911 C.ar      1 RES1    0.0000
     37 H16       -1.6596   -0.0418    5.5167 H         1 RES1    0.0000
     38 C22       -0.5350    0.6981    3.9508 C.ar      1 RES1    0.0000
     39 C23       -1.4251    0.2730    2.9133 C.ar      1 RES1    0.0000
     40 H17       -2.2024   -0.2593    3.1816 H         1 RES1    0.0000
     41 C24       -1.1840    0.5766    1.6113 C.ar      1 RES1    0.0000
     42 H18       -1.7690    0.2342    0.8850 H         1 RES1    0.0000
     43 C25       -0.0514    1.3649    1.2646 C.ar      1 RES1    0.0000
     44 H19        0.0587    1.6237    0.2916 H         1 RES1    0.0000
     45 C26        0.8331    1.7727    2.2219 C.ar      1 RES1    0.0000
     46 H20        1.5830    2.3255    1.9584 H         1 RES1    0.0000
     47 C27        0.6552    1.4180    3.5990 C.ar      1 RES1    0.0000
     48 C28        1.5810    1.7837    4.6100 C.ar      1 RES1    0.0000
     49 C29        1.2681    1.5365    5.9700 C.ar      1 RES1    0.0000
@<TRIPOS>BOND
     1    1    2 1
     2    3    1 2
     3    4    3 1
     4    5    3 1
     5    6    5 1
     6    7    5 2
     7    8    7 1
     8    9    7 1
     9   10    9 1
    10   11   10 ar
    11   12   11 1
    12   13   11 ar
    13   14   13 1
    14   15   13 ar
    15   16   15 1
    16   17   15 ar
    17   18   17 1
    18   19   10 ar
    19   20   19 1
    20   21   20 1
    21   22   20 1
    22   23    1 1
    23   24    9 1
    24   25   24 1
    25   26   24 1
    26   27   28 1
    27   29   27 ar
    28   30   29 1
    29   31   29 ar
    30   32   31 1
    31   33   31 ar
    32   34   33 1
    33   35   33 ar
    34   36   35 ar
    35   37   36 1
    36   38   36 ar
    37   39   38 ar
    38   40   39 1
    39   41   39 ar
    40   42   41 1
    41   43   41 ar
    42   44   43 1
    43   45   43 ar
    44   46   45 1
    45   47   38 ar
    46   48   22 1
    47   49   27 ar
    48    9   23 1
    49   17   19 ar
    50   20   24 1
    51   22   23 2
    52   35   49 ar
    53   45   47 ar
    54   47   48 ar
    55   48   49 ar
@<TRIPOS>SUBSTRUCTURE
     1 RES1 1

@<TRIPOS>CRYSIN
  11.2911    8.3652   20.6135  90.0000 100.7410  90.0000  14 1

