# MOL2 file generated by ConQuest
# Please check atom types

@<TRIPOS>MOLECULE
TRIPHE13
    30    33     1
SMALL
NO_CHARGES
****
Generated from CSD

@<TRIPOS>ATOM
      1 C1         1.8322    7.2211    8.0740 C.ar      1 RES1    0.0000
      2 C2         2.7190    6.1267    8.0909 C.ar      1 RES1    0.0000
      3 C3         2.5825    5.1729    9.1165 C.ar      1 RES1    0.0000
      4 H1         3.1801    4.4351    9.1414 H         1 RES1    0.0000
      5 C4         1.6130    5.2754   10.0828 C.ar      1 RES1    0.0000
      6 H2         1.5350    4.6075   10.7528 H         1 RES1    0.0000
      7 C5         0.7446    6.3611   10.0765 C.ar      1 RES1    0.0000
      8 H3         0.0759    6.4427   10.7461 H         1 RES1    0.0000
      9 C6         0.8594    7.3174    9.0945 C.ar      1 RES1    0.0000
     10 H4         0.2693    8.0614    9.1030 H         1 RES1    0.0000
     11 C7         3.7270    5.9841    7.0380 C.ar      1 RES1    0.0000
     12 C8         3.8024    6.9286    5.9940 C.ar      1 RES1    0.0000
     13 C9         4.7909    6.7654    4.9995 C.ar      1 RES1    0.0000
     14 H5         4.8368    7.3927    4.2874 H         1 RES1    0.0000
     15 C10        5.6846    5.7301    5.0326 C.ar      1 RES1    0.0000
     16 H6         6.3465    5.6482    4.3559 H         1 RES1    0.0000
     17 C11        5.6177    4.7962    6.0660 C.ar      1 RES1    0.0000
     18 H7         6.2337    4.0735    6.0976 H         1 RES1    0.0000
     19 C12        4.6560    4.9263    7.0385 C.ar      1 RES1    0.0000
     20 H8         4.6165    4.2809    7.7340 H         1 RES1    0.0000
     21 C13        2.8550    8.0581    5.9642 C.ar      1 RES1    0.0000
     22 C14        1.9023    8.2043    6.9849 C.ar      1 RES1    0.0000
     23 C15        0.9964    9.2871    6.9168 C.ar      1 RES1    0.0000
     24 H9         0.3525    9.4015    7.6053 H         1 RES1    0.0000
     25 C16        1.0312   10.1768    5.8700 C.ar      1 RES1    0.0000
     26 H10        0.4073   10.8920    5.8369 H         1 RES1    0.0000
     27 C17        1.9744   10.0358    4.8575 C.ar      1 RES1    0.0000
     28 H11        1.9960   10.6522    4.1353 H         1 RES1    0.0000
     29 C18        2.8734    9.0000    4.9080 C.ar      1 RES1    0.0000
     30 H12        3.5221    8.9129    4.2189 H         1 RES1    0.0000
@<TRIPOS>BOND
     1    1    2 ar
     2    2    3 ar
     3    3    4 1
     4    5    3 ar
     5    6    5 1
     6    7    5 ar
     7    8    7 1
     8    9    1 ar
     9   10    9 1
    10   11    2 ar
    11   12   11 ar
    12   13   12 ar
    13   14   13 1
    14   15   13 ar
    15   16   15 1
    16   17   15 ar
    17   18   17 1
    18   19   11 ar
    19   20   19 1
    20   21   12 ar
    21   22    1 ar
    22   23   22 ar
    23   24   23 1
    24   25   23 ar
    25   26   25 1
    26   27   25 ar
    27   28   27 1
    28   29   21 ar
    29   30   29 1
    30    7    9 ar
    31   17   19 ar
    32   21   22 ar
    33   27   29 ar
@<TRIPOS>SUBSTRUCTURE
     1 RES1 1

@<TRIPOS>CRYSIN
   5.2694   12.9605   16.7150  90.0000  90.0000  90.0000  19 1

