# MOL2 file generated by ConQuest
# Please check atom types

@<TRIPOS>MOLECULE
TRIPHE11
    30    33     1
SMALL
NO_CHARGES
****
Generated from CSD

@<TRIPOS>ATOM
      1 C1         5.8001   -5.0307   -2.2534 C.ar      1 RES1    0.0000
      2 C2         7.3173   -8.0923   -6.0574 C.ar      1 RES1    0.0000
      3 C3         7.4279   -9.1028   -7.0342 C.ar      1 RES1    0.0000
      4 C4         6.4428  -10.0915   -7.1441 C.ar      1 RES1    0.0000
      5 C5         5.3707  -10.1016   -6.2747 C.ar      1 RES1    0.0000
      6 C6         5.2640   -9.1195   -5.2958 C.ar      1 RES1    0.0000
      7 C7         6.2083   -8.0890   -5.2048 C.ar      1 RES1    0.0000
      8 C8         6.0556   -7.0400   -4.1738 C.ar      1 RES1    0.0000
      9 C9         4.9914   -7.0450   -3.2670 C.ar      1 RES1    0.0000
     10 C10        4.8479   -6.0579   -2.3176 C.ar      1 RES1    0.0000
     11 C11        6.8563   -5.0090   -3.1313 C.ar      1 RES1    0.0000
     12 C12        7.0157   -6.0077   -4.1081 C.ar      1 RES1    0.0000
     13 C13        8.1470   -5.9776   -5.0296 C.ar      1 RES1    0.0000
     14 C14        9.0992   -4.9303   -4.9975 C.ar      1 RES1    0.0000
     15 C15       10.1396   -4.8768   -5.9001 C.ar      1 RES1    0.0000
     16 C16       10.3082   -5.8957   -6.8275 C.ar      1 RES1    0.0000
     17 C17        9.4007   -6.9446   -6.8627 C.ar      1 RES1    0.0000
     18 C18        8.3024   -7.0032   -6.0022 C.ar      1 RES1    0.0000
     19 H1         5.7474   -4.2578   -1.5149 H         1 RES1    0.0000
     20 H2         8.2299   -9.1296   -7.6480 H         1 RES1    0.0000
     21 H3         6.5692  -10.8578   -7.8953 H         1 RES1    0.0000
     22 H4         4.6108  -10.8578   -6.3804 H         1 RES1    0.0000
     23 H5         4.4185   -9.1697   -4.6551 H         1 RES1    0.0000
     24 H6         4.2631   -7.8581   -3.2770 H         1 RES1    0.0000
     25 H7         4.0485   -6.1232   -1.6043 H         1 RES1    0.0000
     26 H8         7.5569   -4.2109   -3.0140 H         1 RES1    0.0000
     27 H9         8.9925   -4.1507   -4.3132 H         1 RES1    0.0000
     28 H10       10.8600   -4.0687   -5.8176 H         1 RES1    0.0000
     29 H11       11.1142   -5.8689   -7.5691 H         1 RES1    0.0000
     30 H12        9.5193   -7.7309   -7.6586 H         1 RES1    0.0000
@<TRIPOS>BOND
     1    1   10 ar
     2    2    3 ar
     3    3    4 ar
     4    4    5 ar
     5    5    6 ar
     6    6    7 ar
     7    7    2 ar
     8    8    7 ar
     9    9    8 ar
    10   10    9 ar
    11   11    1 ar
    12   12    8 ar
    13   13   12 ar
    14   14   13 ar
    15   15   14 ar
    16   16   15 ar
    17   17   16 ar
    18   18    2 ar
    19   19    1 1
    20   20    3 1
    21   21    4 1
    22   22    5 1
    23   23    6 1
    24   24    9 1
    25   25   10 1
    26   26   11 1
    27   27   14 1
    28   28   15 1
    29   29   16 1
    30   30   17 1
    31   11   12 ar
    32   13   18 ar
    33   17   18 ar
@<TRIPOS>SUBSTRUCTURE
     1 RES1 1

@<TRIPOS>CRYSIN
  13.1700   16.7300    5.2600  90.0000  90.0000  90.0000  19 1

