# MOL2 file generated by ConQuest
# Please check atom types

@<TRIPOS>MOLECULE
TRIPHE12
    30    33     1
SMALL
NO_CHARGES
****
Generated from CSD

@<TRIPOS>ATOM
      1 C1         2.5946    5.1719    9.1092 C.ar      1 RES1    0.0000
      2 H1         3.1949    4.4364    9.1320 H         1 RES1    0.0000
      3 C2         1.6157    5.2757   10.0793 C.ar      1 RES1    0.0000
      4 H2         1.5370    4.6064   10.7493 H         1 RES1    0.0000
      5 C3         0.7440    6.3641   10.0710 C.ar      1 RES1    0.0000
      6 H3         0.0734    6.4419   10.7376 H         1 RES1    0.0000
      7 C4         0.8596    7.3266    9.0893 C.ar      1 RES1    0.0000
      8 H4         0.2698    8.0725    9.0970 H         1 RES1    0.0000
      9 C5         0.9984    9.2996    6.9073 C.ar      1 RES1    0.0000
     10 H5         0.3511    9.4073    7.5933 H         1 RES1    0.0000
     11 C6         1.0275   10.1986    5.8675 C.ar      1 RES1    0.0000
     12 H6         0.4034   10.9146    5.8374 H         1 RES1    0.0000
     13 C7         1.9774   10.0559    4.8584 C.ar      1 RES1    0.0000
     14 H7         2.0053   10.6760    4.1417 H         1 RES1    0.0000
     15 C8         2.8771    9.0104    4.9035 C.ar      1 RES1    0.0000
     16 H8         3.5165    8.9208    4.2085 H         1 RES1    0.0000
     17 C9         4.7969    6.7818    4.9937 C.ar      1 RES1    0.0000
     18 H9         4.8418    7.4083    4.2820 H         1 RES1    0.0000
     19 C10        5.7013    5.7362    5.0321 C.ar      1 RES1    0.0000
     20 H10        6.3666    5.6558    4.3589 H         1 RES1    0.0000
     21 C11        5.6311    4.8035    6.0613 C.ar      1 RES1    0.0000
     22 H11        6.2473    4.0823    6.0897 H         1 RES1    0.0000
     23 C12        4.6686    4.9281    7.0403 C.ar      1 RES1    0.0000
     24 H12        4.6306    4.2834    7.7370 H         1 RES1    0.0000
     25 C13        2.7224    6.1319    8.0859 C.ar      1 RES1    0.0000
     26 C14        1.8359    7.2293    8.0713 C.ar      1 RES1    0.0000
     27 C15        1.9066    8.2204    6.9817 C.ar      1 RES1    0.0000
     28 C16        2.8702    8.0699    5.9602 C.ar      1 RES1    0.0000
     29 C17        3.8111    6.9426    5.9861 C.ar      1 RES1    0.0000
     30 C18        3.7361    5.9918    7.0310 C.ar      1 RES1    0.0000
@<TRIPOS>BOND
     1    1    2 1
     2    3    1 ar
     3    4    3 1
     4    5    3 ar
     5    6    5 1
     6    7    5 ar
     7    8    7 1
     8    9   10 1
     9   11    9 ar
    10   12   11 1
    11   13   11 ar
    12   14   13 1
    13   15   13 ar
    14   16   15 1
    15   17   18 1
    16   19   17 ar
    17   20   19 1
    18   21   19 ar
    19   22   21 1
    20   23   21 ar
    21   24   23 1
    22   25    1 ar
    23   26    7 ar
    24   27    9 ar
    25   28   15 ar
    26   29   17 ar
    27   30   23 ar
    28   25   26 ar
    29   25   30 ar
    30   26   27 ar
    31   27   28 ar
    32   28   29 ar
    33   29   30 ar
@<TRIPOS>SUBSTRUCTURE
     1 RES1 1

@<TRIPOS>CRYSIN
   5.2800   12.9720   16.7070  90.0000  90.0000  90.0000  19 1

