# MOL2 file generated by ConQuest
# Please check atom types

@<TRIPOS>MOLECULE
TUFMOY
    42    46     1
SMALL
NO_CHARGES
****
Generated from CSD

@<TRIPOS>ATOM
      1 C1        11.7427    2.0869    2.7661 C.ar      1 RES1    0.0000
      2 C2        11.7436    0.8019    3.3969 C.ar      1 RES1    0.0000
      3 H1        10.9344    0.3781    3.5742 H         1 RES1    0.0000
      4 C3        12.9149    0.1911    3.7418 C.ar      1 RES1    0.0000
      5 H2        12.8914   -0.6419    4.1548 H         1 RES1    0.0000
      6 C4        14.1798    0.8084    3.4807 C.ar      1 RES1    0.0000
      7 C5        15.3985    0.2140    3.8361 C.ar      1 RES1    0.0000
      8 H3        15.3927   -0.6114    4.2648 H         1 RES1    0.0000
      9 C6        16.6258    0.8324    3.5615 C.ar      1 RES1    0.0000
     10 C7        17.8729    0.2357    3.9304 C.ar      1 RES1    0.0000
     11 H4        17.8830   -0.5874    4.3636 H         1 RES1    0.0000
     12 C8        19.0550    0.8711    3.6475 C.ar      1 RES1    0.0000
     13 H5        19.8621    0.4778    3.8944 H         1 RES1    0.0000
     14 C9        19.0594    2.1220    2.9839 C.ar      1 RES1    0.0000
     15 H6        19.8675    2.5341    2.7863 H         1 RES1    0.0000
     16 C10       17.8908    2.7288    2.6307 C.ar      1 RES1    0.0000
     17 H7        17.9143    3.5559    2.2065 H         1 RES1    0.0000
     18 C11       16.6306    2.1133    2.9046 C.ar      1 RES1    0.0000
     19 C12       15.4095    2.7118    2.5529 C.ar      1 RES1    0.0000
     20 H8        15.4155    3.5395    2.1279 H         1 RES1    0.0000
     21 C13       14.1873    2.0957    2.8245 C.ar      1 RES1    0.0000
     22 C14       12.9357    2.6965    2.4878 C.ar      1 RES1    0.0000
     23 H9        12.9312    3.5260    2.0666 H         1 RES1    0.0000
     24 C15       10.4900    2.7159    2.4481 C.1       1 RES1    0.0000
     25 C16        9.4288    3.2264    2.2132 C.1       1 RES1    0.0000
     26 C17        8.1701    3.8437    1.8907 C.ar      1 RES1    0.0000
     27 C18        8.1266    5.1181    1.2705 C.ar      1 RES1    0.0000
     28 H10        8.9211    5.5701    1.0976 H         1 RES1    0.0000
     29 C19        6.9368    5.6914    0.9225 C.ar      1 RES1    0.0000
     30 H11        6.9340    6.5221    0.5043 H         1 RES1    0.0000
     31 C20        5.7044    5.0372    1.1904 C.ar      1 RES1    0.0000
     32 C21        4.4483    5.5988    0.8343 C.ar      1 RES1    0.0000
     33 H12        4.4168    6.4248    0.4078 H         1 RES1    0.0000
     34 C22        3.2793    4.9340    1.1133 C.ar      1 RES1    0.0000
     35 H13        2.4649    5.3092    0.8694 H         1 RES1    0.0000
     36 C23        3.3078    3.6966    1.7620 C.ar      1 RES1    0.0000
     37 H14        2.5103    3.2593    1.9513 H         1 RES1    0.0000
     38 C24        4.4971    3.1209    2.1227 C.ar      1 RES1    0.0000
     39 H15        4.4967    2.2997    2.5596 H         1 RES1    0.0000
     40 C25        5.7322    3.7675    1.8354 C.ar      1 RES1    0.0000
     41 C26        6.9799    3.1913    2.1833 C.ar      1 RES1    0.0000
     42 H16        7.0005    2.3671    2.6120 H         1 RES1    0.0000
@<TRIPOS>BOND
     1    1    2 ar
     2    2    3 1
     3    4    2 ar
     4    5    4 1
     5    6    4 ar
     6    7    6 ar
     7    8    7 1
     8    9    7 ar
     9   10    9 ar
    10   11   10 1
    11   12   10 ar
    12   13   12 1
    13   14   12 ar
    14   15   14 1
    15   16   14 ar
    16   17   16 1
    17   18    9 ar
    18   19   18 ar
    19   20   19 1
    20   21    6 ar
    21   22    1 ar
    22   23   22 1
    23   24    1 1
    24   25   24 3
    25   26   25 1
    26   27   26 ar
    27   28   27 1
    28   29   27 ar
    29   30   29 1
    30   31   29 ar
    31   32   31 ar
    32   33   32 1
    33   34   32 ar
    34   35   34 1
    35   36   34 ar
    36   37   36 1
    37   38   36 ar
    38   39   38 1
    39   40   31 ar
    40   41   26 ar
    41   42   41 1
    42   16   18 ar
    43   19   21 ar
    44   21   22 ar
    45   38   40 ar
    46   40   41 ar
@<TRIPOS>SUBSTRUCTURE
     1 RES1 1

@<TRIPOS>CRYSIN
  38.2600    5.8620    7.4890  90.0000  92.4560  90.0000   9 1

