# MOL2 file generated by ConQuest
# Please check atom types

@<TRIPOS>MOLECULE
TUFWUO
    42    46     1
SMALL
NO_CHARGES
****
Generated from CSD

@<TRIPOS>ATOM
      1 C1        -1.5232    8.3326    7.3926 C.ar      1 RES1    0.0000
      2 H1        -1.8449    7.7919    6.7074 H         1 RES1    0.0000
      3 C2        -2.0236    8.1987    8.6414 C.ar      1 RES1    0.0000
      4 H2        -2.6815    7.5628    8.8062 H         1 RES1    0.0000
      5 C3        -1.5580    9.0122    9.6962 C.ar      1 RES1    0.0000
      6 H3        -1.9153    8.9117   10.5477 H         1 RES1    0.0000
      7 C4        -0.5991    9.9310    9.4775 C.ar      1 RES1    0.0000
      8 H4        -0.3018   10.4570   10.1843 H         1 RES1    0.0000
      9 C5        -0.0337   10.1171    8.1887 C.ar      1 RES1    0.0000
     10 C6         0.9493   11.0529    7.9331 C.ar      1 RES1    0.0000
     11 H5         1.2428   11.5932    8.6306 H         1 RES1    0.0000
     12 C7         1.5158   11.2189    6.6766 C.ar      1 RES1    0.0000
     13 C8         2.5645   12.1596    6.4195 C.ar      1 RES1    0.0000
     14 H6         2.8845   12.6872    7.1154 H         1 RES1    0.0000
     15 C9         3.0959   12.2959    5.1891 C.ar      1 RES1    0.0000
     16 H7         3.7772   12.9117    5.0459 H         1 RES1    0.0000
     17 C10        2.6287   11.5113    4.1159 C.ar      1 RES1    0.0000
     18 H8         3.0045   11.6189    3.2721 H         1 RES1    0.0000
     19 C11        1.6245   10.5895    4.2976 C.ar      1 RES1    0.0000
     20 C12        1.0358   10.4060    5.5987 C.ar      1 RES1    0.0000
     21 C13        0.0380    9.4749    5.8482 C.ar      1 RES1    0.0000
     22 H9        -0.2771    8.9538    5.1445 H         1 RES1    0.0000
     23 C14       -0.5079    9.2928    7.1170 C.ar      1 RES1    0.0000
     24 C15        1.1571    9.8015    3.1997 C.1       1 RES1    0.0000
     25 C16        0.7460    9.1523    2.2728 C.1       1 RES1    0.0000
     26 C17        0.3048    8.3481    1.1780 C.ar      1 RES1    0.0000
     27 C18       -0.7408    7.4164    1.3643 C.ar      1 RES1    0.0000
     28 H10       -1.1741    7.3571    2.1850 H         1 RES1    0.0000
     29 C19       -1.1088    6.6113    0.3388 C.ar      1 RES1    0.0000
     30 H11       -1.7951    5.9988    0.4773 H         1 RES1    0.0000
     31 C20       -0.4975    6.6634   -0.9223 C.ar      1 RES1    0.0000
     32 C21       -0.8385    5.8024   -2.0033 C.ar      1 RES1    0.0000
     33 H12       -1.5172    5.1759   -1.8893 H         1 RES1    0.0000
     34 C22       -0.1986    5.8749   -3.1859 C.ar      1 RES1    0.0000
     35 H13       -0.4255    5.2881   -3.8711 H         1 RES1    0.0000
     36 C23        0.7997    6.8194   -3.3876 C.ar      1 RES1    0.0000
     37 H14        1.2297    6.8685   -4.2098 H         1 RES1    0.0000
     38 C24        1.1523    7.6750   -2.3929 C.ar      1 RES1    0.0000
     39 H15        1.8178    8.3062   -2.5407 H         1 RES1    0.0000
     40 C25        0.5134    7.6095   -1.1287 C.ar      1 RES1    0.0000
     41 C26        0.8806    8.4451   -0.0524 C.ar      1 RES1    0.0000
     42 H16        1.5409    9.0847   -0.1879 H         1 RES1    0.0000
@<TRIPOS>BOND
     1    1    2 1
     2    3    1 ar
     3    4    3 1
     4    5    3 ar
     5    6    5 1
     6    7    5 ar
     7    8    7 1
     8    9    7 ar
     9   10    9 ar
    10   11   10 1
    11   12   10 ar
    12   13   12 ar
    13   14   13 1
    14   15   13 ar
    15   16   15 1
    16   17   15 ar
    17   18   17 1
    18   19   17 ar
    19   20   12 ar
    20   21   20 ar
    21   22   21 1
    22   23    1 ar
    23   24   19 1
    24   25   24 3
    25   26   25 1
    26   27   26 ar
    27   28   27 1
    28   29   27 ar
    29   30   29 1
    30   31   29 ar
    31   32   31 ar
    32   33   32 1
    33   34   32 ar
    34   35   34 1
    35   36   34 ar
    36   37   36 1
    37   38   36 ar
    38   39   38 1
    39   40   31 ar
    40   41   26 ar
    41   42   41 1
    42    9   23 ar
    43   19   20 ar
    44   21   23 ar
    45   38   40 ar
    46   40   41 ar
@<TRIPOS>SUBSTRUCTURE
     1 RES1 1

@<TRIPOS>CRYSIN
   4.8880   23.3780   15.4370  90.0000  94.0700  90.0000   9 1

