# MOL2 file generated by ConQuest
# Please check atom types

@<TRIPOS>MOLECULE
TUPPOL
    46    49     1
SMALL
NO_CHARGES
****
Generated from CSD

@<TRIPOS>ATOM
      1 C1         0.2975    5.5769    7.1106 C.2       1 RES1    0.0000
      2 H1         0.9646    4.9893    6.7753 H         1 RES1    0.0000
      3 C2         0.5193    6.1019    8.3147 C.2       1 RES1    0.0000
      4 H2        -0.1469    6.6655    8.6905 H         1 RES1    0.0000
      5 C3         1.7161    5.8598    9.0727 C.2       1 RES1    0.0000
      6 H3         2.3593    5.2657    8.7035 H         1 RES1    0.0000
      7 C4         1.9899    6.4117   10.2642 C.2       1 RES1    0.0000
      8 H4         1.3539    7.0182   10.6261 H         1 RES1    0.0000
      9 C5         3.1774    6.1514   11.0331 C.2       1 RES1    0.0000
     10 H5         3.8681    5.6329   10.6371 H         1 RES1    0.0000
     11 C6         3.3562    6.6044   12.2802 C.2       1 RES1    0.0000
     12 H6         2.6818    7.1767   12.6262 H         1 RES1    0.0000
     13 C7        -0.8591    5.8060    6.2489 C.ar      1 RES1    0.0000
     14 C8        -0.7946    5.4351    4.9241 C.ar      1 RES1    0.0000
     15 H7        -0.0181    4.9893    4.6073 H         1 RES1    0.0000
     16 C9        -1.8492    5.6991    4.0233 C.ar      1 RES1    0.0000
     17 C10       -1.7725    5.3762    2.6476 C.ar      1 RES1    0.0000
     18 H8        -0.9997    4.9399    2.3101 H         1 RES1    0.0000
     19 C11       -2.7915    5.6845    1.8071 C.ar      1 RES1    0.0000
     20 H9        -2.7216    5.4671    0.8857 H         1 RES1    0.0000
     21 C12       -3.9537    6.3237    2.2870 C.ar      1 RES1    0.0000
     22 H10       -4.6556    6.5412    1.6846 H         1 RES1    0.0000
     23 C13       -4.0752    6.6328    3.6129 C.ar      1 RES1    0.0000
     24 H11       -4.8674    7.0495    3.9320 H         1 RES1    0.0000
     25 C14       -3.0212    6.3317    4.5128 C.ar      1 RES1    0.0000
     26 C15       -3.0934    6.6648    5.8930 C.ar      1 RES1    0.0000
     27 H12       -3.8839    7.0640    6.2384 H         1 RES1    0.0000
     28 C16       -2.0520    6.4204    6.7233 C.ar      1 RES1    0.0000
     29 H13       -2.1186    6.6633    7.6388 H         1 RES1    0.0000
     30 C17        4.4804    6.3092   13.1642 C.ar      1 RES1    0.0000
     31 C18        5.6876    5.7027   12.7107 C.ar      1 RES1    0.0000
     32 H14        5.7851    5.4991   11.7885 H         1 RES1    0.0000
     33 C19        6.6948    5.4089   13.5589 C.ar      1 RES1    0.0000
     34 H15        7.4904    5.0148   13.2203 H         1 RES1    0.0000
     35 C20        6.5871    5.6780   14.9474 C.ar      1 RES1    0.0000
     36 C21        7.6041    5.3551   15.8671 C.ar      1 RES1    0.0000
     37 H16        8.4042    4.9471   15.5581 H         1 RES1    0.0000
     38 C22        7.4525    5.6220   17.1967 C.ar      1 RES1    0.0000
     39 H17        8.1458    5.3980   17.8073 H         1 RES1    0.0000
     40 C23        6.2747    6.2263   17.6676 C.ar      1 RES1    0.0000
     41 H18        6.1797    6.4081   18.5952 H         1 RES1    0.0000
     42 C24        5.2702    6.5550   16.8120 C.ar      1 RES1    0.0000
     43 H19        4.4811    6.9658   17.1467 H         1 RES1    0.0000
     44 C25        5.3922    6.2866   15.4249 C.ar      1 RES1    0.0000
     45 C26        4.3627    6.6037   14.5077 C.ar      1 RES1    0.0000
     46 H20        3.5738    7.0291   14.8237 H         1 RES1    0.0000
@<TRIPOS>BOND
     1    1    2 1
     2    3    1 2
     3    4    3 1
     4    5    3 1
     5    6    5 1
     6    7    5 2
     7    8    7 1
     8    9    7 1
     9   10    9 1
    10   11    9 2
    11   12   11 1
    12   13    1 1
    13   14   13 ar
    14   15   14 1
    15   16   14 ar
    16   17   16 ar
    17   18   17 1
    18   19   17 ar
    19   20   19 1
    20   21   19 ar
    21   22   21 1
    22   23   21 ar
    23   24   23 1
    24   25   16 ar
    25   26   25 ar
    26   27   26 1
    27   28   13 ar
    28   29   28 1
    29   30   11 1
    30   31   30 ar
    31   32   31 1
    32   33   31 ar
    33   34   33 1
    34   35   33 ar
    35   36   35 ar
    36   37   36 1
    37   38   36 ar
    38   39   38 1
    39   40   38 ar
    40   41   40 1
    41   42   40 ar
    42   43   42 1
    43   44   35 ar
    44   45   30 ar
    45   46   45 1
    46   23   25 ar
    47   26   28 ar
    48   42   44 ar
    49   44   45 ar
@<TRIPOS>SUBSTRUCTURE
     1 RES1 1

@<TRIPOS>CRYSIN
   6.5560    7.2720   18.4520  90.0000  90.5190  90.0000   4 1

