# MOL2 file generated by ConQuest
# Please check atom types

@<TRIPOS>MOLECULE
UCEVUU
    40    44     1
SMALL
NO_CHARGES
****
Generated from CSD

@<TRIPOS>ATOM
      1 C1        12.3690    6.1537   -0.6158 C.ar      1 RES1    0.0000
      2 C2        13.0244    5.2223    0.1976 C.ar      1 RES1    0.0000
      3 H1        13.8717    4.8826   -0.0663 H         1 RES1    0.0000
      4 C3        12.4501    4.7901    1.3837 C.ar      1 RES1    0.0000
      5 H2        12.9035    4.1548    1.9257 H         1 RES1    0.0000
      6 C4        11.2138    5.2845    1.7823 C.ar      1 RES1    0.0000
      7 H3        10.8199    4.9899    2.5950 H         1 RES1    0.0000
      8 C5        10.5583    6.2090    0.9872 C.ar      1 RES1    0.0000
      9 H4         9.7158    6.5516    1.2579 H         1 RES1    0.0000
     10 C6        11.1277    6.6353   -0.2003 C.ar      1 RES1    0.0000
     11 H5        10.6651    7.2659   -0.7409 H         1 RES1    0.0000
     12 C7        12.9556    6.5817   -1.9048 C.2       1 RES1    0.0000
     13 H6        12.3958    6.5023   -2.6687 H         1 RES1    0.0000
     14 C8        14.1836    7.0675   -2.1186 C.2       1 RES1    0.0000
     15 H7        14.4322    7.1820   -3.0287 H         1 RES1    0.0000
     16 C9        15.2007    7.4474   -1.1205 C.ar      1 RES1    0.0000
     17 C10       16.5624    7.3361   -1.4544 C.ar      1 RES1    0.0000
     18 H8        16.8196    6.9748   -2.2945 H         1 RES1    0.0000
     19 C11       17.5232    7.7531   -0.5569 C.ar      1 RES1    0.0000
     20 C12       17.1537    8.3431    0.6871 C.ar      1 RES1    0.0000
     21 C13       15.8101    8.4622    1.0177 C.ar      1 RES1    0.0000
     22 H9        15.5495    8.8535    1.8432 H         1 RES1    0.0000
     23 C14       14.8497    8.0006    0.1232 C.ar      1 RES1    0.0000
     24 H10       13.9320    8.0616    0.3593 H         1 RES1    0.0000
     25 C15       18.9996    7.7110   -0.6205 C.ar      1 RES1    0.0000
     26 C16       19.9225    7.2232   -1.5069 C.ar      1 RES1    0.0000
     27 H11       19.6468    6.8095   -2.3162 H         1 RES1    0.0000
     28 C17       21.3035    7.3493   -1.1909 C.ar      1 RES1    0.0000
     29 H12       21.9455    7.0105   -1.8026 H         1 RES1    0.0000
     30 C18       21.7415    7.9449   -0.0298 C.ar      1 RES1    0.0000
     31 H13       22.6740    8.0172    0.1414 H         1 RES1    0.0000
     32 C19       20.8097    8.4511    0.9142 C.ar      1 RES1    0.0000
     33 C20       21.0734    9.0721    2.1687 C.ar      1 RES1    0.0000
     34 H14       21.9701    9.2039    2.4515 H         1 RES1    0.0000
     35 C21       20.0384    9.4796    2.9685 C.ar      1 RES1    0.0000
     36 H15       20.2432    9.9009    3.7947 H         1 RES1    0.0000
     37 C22       18.6722    9.2991    2.6166 C.ar      1 RES1    0.0000
     38 H16       17.9765    9.5777    3.2012 H         1 RES1    0.0000
     39 C23       18.3844    8.7101    1.4054 C.ar      1 RES1    0.0000
     40 C24       19.4594    8.3066    0.5819 C.ar      1 RES1    0.0000
@<TRIPOS>BOND
     1    1    2 ar
     2    2    3 1
     3    4    2 ar
     4    5    4 1
     5    6    4 ar
     6    7    6 1
     7    8    6 ar
     8    9    8 1
     9   10    1 ar
    10   11   10 1
    11   12    1 1
    12   13   12 1
    13   14   12 2
    14   15   14 1
    15   16   14 1
    16   17   16 ar
    17   18   17 1
    18   19   17 ar
    19   20   19 ar
    20   21   20 ar
    21   22   21 1
    22   23   16 ar
    23   24   23 1
    24   25   19 ar
    25   26   25 ar
    26   27   26 1
    27   28   26 ar
    28   29   28 1
    29   30   28 ar
    30   31   30 1
    31   32   30 ar
    32   33   32 ar
    33   34   33 1
    34   35   33 ar
    35   36   35 1
    36   37   35 ar
    37   38   37 1
    38   39   20 ar
    39   40   25 ar
    40    8   10 ar
    41   21   23 ar
    42   32   40 ar
    43   37   39 ar
    44   39   40 ar
@<TRIPOS>SUBSTRUCTURE
     1 RES1 1

@<TRIPOS>CRYSIN
  18.8730   12.3360    6.7665  90.0000  90.0000  90.0000  33 1

