# MOL2 file generated by ConQuest
# Please check atom types

@<TRIPOS>MOLECULE
UCEWAB
    40    44     1
SMALL
NO_CHARGES
****
Generated from CSD

@<TRIPOS>ATOM
      1 C1         0.3413    4.8100    4.4478 C.ar      1 RES1    0.0000
      2 C2         0.7087    4.5414    3.1272 C.ar      1 RES1    0.0000
      3 H1         1.4992    4.0446    2.9528 H         1 RES1    0.0000
      4 C3        -0.0617    4.9871    2.0717 C.ar      1 RES1    0.0000
      5 H2         0.2040    4.7949    1.1802 H         1 RES1    0.0000
      6 C4        -1.2195    5.7136    2.3010 C.ar      1 RES1    0.0000
      7 H3        -1.7487    6.0129    1.5713 H         1 RES1    0.0000
      8 C5        -1.6013    6.0014    3.6034 C.ar      1 RES1    0.0000
      9 H4        -2.3913    6.5005    3.7698 H         1 RES1    0.0000
     10 C6        -0.8222    5.5555    4.6617 C.ar      1 RES1    0.0000
     11 H5        -1.0853    5.7608    5.5511 H         1 RES1    0.0000
     12 C7         1.1645    4.4490    5.6146 C.2       1 RES1    0.0000
     13 H6         0.9582    4.9270    6.4095 H         1 RES1    0.0000
     14 C8         2.1553    3.5589    5.7382 C.2       1 RES1    0.0000
     15 H7         2.6159    3.5753    6.5685 H         1 RES1    0.0000
     16 C9         2.6360    2.5516    4.7643 C.ar      1 RES1    0.0000
     17 C10        1.7788    1.5505    4.3038 C.ar      1 RES1    0.0000
     18 H8         0.8694    1.5537    4.5781 H         1 RES1    0.0000
     19 C11        2.2282    0.5535    3.4561 C.ar      1 RES1    0.0000
     20 H9         1.6208   -0.1154    3.1609 H         1 RES1    0.0000
     21 C12        3.5566    0.5093    3.0257 C.ar      1 RES1    0.0000
     22 C13        4.4512    1.5141    3.4841 C.ar      1 RES1    0.0000
     23 C14        3.9867    2.5367    4.3626 C.ar      1 RES1    0.0000
     24 C15        4.9262    3.5426    4.7872 C.ar      1 RES1    0.0000
     25 H10        4.6335    4.2390    5.3633 H         1 RES1    0.0000
     26 C16        6.2179    3.5177    4.3831 C.ar      1 RES1    0.0000
     27 H11        6.8112    4.1934    4.6898 H         1 RES1    0.0000
     28 C17        6.7134    2.5015    3.5055 C.ar      1 RES1    0.0000
     29 C18        8.0454    2.4592    3.0795 C.ar      1 RES1    0.0000
     30 H12        8.6604    3.1120    3.3902 H         1 RES1    0.0000
     31 C19        8.4740    1.4720    2.2078 C.ar      1 RES1    0.0000
     32 H13        9.3826    1.4535    1.9307 H         1 RES1    0.0000
     33 C20        7.5970    0.5112    1.7355 C.ar      1 RES1    0.0000
     34 H14        7.9064   -0.1473    1.1253 H         1 RES1    0.0000
     35 C21        6.2604    0.4971    2.1456 C.ar      1 RES1    0.0000
     36 C22        5.3254   -0.4968    1.6984 C.ar      1 RES1    0.0000
     37 H15        5.6146   -1.1695    1.0935 H         1 RES1    0.0000
     38 C23        4.0481   -0.4933    2.1195 C.ar      1 RES1    0.0000
     39 H16        3.4568   -1.1695    1.8112 H         1 RES1    0.0000
     40 C24        5.8118    1.5024    3.0466 C.ar      1 RES1    0.0000
@<TRIPOS>BOND
     1    1    2 ar
     2    2    3 1
     3    4    2 ar
     4    5    4 1
     5    6    4 ar
     6    7    6 1
     7    8    6 ar
     8    9    8 1
     9   10    1 ar
    10   11   10 1
    11   12    1 1
    12   13   12 1
    13   14   12 2
    14   15   14 1
    15   16   14 1
    16   17   16 ar
    17   18   17 1
    18   19   17 ar
    19   20   19 1
    20   21   19 ar
    21   22   21 ar
    22   23   16 ar
    23   24   23 ar
    24   25   24 1
    25   26   24 ar
    26   27   26 1
    27   28   26 ar
    28   29   28 ar
    29   30   29 1
    30   31   29 ar
    31   32   31 1
    32   33   31 ar
    33   34   33 1
    34   35   33 ar
    35   36   35 ar
    36   37   36 1
    37   38   21 ar
    38   39   38 1
    39   40   22 ar
    40    8   10 ar
    41   22   23 ar
    42   28   40 ar
    43   35   40 ar
    44   36   38 ar
@<TRIPOS>SUBSTRUCTURE
     1 RES1 1

@<TRIPOS>CRYSIN
  10.8220   15.1880   10.3160  90.0000 110.9500  90.0000  14 1

