# MOL2 file generated by ConQuest
# Please check atom types

@<TRIPOS>MOLECULE
UCIJUO
    83    91     1
SMALL
NO_CHARGES
****
Generated from CSD

@<TRIPOS>ATOM
      1 C1         4.7268    2.3911    9.4799 C.ar      1 RES1    0.0000
      2 C2         3.4303    1.8369    9.1125 C.ar      1 RES1    0.0000
      3 C3         3.0391    1.9709    7.7641 C.ar      1 RES1    0.0000
      4 C4         1.6563    1.8868    7.3967 C.ar      1 RES1    0.0000
      5 C5         1.2867    2.1884    5.9763 C.ar      1 RES1    0.0000
      6 C6         1.0983    1.1757    5.0446 C.ar      1 RES1    0.0000
      7 C7         0.8581    1.4743    3.7067 C.ar      1 RES1    0.0000
      8 C8         0.7986    2.7839    3.2865 C.ar      1 RES1    0.0000
      9 C9         0.9675    3.8023    4.2035 C.ar      1 RES1    0.0000
     10 C10        1.2094    3.5060    5.5397 C.ar      1 RES1    0.0000
     11 C11        0.7050    1.6470    8.3654 C.ar      1 RES1    0.0000
     12 C12        1.1225    1.2758    9.6842 C.ar      1 RES1    0.0000
     13 C13        2.4897    1.2539   10.0327 C.ar      1 RES1    0.0000
     14 C14        2.8785    0.5440   11.2453 C.ar      1 RES1    0.0000
     15 C15        1.8759    0.1364   12.1675 C.ar      1 RES1    0.0000
     16 C16        0.4826    0.3675   11.8718 C.ar      1 RES1    0.0000
     17 C17        0.1203    0.9189   10.6636 C.ar      1 RES1    0.0000
     18 C18       -1.2782    1.2213   10.3582 C.2       1 RES1    0.0000
     19 C19       -1.7211    1.6208    9.1607 C.2       1 RES1    0.0000
     20 C20       -0.7634    1.7199    8.0036 C.3       1 RES1    0.0000
     21 C21       -3.1964    1.9147    8.8815 C.3       1 RES1    0.0000
     22 C22       -3.7607    0.7603    8.0355 C.3       1 RES1    0.0000
     23 C23       -4.0100    2.0112   10.1746 C.3       1 RES1    0.0000
     24 C24       -3.3532    3.2419    8.1287 C.3       1 RES1    0.0000
     25 C25       -0.5602   -0.1012   12.8407 C.ar      1 RES1    0.0000
     26 C26       -1.3894   -1.1746   12.5113 C.ar      1 RES1    0.0000
     27 C27       -2.3608   -1.6212   13.3997 C.ar      1 RES1    0.0000
     28 C28       -2.5085   -1.0023   14.6268 C.ar      1 RES1    0.0000
     29 C29       -1.6958    0.0582   14.9635 C.ar      1 RES1    0.0000
     30 C30       -0.7187    0.5038   14.0791 C.ar      1 RES1    0.0000
     31 C31        2.2709   -0.5476   13.3436 C.ar      1 RES1    0.0000
     32 C32        3.5824   -0.8685   13.5810 C.ar      1 RES1    0.0000
     33 C33        4.5602   -0.5702   12.6192 C.ar      1 RES1    0.0000
     34 C34        4.2077    0.1116   11.4813 C.ar      1 RES1    0.0000
     35 C35        4.0503    2.1838    6.7722 C.ar      1 RES1    0.0000
     36 C36        5.3637    2.3890    7.0884 C.ar      1 RES1    0.0000
     37 C37        5.7125    2.6175    8.4789 C.ar      1 RES1    0.0000
     38 C38        6.9587    3.1727    8.8631 C.ar      1 RES1    0.0000
     39 C39        7.2021    3.5490   10.1609 C.ar      1 RES1    0.0000
     40 C40        6.1960    3.4157   11.1301 C.ar      1 RES1    0.0000
     41 C41        4.9875    2.8535   10.7914 C.ar      1 RES1    0.0000
     42 C42        6.3658    2.4570    5.9932 C.ar      1 RES1    0.0000
     43 C43        6.0904    3.1968    4.8408 C.ar      1 RES1    0.0000
     44 C44        6.9976    3.2441    3.7909 C.ar      1 RES1    0.0000
     45 C45        8.1920    2.5663    3.8814 C.ar      1 RES1    0.0000
     46 C46        8.4642    1.7990    4.9883 C.ar      1 RES1    0.0000
     47 C47        7.5586    1.7399    6.0483 C.ar      1 RES1    0.0000
     48 H1         1.1704    0.2551    5.3425 H         1 RES1    0.0000
     49 H2         0.7562    0.7543    3.0738 H         1 RES1    0.0000
     50 H3         0.6376    2.9728    2.3494 H         1 RES1    0.0000
     51 H4         0.9091    4.7365    3.9181 H         1 RES1    0.0000
     52 H5         1.3129    4.2222    6.1770 H         1 RES1    0.0000
     53 H6        -1.9104    1.1466   11.0985 H         1 RES1    0.0000
     54 H7        -0.9282    2.5624    7.5181 H         1 RES1    0.0000
     55 H8        -0.9607    0.9812    7.3517 H         1 RES1    0.0000
     56 H9        -4.7015    0.9671    7.8118 H         1 RES1    0.0000
     57 H10       -3.7221   -0.1230    8.5876 H         1 RES1    0.0000
     58 H11       -3.2498    0.6565    7.1951 H         1 RES1    0.0000
     59 H12       -4.9454    2.2205    9.9556 H         1 RES1    0.0000
     60 H13       -3.6452    2.7358   10.7657 H         1 RES1    0.0000
     61 H14       -3.9838    1.1546   10.6678 H         1 RES1    0.0000
     62 H15       -4.3231    3.4135    8.0198 H         1 RES1    0.0000
     63 H16       -2.9516    3.9741    8.6488 H         1 RES1    0.0000
     64 H17       -2.9201    3.2128    7.2660 H         1 RES1    0.0000
     65 H18       -1.2718   -1.6215   11.6271 H         1 RES1    0.0000
     66 H19       -2.9564   -2.3718   13.1665 H         1 RES1    0.0000
     67 H20       -3.1931   -1.3109   15.2589 H         1 RES1    0.0000
     68 H21       -1.8021    0.5052   15.8095 H         1 RES1    0.0000
     69 H22       -0.1461    1.2524   14.3314 H         1 RES1    0.0000
     70 H23        1.5876   -0.7966   13.9961 H         1 RES1    0.0000
     71 H24        3.8403   -1.3230   14.4097 H         1 RES1    0.0000
     72 H25        5.4812   -0.8561   12.7578 H         1 RES1    0.0000
     73 H26        4.8984    0.2894   10.8122 H         1 RES1    0.0000
     74 H27        3.7966    2.1449    5.8295 H         1 RES1    0.0000
     75 H28        7.6226    3.3096    8.1740 H         1 RES1    0.0000
     76 H29        8.0744    3.9328   10.4133 H         1 RES1    0.0000
     77 H30        6.3436    3.7140   12.0309 H         1 RES1    0.0000
     78 H31        4.2943    2.7782   11.4754 H         1 RES1    0.0000
     79 H32        5.2325    3.7049    4.7673 H         1 RES1    0.0000
     80 H33        6.7850    3.7644    2.9637 H         1 RES1    0.0000
     81 H34        8.8508    2.6158    3.1497 H         1 RES1    0.0000
     82 H35        9.2774    1.2898    5.0561 H         1 RES1    0.0000
     83 H36        7.7372    1.2020    6.8378 H         1 RES1    0.0000
@<TRIPOS>BOND
     1    1    2 ar
     2    2    3 ar
     3    3    4 ar
     4    4    5 1
     5    5    6 ar
     6    6    7 ar
     7    7    8 ar
     8    8    9 ar
     9    9   10 ar
    10   10    5 ar
    11   11    4 ar
    12   12   11 ar
    13   13    2 ar
    14   14   13 ar
    15   15   14 ar
    16   16   15 ar
    17   17   12 ar
    18   18   17 1
    19   19   18 2
    20   20   11 1
    21   21   19 1
    22   22   21 1
    23   23   21 1
    24   24   21 1
    25   25   16 1
    26   26   25 ar
    27   27   26 ar
    28   28   27 ar
    29   29   28 ar
    30   30   25 ar
    31   31   15 ar
    32   32   31 ar
    33   33   32 ar
    34   34   14 ar
    35   35    3 ar
    36   36   35 ar
    37   37    1 ar
    38   38   37 ar
    39   39   38 ar
    40   40   39 ar
    41   41    1 ar
    42   42   36 1
    43   43   42 ar
    44   44   43 ar
    45   45   44 ar
    46   46   45 ar
    47   47   42 ar
    48   48    6 1
    49   49    7 1
    50   50    8 1
    51   51    9 1
    52   52   10 1
    53   53   18 1
    54   54   20 1
    55   55   20 1
    56   56   22 1
    57   57   22 1
    58   58   22 1
    59   59   23 1
    60   60   23 1
    61   61   23 1
    62   62   24 1
    63   63   24 1
    64   64   24 1
    65   65   26 1
    66   66   27 1
    67   67   28 1
    68   68   29 1
    69   69   30 1
    70   70   31 1
    71   71   32 1
    72   72   33 1
    73   73   34 1
    74   74   35 1
    75   75   38 1
    76   76   39 1
    77   77   40 1
    78   78   41 1
    79   79   43 1
    80   80   44 1
    81   81   45 1
    82   82   46 1
    83   83   47 1
    84   12   13 ar
    85   16   17 ar
    86   19   20 1
    87   29   30 ar
    88   33   34 ar
    89   36   37 ar
    90   40   41 ar
    91   46   47 ar
@<TRIPOS>SUBSTRUCTURE
     1 RES1 1

@<TRIPOS>CRYSIN
  26.5471   10.0841   27.9848  90.0000 119.0130  90.0000  15 1

