# MOL2 file generated by ConQuest
# Please check atom types

@<TRIPOS>MOLECULE
UCUYOJ
    68    72     1
SMALL
NO_CHARGES
****
Generated from CSD

@<TRIPOS>ATOM
      1 C1         5.0311    6.7142   17.4665 C.ar      1 RES1    0.0000
      2 C2         5.5841    5.4984   17.1548 C.ar      1 RES1    0.0000
      3 C3         5.0758    4.2692   17.7603 C.ar      1 RES1    0.0000
      4 C4         5.7140    2.9848   17.6304 C.ar      1 RES1    0.0000
      5 C5         5.0332    1.8193   17.9778 C.ar      1 RES1    0.0000
      6 C6         3.7641    1.8966   18.5967 C.ar      1 RES1    0.0000
      7 C7         3.2212    3.1344   18.8432 C.ar      1 RES1    0.0000
      8 H1         2.3924    3.1823   19.3072 H         1 RES1    0.0000
      9 C8         3.8370    4.3354   18.4414 C.ar      1 RES1    0.0000
     10 C9         3.2458    5.6272   18.7603 C.ar      1 RES1    0.0000
     11 C10        2.0077    5.7180   19.4420 C.ar      1 RES1    0.0000
     12 H2         1.5550    4.9182   19.6830 H         1 RES1    0.0000
     13 C11        1.4395    6.9276   19.7675 C.ar      1 RES1    0.0000
     14 C12        2.1470    8.1286   19.5067 C.ar      1 RES1    0.0000
     15 C13        3.4053    8.0710   18.8921 C.ar      1 RES1    0.0000
     16 C14        3.9078    6.8246   18.3981 C.ar      1 RES1    0.0000
     17 C15        5.4245    7.9103   16.6660 C.ar      1 RES1    0.0000
     18 C16        4.5084    8.4562   15.7613 C.ar      1 RES1    0.0000
     19 H3         3.6500    8.0612   15.6679 H         1 RES1    0.0000
     20 C17        4.8405    9.5750   14.9962 C.ar      1 RES1    0.0000
     21 H4         4.2045    9.9443   14.3940 H         1 RES1    0.0000
     22 C18        6.0793   10.1406   15.1114 C.ar      1 RES1    0.0000
     23 H5         6.3024   10.8926   14.5736 H         1 RES1    0.0000
     24 C19        7.0192    9.6314   16.0037 C.ar      1 RES1    0.0000
     25 C20        6.6713    8.5102   16.7586 C.ar      1 RES1    0.0000
     26 H6         7.3116    8.1446   17.3563 H         1 RES1    0.0000
     27 C21        8.3750   10.2645   16.1415 C.3       1 RES1    0.0000
     28 H7         8.3006   11.0815   16.6765 H         1 RES1    0.0000
     29 H8         8.7237   10.4865   15.2534 H         1 RES1    0.0000
     30 H9         8.9850    9.6388   16.5853 H         1 RES1    0.0000
     31 C22        6.5319    5.3929   15.9937 C.ar      1 RES1    0.0000
     32 C23        7.8863    5.7377   16.0824 C.ar      1 RES1    0.0000
     33 H10        8.2212    6.0897   16.8976 H         1 RES1    0.0000
     34 C24        8.7504    5.5782   15.0130 C.ar      1 RES1    0.0000
     35 H11        9.6672    5.8162   15.0849 H         1 RES1    0.0000
     36 C25        8.2501    5.0789   13.8801 C.ar      1 RES1    0.0000
     37 H12        8.8471    4.9574   13.1505 H         1 RES1    0.0000
     38 C26        6.9182    4.7231   13.6908 C.ar      1 RES1    0.0000
     39 C27        6.0490    4.9096   14.8036 C.ar      1 RES1    0.0000
     40 H13        5.1271    4.6961   14.7201 H         1 RES1    0.0000
     41 C28        6.3796    4.2483   12.4431 C.3       1 RES1    0.0000
     42 H14        5.9927    5.0004   11.9485 H         1 RES1    0.0000
     43 H15        5.6844    3.5822   12.6228 H         1 RES1    0.0000
     44 H16        7.0958    3.8410   11.9126 H         1 RES1    0.0000
     45 C29        7.1716    2.8609   17.2007 C.3       1 RES1    0.0000
     46 H17        7.5830    2.0966   17.6575 H         1 RES1    0.0000
     47 H18        7.6531    3.6803   17.4392 H         1 RES1    0.0000
     48 H19        7.2163    2.7247   16.2316 H         1 RES1    0.0000
     49 C30        5.5970    0.4441   17.6995 C.3       1 RES1    0.0000
     50 H20        6.4092    0.5287   17.1573 H         1 RES1    0.0000
     51 H21        4.9336   -0.0883   17.2154 H         1 RES1    0.0000
     52 H22        5.8143    0.0037   18.5473 H         1 RES1    0.0000
     53 C31        3.0191    0.6576   19.0165 C.3       1 RES1    0.0000
     54 H23        2.1600    0.9115   19.4122 H         1 RES1    0.0000
     55 H24        3.5511    0.1656   19.6747 H         1 RES1    0.0000
     56 H25        2.8624    0.0896   18.2323 H         1 RES1    0.0000
     57 C32        0.0931    6.9509   20.4387 C.3       1 RES1    0.0000
     58 H26       -0.2000    6.0321   20.6170 H         1 RES1    0.0000
     59 H27       -0.5566    7.3938   19.8543 H         1 RES1    0.0000
     60 H28        0.1581    7.4416   21.2857 H         1 RES1    0.0000
     61 C33        1.5312    9.4401   19.9234 C.3       1 RES1    0.0000
     62 H29        1.7701    9.6314   20.8546 H         1 RES1    0.0000
     63 H30        0.5566    9.3849   19.8405 H         1 RES1    0.0000
     64 H31        1.8676   10.1565   19.3459 H         1 RES1    0.0000
     65 C34        4.2203    9.3370   18.8697 C.3       1 RES1    0.0000
     66 H32        4.0030    9.8510   18.0637 H         1 RES1    0.0000
     67 H33        5.1740    9.1113   18.8650 H         1 RES1    0.0000
     68 H34        4.0139    9.8719   19.6636 H         1 RES1    0.0000
@<TRIPOS>BOND
     1    1    2 ar
     2    2    3 ar
     3    3    4 ar
     4    4    5 ar
     5    5    6 ar
     6    6    7 ar
     7    7    8 1
     8    9    3 ar
     9   10    9 ar
    10   11   10 ar
    11   12   11 1
    12   13   11 ar
    13   14   13 ar
    14   15   14 ar
    15   16    1 ar
    16   17    1 1
    17   18   17 ar
    18   19   18 1
    19   20   18 ar
    20   21   20 1
    21   22   20 ar
    22   23   22 1
    23   24   22 ar
    24   25   17 ar
    25   26   25 1
    26   27   24 1
    27   28   27 1
    28   29   27 1
    29   30   27 1
    30   31    2 1
    31   32   31 ar
    32   33   32 1
    33   34   32 ar
    34   35   34 1
    35   36   34 ar
    36   37   36 1
    37   38   36 ar
    38   39   31 ar
    39   40   39 1
    40   41   38 1
    41   42   41 1
    42   43   41 1
    43   44   41 1
    44   45    4 1
    45   46   45 1
    46   47   45 1
    47   48   45 1
    48   49    5 1
    49   50   49 1
    50   51   49 1
    51   52   49 1
    52   53    6 1
    53   54   53 1
    54   55   53 1
    55   56   53 1
    56   57   13 1
    57   58   57 1
    58   59   57 1
    59   60   57 1
    60   61   14 1
    61   62   61 1
    62   63   61 1
    63   64   61 1
    64   65   15 1
    65   66   65 1
    66   67   65 1
    67   68   65 1
    68    7    9 ar
    69   10   16 ar
    70   15   16 ar
    71   24   25 ar
    72   38   39 ar
@<TRIPOS>SUBSTRUCTURE
     1 RES1 1

@<TRIPOS>CRYSIN
   7.2192   12.2678   27.6330  90.0000  90.0000  90.0000  19 1

