# MOL2 file generated by ConQuest
# Please check atom types

@<TRIPOS>MOLECULE
UWIQAU
   102   111     1
SMALL
NO_CHARGES
****
Generated from CSD

@<TRIPOS>ATOM
      1 C1         8.0267    3.9974   13.9407 C.ar      1 RES1    0.0000
      2 C2         7.5597    4.2243   12.6466 C.ar      1 RES1    0.0000
      3 H1         7.9690    4.9004   12.1200 H         1 RES1    0.0000
      4 C3         6.5046    3.4849   12.1034 C.ar      1 RES1    0.0000
      5 C4         5.8759    2.4967   12.8975 C.ar      1 RES1    0.0000
      6 C5         4.7709    1.7319   12.3662 C.ar      1 RES1    0.0000
      7 C6         4.3367    1.9524   11.0228 C.ar      1 RES1    0.0000
      8 C7         3.2701    1.1842   10.4939 C.ar      1 RES1    0.0000
      9 C8         2.6868    0.2082   11.3089 C.ar      1 RES1    0.0000
     10 H2         1.9861   -0.3278   10.9568 H         1 RES1    0.0000
     11 C9         3.0971    0.0015   12.6056 C.ar      1 RES1    0.0000
     12 H3         2.6692   -0.6639   13.1303 H         1 RES1    0.0000
     13 C10        4.1409    0.7579   13.1653 C.ar      1 RES1    0.0000
     14 C11        4.5938    0.5169   14.5365 C.ar      1 RES1    0.0000
     15 C12        3.9862   -0.4537   15.3626 C.ar      1 RES1    0.0000
     16 H4         3.2324   -0.9333   15.0385 H         1 RES1    0.0000
     17 C13        4.4606   -0.7207   16.6275 C.ar      1 RES1    0.0000
     18 H5         4.0279   -1.3723   17.1654 H         1 RES1    0.0000
     19 C14        5.5798   -0.0367   17.1259 C.ar      1 RES1    0.0000
     20 C15        6.1579    0.9353   16.3401 C.ar      1 RES1    0.0000
     21 H6         6.9012    1.4164   16.6835 H         1 RES1    0.0000
     22 C16        5.6901    1.2459   15.0451 C.ar      1 RES1    0.0000
     23 C17        6.3372    2.2606   14.2249 C.ar      1 RES1    0.0000
     24 C18        7.4074    3.0268   14.7023 C.ar      1 RES1    0.0000
     25 H7         7.7206    2.8730   15.5861 H         1 RES1    0.0000
     26 C19        9.2120    4.7754   14.4612 C.3       1 RES1    0.0000
     27 H8         9.2772    4.6549   15.4418 H         1 RES1    0.0000
     28 H9         9.0744    5.7392   14.2808 H         1 RES1    0.0000
     29 C20       10.5199    4.3223   13.8098 C.3       1 RES1    0.0000
     30 H10       10.6415    3.3551   13.9815 H         1 RES1    0.0000
     31 H11       10.4468    4.4457   12.8310 H         1 RES1    0.0000
     32 C21       11.7519    5.0665   14.3056 C.3       1 RES1    0.0000
     33 H12       11.8579    4.9067   15.2762 H         1 RES1    0.0000
     34 H13       11.6197    6.0385   14.1704 H         1 RES1    0.0000
     35 C22       13.0231    4.6309   13.5865 C.3       1 RES1    0.0000
     36 H14       13.1832    3.6790   13.7544 H         1 RES1    0.0000
     37 H15       13.7819    5.1542   13.9178 H         1 RES1    0.0000
     38 H16       12.9202    4.7794   12.6230 H         1 RES1    0.0000
     39 C23        6.1409   -0.3724   18.4915 C.3       1 RES1    0.0000
     40 H17        7.0918   -0.1009   18.5238 H         1 RES1    0.0000
     41 H18        6.1022   -1.3527   18.6236 H         1 RES1    0.0000
     42 C24        5.3927    0.3106   19.6305 C.3       1 RES1    0.0000
     43 H19        4.4408    0.0436   19.5936 H         1 RES1    0.0000
     44 H20        5.4349    1.2910   19.5002 H         1 RES1    0.0000
     45 C25        5.9474   -0.0274   21.0157 C.3       1 RES1    0.0000
     46 H21        5.3525    0.3655   21.7013 H         1 RES1    0.0000
     47 H22        5.9332   -1.0107   21.1325 H         1 RES1    0.0000
     48 C26        7.3603    0.4718   21.2518 C.3       1 RES1    0.0000
     49 H23        7.9810   -0.0162   20.6697 H         1 RES1    0.0000
     50 H24        7.6063    0.3248   22.1895 H         1 RES1    0.0000
     51 H25        7.4068    1.4292   21.0476 H         1 RES1    0.0000
     52 C1B        1.2915    0.9020    7.2851 C.ar      1 RES1    0.0000
     53 C2B        1.7586    0.6751    8.5793 C.ar      1 RES1    0.0000
     54 H1B        1.3492   -0.0010    9.1059 H         1 RES1    0.0000
     55 C3B        2.8137    1.4145    9.1224 C.ar      1 RES1    0.0000
     56 C4B        3.4423    2.4027    8.3284 C.ar      1 RES1    0.0000
     57 C5B        4.5473    3.1675    8.8597 C.ar      1 RES1    0.0000
     58 C6B        4.9815    2.9470   10.2031 C.ar      1 RES1    0.0000
     59 C7B        6.0481    3.7152   10.7320 C.ar      1 RES1    0.0000
     60 C8B        6.6314    4.6912    9.9169 C.ar      1 RES1    0.0000
     61 H2B        7.3321    5.2272   10.2691 H         1 RES1    0.0000
     62 C9B        6.2211    4.8979    8.6202 C.ar      1 RES1    0.0000
     63 H3B        6.6490    5.5633    8.0955 H         1 RES1    0.0000
     64 C10B       5.1773    4.1415    8.0605 C.ar      1 RES1    0.0000
     65 C11B       4.7244    4.3825    6.6893 C.ar      1 RES1    0.0000
     66 C12B       5.3321    5.3531    5.8632 C.ar      1 RES1    0.0000
     67 H4B        6.0859    5.8327    6.1873 H         1 RES1    0.0000
     68 C13B       4.8576    5.6201    4.5984 C.ar      1 RES1    0.0000
     69 H5B        5.2903    6.2717    4.0605 H         1 RES1    0.0000
     70 C14B       3.7384    4.9361    4.1000 C.ar      1 RES1    0.0000
     71 C15B       3.1603    3.9641    4.8858 C.ar      1 RES1    0.0000
     72 H6B        2.4170    3.4830    4.5423 H         1 RES1    0.0000
     73 C16B       3.6281    3.6535    6.1808 C.ar      1 RES1    0.0000
     74 C17B       2.9810    2.6388    7.0009 C.ar      1 RES1    0.0000
     75 C18B       1.9108    1.8726    6.5236 C.ar      1 RES1    0.0000
     76 H7B        1.5976    2.0264    5.6397 H         1 RES1    0.0000
     77 C19B       0.1062    0.1240    6.7647 C.3       1 RES1    0.0000
     78 H8B        0.0410    0.2445    5.7840 H         1 RES1    0.0000
     79 H9B        0.2438   -0.8398    6.9451 H         1 RES1    0.0000
     80 C20B      -1.2017    0.5771    7.4161 C.3       1 RES1    0.0000
     81 H10B      -1.3233    1.5443    7.2444 H         1 RES1    0.0000
     82 H11B      -1.1286    0.4537    8.3948 H         1 RES1    0.0000
     83 C21B      -2.4337   -0.1671    6.9203 C.3       1 RES1    0.0000
     84 H12B      -2.5397   -0.0073    5.9496 H         1 RES1    0.0000
     85 H13B      -2.3015   -1.1391    7.0555 H         1 RES1    0.0000
     86 C22B      -3.7049    0.2685    7.6394 C.3       1 RES1    0.0000
     87 H14B      -3.8650    1.2204    7.4715 H         1 RES1    0.0000
     88 H15B      -4.4637   -0.2548    7.3081 H         1 RES1    0.0000
     89 H16B      -3.6020    0.1200    8.6028 H         1 RES1    0.0000
     90 C23B       3.1773    5.2718    2.7343 C.3       1 RES1    0.0000
     91 H17B       2.2264    5.0003    2.7021 H         1 RES1    0.0000
     92 H18B       3.2160    6.2521    2.6023 H         1 RES1    0.0000
     93 C24B       3.9255    4.5888    1.5953 C.3       1 RES1    0.0000
     94 H19B       4.8774    4.8558    1.6323 H         1 RES1    0.0000
     95 H20B       3.8833    3.6084    1.7257 H         1 RES1    0.0000
     96 C25B       3.3708    4.9268    0.2101 C.3       1 RES1    0.0000
     97 H21B       3.9657    4.5339   -0.4755 H         1 RES1    0.0000
     98 H22B       3.3850    5.9101    0.0934 H         1 RES1    0.0000
     99 C26B       1.9579    4.4276   -0.0259 C.3       1 RES1    0.0000
    100 H23B       1.3372    4.9156    0.5561 H         1 RES1    0.0000
    101 H24B       1.7119    4.5746   -0.9637 H         1 RES1    0.0000
    102 H25B       1.9114    3.4702    0.1783 H         1 RES1    0.0000
@<TRIPOS>BOND
     1    1    2 ar
     2    2    3 1
     3    4    2 ar
     4    5    4 ar
     5    6    5 ar
     6    7    6 ar
     7    8    7 ar
     8    9    8 ar
     9   10    9 1
    10   11    9 ar
    11   12   11 1
    12   13    6 ar
    13   14   13 ar
    14   15   14 ar
    15   16   15 1
    16   17   15 ar
    17   18   17 1
    18   19   17 ar
    19   20   19 ar
    20   21   20 1
    21   22   14 ar
    22   23    5 ar
    23   24    1 ar
    24   25   24 1
    25   26    1 1
    26   27   26 1
    27   28   26 1
    28   29   26 1
    29   30   29 1
    30   31   29 1
    31   32   29 1
    32   33   32 1
    33   34   32 1
    34   35   32 1
    35   36   35 1
    36   37   35 1
    37   38   35 1
    38   39   19 1
    39   40   39 1
    40   41   39 1
    41   42   39 1
    42   43   42 1
    43   44   42 1
    44   45   42 1
    45   46   45 1
    46   47   45 1
    47   48   45 1
    48   49   48 1
    49   50   48 1
    50   51   48 1
    51   52   53 ar
    52   53   54 1
    53   55    8 ar
    54   56   55 ar
    55   57   56 ar
    56   58    7 ar
    57   59    4 ar
    58   60   59 ar
    59   61   60 1
    60   62   60 ar
    61   63   62 1
    62   64   57 ar
    63   65   64 ar
    64   66   65 ar
    65   67   66 1
    66   68   66 ar
    67   69   68 1
    68   70   68 ar
    69   71   70 ar
    70   72   71 1
    71   73   65 ar
    72   74   56 ar
    73   75   52 ar
    74   76   75 1
    75   77   52 1
    76   78   77 1
    77   79   77 1
    78   80   77 1
    79   81   80 1
    80   82   80 1
    81   83   80 1
    82   84   83 1
    83   85   83 1
    84   86   83 1
    85   87   86 1
    86   88   86 1
    87   89   86 1
    88   90   70 1
    89   91   90 1
    90   92   90 1
    91   93   90 1
    92   94   93 1
    93   95   93 1
    94   96   93 1
    95   97   96 1
    96   98   96 1
    97   99   96 1
    98  100   99 1
    99  101   99 1
   100  102   99 1
   101   11   13 ar
   102   20   22 ar
   103   22   23 ar
   104   23   24 ar
   105   53   55 ar
   106   57   58 ar
   107   58   59 ar
   108   62   64 ar
   109   71   73 ar
   110   73   74 ar
   111   74   75 ar
@<TRIPOS>SUBSTRUCTURE
     1 RES1 1

@<TRIPOS>CRYSIN
  17.0526    4.8994   22.5911  90.0000 110.0210  90.0000  14 1

