# MOL2 file generated by ConQuest
# Please check atom types

@<TRIPOS>MOLECULE
VASWIY
    48    51     1
SMALL
NO_CHARGES
****
Generated from CSD

@<TRIPOS>ATOM
      1 C1         7.4076    8.3396    5.4028 C.ar      1 RES1    0.0000
      2 C2         7.4076    6.9058    5.4028 C.ar      1 RES1    0.0000
      3 C3         8.6204    6.1793    5.4207 C.ar      1 RES1    0.0000
      4 H1         8.5963    5.2299    5.4583 H         1 RES1    0.0000
      5 C4         9.8191    6.8137    5.3848 C.ar      1 RES1    0.0000
      6 H2        10.6270    6.3137    5.4151 H         1 RES1    0.0000
      7 C5         9.8579    8.2237    5.3029 C.ar      1 RES1    0.0000
      8 C6         8.6924    8.9970    5.3119 C.ar      1 RES1    0.0000
      9 C7        11.1609    8.8194    5.1399 C.1       1 RES1    0.0000
     10 C8        12.2744    9.2357    4.9814 C.1       1 RES1    0.0000
     11 C9        13.5980    9.8184    4.7855 C.3       1 RES1    0.0000
     12 H3        13.8965    9.6488    3.8677 H         1 RES1    0.0000
     13 H4        14.2311    9.4130    5.4144 H         1 RES1    0.0000
     14 H5        13.5559   10.7851    4.9425 H         1 RES1    0.0000
     15 C10        8.8956   10.4705    5.1589 C.ar      1 RES1    0.0000
     16 C11        8.4089   11.1643    4.0500 C.ar      1 RES1    0.0000
     17 H6         7.8829   10.7070    3.4038 H         1 RES1    0.0000
     18 C12        8.6823   12.5129    3.8800 C.ar      1 RES1    0.0000
     19 H7         8.3368   12.9754    3.1257 H         1 RES1    0.0000
     20 C13        9.4587   13.1894    4.8107 C.ar      1 RES1    0.0000
     21 H8         9.6517   14.1117    4.6889 H         1 RES1    0.0000
     22 C14        9.9526   12.5173    5.9172 C.ar      1 RES1    0.0000
     23 H9        10.4814   12.9782    6.5576 H         1 RES1    0.0000
     24 C15        9.6740   11.1706    6.0850 C.ar      1 RES1    0.0000
     25 H10       10.0172   10.7141    6.8443 H         1 RES1    0.0000
     26 C3A        6.1947    6.1793    5.3850 C.ar      1 RES1    0.0000
     27 H1A        6.2188    5.2299    5.3474 H         1 RES1    0.0000
     28 C4A        4.9960    6.8137    5.4209 C.ar      1 RES1    0.0000
     29 H2A        4.1882    6.3137    5.3906 H         1 RES1    0.0000
     30 C5A        4.9573    8.2237    5.5028 C.ar      1 RES1    0.0000
     31 C6A        6.1227    8.9970    5.4938 C.ar      1 RES1    0.0000
     32 C7A        3.6542    8.8194    5.6658 C.1       1 RES1    0.0000
     33 C8A        2.5408    9.2357    5.8243 C.1       1 RES1    0.0000
     34 C9A        1.2172    9.8184    6.0202 C.3       1 RES1    0.0000
     35 H3A        0.9186    9.6488    6.9380 H         1 RES1    0.0000
     36 H4A        0.5840    9.4130    5.3913 H         1 RES1    0.0000
     37 H5A        1.2593   10.7851    5.8632 H         1 RES1    0.0000
     38 C10A       5.9195   10.4705    5.6468 C.ar      1 RES1    0.0000
     39 C11A       6.4063   11.1643    6.7557 C.ar      1 RES1    0.0000
     40 H6A        6.9322   10.7070    7.4019 H         1 RES1    0.0000
     41 C12A       6.1329   12.5129    6.9257 C.ar      1 RES1    0.0000
     42 H7A        6.4783   12.9754    7.6800 H         1 RES1    0.0000
     43 C13A       5.3565   13.1894    5.9950 C.ar      1 RES1    0.0000
     44 H8A        5.1634   14.1117    6.1167 H         1 RES1    0.0000
     45 C14A       4.8626   12.5173    4.8885 C.ar      1 RES1    0.0000
     46 H9A        4.3338   12.9782    4.2481 H         1 RES1    0.0000
     47 C15A       5.1412   11.1706    4.7206 C.ar      1 RES1    0.0000
     48 H10A       4.7980   10.7141    3.9614 H         1 RES1    0.0000
@<TRIPOS>BOND
     1    1    2 ar
     2    2    3 ar
     3    3    4 1
     4    5    3 ar
     5    6    5 1
     6    7    5 ar
     7    8    1 ar
     8    9    7 1
     9   10    9 3
    10   11   10 1
    11   12   11 1
    12   13   11 1
    13   14   11 1
    14   15    8 1
    15   16   15 ar
    16   17   16 1
    17   18   16 ar
    18   19   18 1
    19   20   18 ar
    20   21   20 1
    21   22   20 ar
    22   23   22 1
    23   24   15 ar
    24   25   24 1
    25   26    2 ar
    26   27   26 1
    27   28   26 ar
    28   29   28 1
    29   30   28 ar
    30   31    1 ar
    31   32   30 1
    32   33   32 3
    33   34   33 1
    34   35   34 1
    35   36   34 1
    36   37   34 1
    37   38   31 1
    38   39   38 ar
    39   40   39 1
    40   41   39 ar
    41   42   41 1
    42   43   41 ar
    43   44   43 1
    44   45   43 ar
    45   46   45 1
    46   47   38 ar
    47   48   47 1
    48    7    8 ar
    49   22   24 ar
    50   30   31 ar
    51   45   47 ar
@<TRIPOS>SUBSTRUCTURE
     1 RES1 1

@<TRIPOS>CRYSIN
  18.4625   14.2040    7.6031  90.0000 108.6516  90.0000  15 1

