# MOL2 file generated by ConQuest
# Please check atom types

@<TRIPOS>MOLECULE
VASWUK
    48    53     1
SMALL
NO_CHARGES
****
Generated from CSD

@<TRIPOS>ATOM
      1 C1         4.9018    8.6819   11.2130 C.ar      1 RES1    0.0000
      2 C2         4.8555    7.6350   12.0707 C.ar      1 RES1    0.0000
      3 H1         5.6427    7.4092   12.5516 H         1 RES1    0.0000
      4 C3         3.6776    6.8546   12.2855 C.ar      1 RES1    0.0000
      5 C4         3.6298    5.9123   13.3506 C.ar      1 RES1    0.0000
      6 H2         4.4176    5.7176   13.8453 H         1 RES1    0.0000
      7 C5         2.4648    5.2901   13.6641 C.ar      1 RES1    0.0000
      8 H3         2.4046    4.7761   14.4617 H         1 RES1    0.0000
      9 C6         1.3315    5.4009   12.8073 C.ar      1 RES1    0.0000
     10 C7         0.1121    4.7599   13.1502 C.ar      1 RES1    0.0000
     11 H4         0.0487    4.2750   13.9642 H         1 RES1    0.0000
     12 C8        -0.9614    4.8343   12.3276 C.ar      1 RES1    0.0000
     13 H5        -1.8100    4.5317   12.6286 H         1 RES1    0.0000
     14 C9        -0.8234    5.3645   11.0114 C.ar      1 RES1    0.0000
     15 C10       -1.9143    5.2817   10.0915 C.ar      1 RES1    0.0000
     16 H6        -2.7552    4.9768   10.4117 H         1 RES1    0.0000
     17 C11       -1.8024    5.6191    8.7846 C.ar      1 RES1    0.0000
     18 C12       -0.5060    5.9997    8.2770 C.ar      1 RES1    0.0000
     19 C13       -0.3056    6.2501    6.8991 C.ar      1 RES1    0.0000
     20 H7        -1.0550    6.2654    6.3157 H         1 RES1    0.0000
     21 C14        0.9450    6.4714    6.3885 C.ar      1 RES1    0.0000
     22 H8         1.0548    6.6653    5.4654 H         1 RES1    0.0000
     23 C15        2.0642    6.4106    7.2330 C.ar      1 RES1    0.0000
     24 H9         2.9389    6.4941    6.8713 H         1 RES1    0.0000
     25 C16        1.8924    6.2304    8.5875 C.ar      1 RES1    0.0000
     26 H10        2.6570    6.2078    9.1504 H         1 RES1    0.0000
     27 C17        0.6103    6.0786    9.1633 C.ar      1 RES1    0.0000
     28 C18        0.4104    5.9040   10.5946 C.ar      1 RES1    0.0000
     29 C19        1.4314    6.1421   11.5968 C.ar      1 RES1    0.0000
     30 C20        2.5364    7.0693   11.4817 C.ar      1 RES1    0.0000
     31 C21        2.4979    8.3031   10.7136 C.ar      1 RES1    0.0000
     32 C22        1.2825    8.8344   10.2262 C.ar      1 RES1    0.0000
     33 H11        0.4814    8.3367   10.3427 H         1 RES1    0.0000
     34 C23        1.2266   10.0506    9.5883 C.ar      1 RES1    0.0000
     35 H12        0.3930   10.3863    9.2802 H         1 RES1    0.0000
     36 C24        2.4001   10.7963    9.3917 C.ar      1 RES1    0.0000
     37 H13        2.3665   11.6235    8.9260 H         1 RES1    0.0000
     38 C25        3.5950   10.3257    9.8757 C.ar      1 RES1    0.0000
     39 H14        4.3846   10.8360    9.7412 H         1 RES1    0.0000
     40 C26        3.6741    9.0959   10.5709 C.ar      1 RES1    0.0000
     41 C27        6.1789    9.4574   11.0205 C.3       1 RES1    0.0000
     42 H15        6.4089    9.4759   10.0683 H         1 RES1    0.0000
     43 H16        6.9013    9.0261   11.5228 H         1 RES1    0.0000
     44 H17        6.0570   10.3738   11.3444 H         1 RES1    0.0000
     45 C28       -2.9809    5.4989    7.8563 C.3       1 RES1    0.0000
     46 H18       -3.1642    6.3696    7.4458 H         1 RES1    0.0000
     47 H19       -3.7669    5.2040    8.3623 H         1 RES1    0.0000
     48 H20       -2.7791    4.8445    7.1551 H         1 RES1    0.0000
@<TRIPOS>BOND
     1    1    2 ar
     2    2    3 1
     3    4    2 ar
     4    5    4 ar
     5    6    5 1
     6    7    5 ar
     7    8    7 1
     8    9    7 ar
     9   10    9 ar
    10   11   10 1
    11   12   10 ar
    12   13   12 1
    13   14   12 ar
    14   15   14 ar
    15   16   15 1
    16   17   15 ar
    17   18   17 ar
    18   19   18 ar
    19   20   19 1
    20   21   19 ar
    21   22   21 1
    22   23   21 ar
    23   24   23 1
    24   25   23 ar
    25   26   25 1
    26   27   18 ar
    27   28   14 ar
    28   29    9 ar
    29   30    4 ar
    30   31   30 ar
    31   32   31 ar
    32   33   32 1
    33   34   32 ar
    34   35   34 1
    35   36   34 ar
    36   37   36 1
    37   38   36 ar
    38   39   38 1
    39   40    1 ar
    40   41    1 1
    41   42   41 1
    42   43   41 1
    43   44   41 1
    44   45   17 1
    45   46   45 1
    46   47   45 1
    47   48   45 1
    48   25   27 ar
    49   27   28 ar
    50   28   29 ar
    51   29   30 ar
    52   31   40 ar
    53   38   40 ar
@<TRIPOS>SUBSTRUCTURE
     1 RES1 1

@<TRIPOS>CRYSIN
   8.5356   15.5623   13.6640  90.0000  98.3800  90.0000  14 1

