# MOL2 file generated by ConQuest
# Please check atom types

@<TRIPOS>MOLECULE
VEBJES
    76    84     1
SMALL
NO_CHARGES
****
Generated from CSD

@<TRIPOS>ATOM
      1 C1         6.8597    0.9177    0.9012 C.ar      1 RES1    0.0000
      2 C2         5.7622    1.3354    0.1254 C.ar      1 RES1    0.0000
      3 C3         8.1038    1.6456    0.7707 C.ar      1 RES1    0.0000
      4 C4         9.2179    1.2732    1.5872 C.ar      1 RES1    0.0000
      5 C5         9.0977    0.2189    2.4800 C.ar      1 RES1    0.0000
      6 C6         7.8670   -0.5421    2.5668 C.ar      1 RES1    0.0000
      7 C7         6.7709   -0.1761    1.7787 C.ar      1 RES1    0.0000
      8 C8         5.4846   -0.9355    1.8763 C.ar      1 RES1    0.0000
      9 C9         5.1260   -1.8266    0.9131 C.ar      1 RES1    0.0000
     10 C10        3.9093   -2.4882    0.9761 C.ar      1 RES1    0.0000
     11 C11        3.0574   -2.2652    1.9822 C.ar      1 RES1    0.0000
     12 C12        3.4001   -1.3863    2.9583 C.ar      1 RES1    0.0000
     13 C13        4.6252   -0.7125    2.9139 C.ar      1 RES1    0.0000
     14 C14        7.8028   -1.6303    3.4807 C.ar      1 RES1    0.0000
     15 C15        8.8434   -1.9292    4.3036 C.ar      1 RES1    0.0000
     16 C16       10.0235   -1.1528    4.2564 C.ar      1 RES1    0.0000
     17 C17       10.1506   -0.1333    3.3962 C.ar      1 RES1    0.0000
     18 C18       10.4897    2.0495    1.4985 C.ar      1 RES1    0.0000
     19 C19       11.6388    1.4808    1.0076 C.ar      1 RES1    0.0000
     20 C20       12.8321    2.2240    0.9517 C.ar      1 RES1    0.0000
     21 C21       12.8430    3.4972    1.3911 C.ar      1 RES1    0.0000
     22 C22       11.7076    4.0853    1.8720 C.ar      1 RES1    0.0000
     23 C23       10.5310    3.3623    1.9321 C.ar      1 RES1    0.0000
     24 H1         4.8836    0.8386    0.2333 H         1 RES1    0.0000
     25 H2         5.7481   -1.9938    0.1102 H         1 RES1    0.0000
     26 H3         3.6619   -3.1555    0.2304 H         1 RES1    0.0000
     27 H4         2.1768   -2.7596    2.0323 H         1 RES1    0.0000
     28 H5         2.7551   -1.2126    3.7368 H         1 RES1    0.0000
     29 H6         4.8795   -0.0557    3.6624 H         1 RES1    0.0000
     30 H7         6.9599   -2.2014    3.5150 H         1 RES1    0.0000
     31 H8         8.7603   -2.7031    4.9620 H         1 RES1    0.0000
     32 H9        10.7865   -1.3734    4.8832 H         1 RES1    0.0000
     33 H10       11.0146    0.4055    3.3919 H         1 RES1    0.0000
     34 H11       11.6203    0.5130    0.6541 H         1 RES1    0.0000
     35 H12       13.6840    1.8048    0.5839 H         1 RES1    0.0000
     36 H13       13.7107    4.0264    1.3711 H         1 RES1    0.0000
     37 H14       11.7107    5.0758    2.1768 H         1 RES1    0.0000
     38 H15        9.6788    3.7953    2.2999 H         1 RES1    0.0000
     39 C1E        7.0713    3.1216   -0.9012 C.ar      1 RES1    0.0000
     40 C2E        8.1688    2.7039   -0.1254 C.ar      1 RES1    0.0000
     41 C3E        5.8272    2.3937   -0.7707 C.ar      1 RES1    0.0000
     42 C4E        4.7131    2.7661   -1.5872 C.ar      1 RES1    0.0000
     43 C5E        4.8333    3.8204   -2.4800 C.ar      1 RES1    0.0000
     44 C6E        6.0641    4.5814   -2.5668 C.ar      1 RES1    0.0000
     45 C7E        7.1601    4.2154   -1.7787 C.ar      1 RES1    0.0000
     46 C8E        8.4464    4.9748   -1.8763 C.ar      1 RES1    0.0000
     47 C9E        8.8050    5.8659   -0.9131 C.ar      1 RES1    0.0000
     48 C10E      10.0218    6.5275   -0.9761 C.ar      1 RES1    0.0000
     49 C11E      10.8737    6.3045   -1.9822 C.ar      1 RES1    0.0000
     50 C12E      10.5310    5.4256   -2.9583 C.ar      1 RES1    0.0000
     51 C13E       9.3058    4.7518   -2.9139 C.ar      1 RES1    0.0000
     52 C14E       6.1283    5.6696   -3.4807 C.ar      1 RES1    0.0000
     53 C15E       5.0877    5.9685   -4.3036 C.ar      1 RES1    0.0000
     54 C16E       3.9076    5.1921   -4.2564 C.ar      1 RES1    0.0000
     55 C17E       3.7804    4.1726   -3.3962 C.ar      1 RES1    0.0000
     56 C18E       3.4414    1.9898   -1.4985 C.ar      1 RES1    0.0000
     57 C19E       2.2923    2.5585   -1.0076 C.ar      1 RES1    0.0000
     58 C20E       1.0989    1.8153   -0.9517 C.ar      1 RES1    0.0000
     59 C21E       1.0881    0.5421   -1.3911 C.ar      1 RES1    0.0000
     60 C22E       2.2235   -0.0460   -1.8720 C.ar      1 RES1    0.0000
     61 C23E       3.4000    0.6770   -1.9321 C.ar      1 RES1    0.0000
     62 H1E        9.0474    3.2007   -0.2333 H         1 RES1    0.0000
     63 H2E        8.1829    6.0331   -0.1102 H         1 RES1    0.0000
     64 H3E       10.2691    7.1948   -0.2304 H         1 RES1    0.0000
     65 H4E       11.7543    6.7989   -2.0323 H         1 RES1    0.0000
     66 H5E       11.1759    5.2519   -3.7368 H         1 RES1    0.0000
     67 H6E        9.0516    4.0950   -3.6624 H         1 RES1    0.0000
     68 H7E        6.9712    6.2407   -3.5150 H         1 RES1    0.0000
     69 H8E        5.1708    6.7424   -4.9620 H         1 RES1    0.0000
     70 H9E        3.1445    5.4127   -4.8832 H         1 RES1    0.0000
     71 H10E       2.9165    3.6338   -3.3919 H         1 RES1    0.0000
     72 H11E       2.3107    3.5263   -0.6541 H         1 RES1    0.0000
     73 H12E       0.2470    2.2345   -0.5839 H         1 RES1    0.0000
     74 H13E       0.2204    0.0129   -1.3711 H         1 RES1    0.0000
     75 H14E       2.2203   -1.0365   -2.1768 H         1 RES1    0.0000
     76 H15E       4.2522    0.2440   -2.2999 H         1 RES1    0.0000
@<TRIPOS>BOND
     1    1    2 ar
     2    2   24 1
     3    3    1 ar
     4    4    3 ar
     5    5    4 ar
     6    6    5 ar
     7    7    1 ar
     8    8    7 1
     9    9    8 ar
    10   10    9 ar
    11   11   10 ar
    12   12   11 ar
    13   13    8 ar
    14   14    6 ar
    15   15   14 ar
    16   16   15 ar
    17   17    5 ar
    18   18    4 1
    19   19   18 ar
    20   20   19 ar
    21   21   20 ar
    22   22   21 ar
    23   23   18 ar
    24   25    9 1
    25   26   10 1
    26   27   11 1
    27   28   12 1
    28   29   13 1
    29   30   14 1
    30   31   15 1
    31   32   16 1
    32   33   17 1
    33   34   19 1
    34   35   20 1
    35   36   21 1
    36   37   22 1
    37   38   23 1
    38   39   40 ar
    39   40    3 ar
    40   41    2 ar
    41   42   41 ar
    42   43   42 ar
    43   44   43 ar
    44   45   39 ar
    45   46   45 1
    46   47   46 ar
    47   48   47 ar
    48   49   48 ar
    49   50   49 ar
    50   51   46 ar
    51   52   44 ar
    52   53   52 ar
    53   54   53 ar
    54   55   43 ar
    55   56   42 1
    56   57   56 ar
    57   58   57 ar
    58   59   58 ar
    59   60   59 ar
    60   61   56 ar
    61   62   40 1
    62   63   47 1
    63   64   48 1
    64   65   49 1
    65   66   50 1
    66   67   51 1
    67   68   52 1
    68   69   53 1
    69   70   54 1
    70   71   55 1
    71   72   57 1
    72   73   58 1
    73   74   59 1
    74   75   60 1
    75   76   61 1
    76    6    7 ar
    77   12   13 ar
    78   16   17 ar
    79   22   23 ar
    80   39   41 ar
    81   44   45 ar
    82   50   51 ar
    83   54   55 ar
    84   60   61 ar
@<TRIPOS>SUBSTRUCTURE
     1 RES1 1

@<TRIPOS>CRYSIN
  27.8621    8.0786   16.0279  90.0000 116.7550  90.0000  15 1

