# MOL2 file generated by ConQuest
# Please check atom types

@<TRIPOS>MOLECULE
VEBJAO
   136   150     1
SMALL
NO_CHARGES
****
Generated from CSD

@<TRIPOS>ATOM
      1 C1        25.0689   -1.6672   -1.7276 C.ar      1 RES1    0.0000
      2 C2        25.5650   -2.5441   -2.7759 C.ar      1 RES1    0.0000
      3 C3        24.6611   -2.9266   -3.8721 C.ar      1 RES1    0.0000
      4 C4        24.3712   -4.2436   -4.1576 C.ar      1 RES1    0.0000
      5 C5        23.5198   -4.5576   -5.2059 C.ar      1 RES1    0.0000
      6 C6        22.9860   -3.5709   -5.9769 C.ar      1 RES1    0.0000
      7 C7        23.2469   -2.2559   -5.6831 C.ar      1 RES1    0.0000
      8 C8        24.0993   -1.9528   -4.6411 C.ar      1 RES1    0.0000
      9 C9        26.8693   -2.9325   -2.7738 C.ar      1 RES1    0.0000
     10 C10       27.8014   -2.4032   -1.8193 C.ar      1 RES1    0.0000
     11 C11       27.3235   -1.4643   -0.8482 C.ar      1 RES1    0.0000
     12 C12       25.9113   -1.1257   -0.8190 C.ar      1 RES1    0.0000
     13 C13       25.4389   -0.1880    0.2230 C.ar      1 RES1    0.0000
     14 C14       24.5887   -0.6107    1.2400 C.ar      1 RES1    0.0000
     15 C15       24.1402    0.2908    2.1840 C.ar      1 RES1    0.0000
     16 C16       24.5197    1.6168    2.1257 C.ar      1 RES1    0.0000
     17 C17       25.3611    2.0349    1.1420 C.ar      1 RES1    0.0000
     18 C18       25.8097    1.1612    0.1980 C.ar      1 RES1    0.0000
     19 C19       28.2263   -0.9228    0.0438 C.ar      1 RES1    0.0000
     20 C20       29.5947   -1.2407    0.0333 C.ar      1 RES1    0.0000
     21 C21       30.0734   -2.1971   -0.9295 C.ar      1 RES1    0.0000
     22 C22       30.4948   -0.6688    0.9566 C.ar      1 RES1    0.0000
     23 C23       30.0108    0.3192    1.9277 C.ar      1 RES1    0.0000
     24 C24       29.9300    0.0239    3.2594 C.ar      1 RES1    0.0000
     25 C25       29.4883    0.9428    4.1659 C.ar      1 RES1    0.0000
     26 C26       29.0980    2.1977    3.7637 C.ar      1 RES1    0.0000
     27 C27       29.1615    2.5253    2.4487 C.ar      1 RES1    0.0000
     28 C28       29.6268    1.5961    1.5276 C.ar      1 RES1    0.0000
     29 C29       29.1413   -2.7405   -1.8214 C.ar      1 RES1    0.0000
     30 C30       27.3847   -3.8746   -3.8158 C.ar      1 RES1    0.0000
     31 C31       27.7460   -5.1618   -3.4866 C.ar      1 RES1    0.0000
     32 C32       28.1237   -6.0607   -4.4535 C.ar      1 RES1    0.0000
     33 C33       28.1271   -5.6807   -5.7644 C.ar      1 RES1    0.0000
     34 C34       27.8242   -4.3948   -6.0978 C.ar      1 RES1    0.0000
     35 C35       27.4491   -3.4837   -5.1371 C.ar      1 RES1    0.0000
     36 C36       23.6056   -1.4455   -1.6610 C.ar      1 RES1    0.0000
     37 C37       22.7557   -2.5027   -1.4359 C.ar      1 RES1    0.0000
     38 C38       21.3940   -2.3095   -1.3421 C.ar      1 RES1    0.0000
     39 C39       20.8682   -1.0759   -1.4713 C.ar      1 RES1    0.0000
     40 C40       21.6769   -0.0058   -1.6943 C.ar      1 RES1    0.0000
     41 C41       23.0490   -0.1861   -1.7610 C.ar      1 RES1    0.0000
     42 H1        24.7946   -4.9751   -3.6199 H         1 RES1    0.0000
     43 H2        23.3021   -5.5095   -5.4038 H         1 RES1    0.0000
     44 H3        22.3980   -3.7990   -6.7668 H         1 RES1    0.0000
     45 H4        22.8301   -1.5037   -6.2124 H         1 RES1    0.0000
     46 H5        24.3286   -1.0107   -4.4410 H         1 RES1    0.0000
     47 H6        24.3040   -1.5657    1.2796 H         1 RES1    0.0000
     48 H7        23.5655   -0.0168    2.9385 H         1 RES1    0.0000
     49 H8        24.1809    2.2753    2.8009 H         1 RES1    0.0000
     50 H9        25.6552    2.9880    1.1087 H         1 RES1    0.0000
     51 H10       26.4121    1.4695   -0.5356 H         1 RES1    0.0000
     52 H11       27.8912   -0.2817    0.7377 H         1 RES1    0.0000
     53 H12       30.2080   -0.8821    3.5657 H         1 RES1    0.0000
     54 H13       29.4298    0.6888    5.1329 H         1 RES1    0.0000
     55 H14       28.7677    2.8665    4.4348 H         1 RES1    0.0000
     56 H15       28.8705    3.4307    2.1486 H         1 RES1    0.0000
     57 H16       29.7015    1.8462    0.5606 H         1 RES1    0.0000
     58 H17       29.4663   -3.3848   -2.5196 H         1 RES1    0.0000
     59 H18       27.7060   -5.4546   -2.5362 H         1 RES1    0.0000
     60 H19       28.4093   -6.9841   -4.2076 H         1 RES1    0.0000
     61 H20       28.3203   -6.3431   -6.4813 H         1 RES1    0.0000
     62 H21       27.8705   -4.1176   -7.0544 H         1 RES1    0.0000
     63 H22       27.2444   -2.5350   -5.3747 H         1 RES1    0.0000
     64 H23       23.1465   -3.4229   -1.3254 H         1 RES1    0.0000
     65 H24       20.8029   -3.0972   -1.1983 H         1 RES1    0.0000
     66 H25       19.8644   -0.9622   -1.3796 H         1 RES1    0.0000
     67 H26       21.2711    0.8982   -1.8360 H         1 RES1    0.0000
     68 H27       23.6630    0.6061   -1.8735 H         1 RES1    0.0000
     69 C1E       36.8571   -1.5638    1.7276 C.ar      1 RES1    0.0000
     70 C2E       36.3610   -0.6869    2.7759 C.ar      1 RES1    0.0000
     71 C3E       37.2649   -0.3044    3.8721 C.ar      1 RES1    0.0000
     72 C4E       37.5548    1.0126    4.1576 C.ar      1 RES1    0.0000
     73 C5E       38.4062    1.3266    5.2059 C.ar      1 RES1    0.0000
     74 C6E       38.9400    0.3399    5.9769 C.ar      1 RES1    0.0000
     75 C7E       38.6791   -0.9751    5.6831 C.ar      1 RES1    0.0000
     76 C8E       37.8267   -1.2782    4.6411 C.ar      1 RES1    0.0000
     77 C9E       35.0567   -0.2985    2.7738 C.ar      1 RES1    0.0000
     78 C10E      34.1246   -0.8278    1.8193 C.ar      1 RES1    0.0000
     79 C11E      34.6025   -1.7667    0.8482 C.ar      1 RES1    0.0000
     80 C12E      36.0147   -2.1053    0.8190 C.ar      1 RES1    0.0000
     81 C13E      36.4871   -3.0430   -0.2230 C.ar      1 RES1    0.0000
     82 C14E      37.3373   -2.6203   -1.2400 C.ar      1 RES1    0.0000
     83 C15E      37.7858   -3.5218   -2.1840 C.ar      1 RES1    0.0000
     84 C16E      37.4063   -4.8478   -2.1257 C.ar      1 RES1    0.0000
     85 C17E      36.5649   -5.2659   -1.1420 C.ar      1 RES1    0.0000
     86 C18E      36.1163   -4.3922   -0.1980 C.ar      1 RES1    0.0000
     87 C19E      33.6997   -2.3082   -0.0438 C.ar      1 RES1    0.0000
     88 C20E      32.3313   -1.9903   -0.0333 C.ar      1 RES1    0.0000
     89 C21E      31.8526   -1.0339    0.9295 C.ar      1 RES1    0.0000
     90 C22E      31.4312   -2.5622   -0.9566 C.ar      1 RES1    0.0000
     91 C23E      31.9152   -3.5502   -1.9277 C.ar      1 RES1    0.0000
     92 C24E      31.9960   -3.2549   -3.2594 C.ar      1 RES1    0.0000
     93 C25E      32.4377   -4.1738   -4.1659 C.ar      1 RES1    0.0000
     94 C26E      32.8280   -5.4287   -3.7637 C.ar      1 RES1    0.0000
     95 C27E      32.7645   -5.7563   -2.4487 C.ar      1 RES1    0.0000
     96 C28E      32.2992   -4.8271   -1.5276 C.ar      1 RES1    0.0000
     97 C29E      32.7847   -0.4905    1.8214 C.ar      1 RES1    0.0000
     98 C30E      34.5413    0.6436    3.8158 C.ar      1 RES1    0.0000
     99 C31E      34.1800    1.9308    3.4866 C.ar      1 RES1    0.0000
    100 C32E      33.8023    2.8297    4.4535 C.ar      1 RES1    0.0000
    101 C33E      33.7989    2.4497    5.7644 C.ar      1 RES1    0.0000
    102 C34E      34.1018    1.1638    6.0978 C.ar      1 RES1    0.0000
    103 C35E      34.4769    0.2527    5.1371 C.ar      1 RES1    0.0000
    104 C36E      38.3204   -1.7855    1.6610 C.ar      1 RES1    0.0000
    105 C37E      39.1703   -0.7283    1.4359 C.ar      1 RES1    0.0000
    106 C38E      40.5320   -0.9215    1.3421 C.ar      1 RES1    0.0000
    107 C39E      41.0578   -2.1551    1.4713 C.ar      1 RES1    0.0000
    108 C40E      40.2491   -3.2252    1.6943 C.ar      1 RES1    0.0000
    109 C41E      38.8770   -3.0449    1.7610 C.ar      1 RES1    0.0000
    110 H1E       37.1314    1.7441    3.6199 H         1 RES1    0.0000
    111 H2E       38.6239    2.2785    5.4038 H         1 RES1    0.0000
    112 H3E       39.5280    0.5680    6.7668 H         1 RES1    0.0000
    113 H4E       39.0959   -1.7273    6.2124 H         1 RES1    0.0000
    114 H5E       37.5974   -2.2203    4.4410 H         1 RES1    0.0000
    115 H6E       37.6220   -1.6653   -1.2796 H         1 RES1    0.0000
    116 H7E       38.3605   -3.2142   -2.9385 H         1 RES1    0.0000
    117 H8E       37.7451   -5.5063   -2.8009 H         1 RES1    0.0000
    118 H9E       36.2708   -6.2190   -1.1087 H         1 RES1    0.0000
    119 H10E      35.5139   -4.7005    0.5356 H         1 RES1    0.0000
    120 H11E      34.0348   -2.9493   -0.7377 H         1 RES1    0.0000
    121 H12E      31.7180   -2.3489   -3.5657 H         1 RES1    0.0000
    122 H13E      32.4962   -3.9198   -5.1329 H         1 RES1    0.0000
    123 H14E      33.1583   -6.0975   -4.4348 H         1 RES1    0.0000
    124 H15E      33.0555   -6.6617   -2.1486 H         1 RES1    0.0000
    125 H16E      32.2245   -5.0772   -0.5606 H         1 RES1    0.0000
    126 H17E      32.4597    0.1538    2.5196 H         1 RES1    0.0000
    127 H18E      34.2200    2.2236    2.5362 H         1 RES1    0.0000
    128 H19E      33.5167    3.7531    4.2076 H         1 RES1    0.0000
    129 H20E      33.6057    3.1121    6.4813 H         1 RES1    0.0000
    130 H21E      34.0555    0.8866    7.0544 H         1 RES1    0.0000
    131 H22E      34.6816   -0.6960    5.3747 H         1 RES1    0.0000
    132 H23E      38.7795    0.1919    1.3254 H         1 RES1    0.0000
    133 H24E      41.1231   -0.1338    1.1983 H         1 RES1    0.0000
    134 H25E      42.0616   -2.2688    1.3796 H         1 RES1    0.0000
    135 H26E      40.6549   -4.1292    1.8360 H         1 RES1    0.0000
    136 H27E      38.2630   -3.8371    1.8735 H         1 RES1    0.0000
@<TRIPOS>BOND
     1    1    2 ar
     2    2    3 1
     3    3    4 ar
     4    4    5 ar
     5    5    6 ar
     6    6    7 ar
     7    7    8 ar
     8    8    3 ar
     9    9    2 ar
    10   10    9 ar
    11   11   10 ar
    12   12    1 ar
    13   13   12 1
    14   14   13 ar
    15   15   14 ar
    16   16   15 ar
    17   17   16 ar
    18   18   13 ar
    19   19   11 ar
    20   20   19 ar
    21   21   20 ar
    22   22   20 ar
    23   23   22 1
    24   24   23 ar
    25   25   24 ar
    26   26   25 ar
    27   27   26 ar
    28   28   23 ar
    29   29   10 ar
    30   30    9 1
    31   31   30 ar
    32   32   31 ar
    33   33   32 ar
    34   34   33 ar
    35   35   30 ar
    36   36    1 1
    37   37   36 ar
    38   38   37 ar
    39   39   38 ar
    40   40   39 ar
    41   41   36 ar
    42   42    4 1
    43   43    5 1
    44   44    6 1
    45   45    7 1
    46   46    8 1
    47   47   14 1
    48   48   15 1
    49   49   16 1
    50   50   17 1
    51   51   18 1
    52   52   19 1
    53   53   24 1
    54   54   25 1
    55   55   26 1
    56   56   27 1
    57   57   28 1
    58   58   29 1
    59   59   31 1
    60   60   32 1
    61   61   33 1
    62   62   34 1
    63   63   35 1
    64   64   37 1
    65   65   38 1
    66   66   39 1
    67   67   40 1
    68   68   41 1
    69   69   70 ar
    70   70   71 1
    71   71   72 ar
    72   72   73 ar
    73   73   74 ar
    74   74   75 ar
    75   75   76 ar
    76   76   71 ar
    77   77   70 ar
    78   78   77 ar
    79   79   78 ar
    80   80   69 ar
    81   81   80 1
    82   82   81 ar
    83   83   82 ar
    84   84   83 ar
    85   85   84 ar
    86   86   81 ar
    87   87   79 ar
    88   88   87 ar
    89   89   22 ar
    90   90   21 ar
    91   91   90 1
    92   92   91 ar
    93   93   92 ar
    94   94   93 ar
    95   95   94 ar
    96   96   91 ar
    97   97   78 ar
    98   98   77 1
    99   99   98 ar
   100  100   99 ar
   101  101  100 ar
   102  102  101 ar
   103  103   98 ar
   104  104   69 1
   105  105  104 ar
   106  106  105 ar
   107  107  106 ar
   108  108  107 ar
   109  109  104 ar
   110  110   72 1
   111  111   73 1
   112  112   74 1
   113  113   75 1
   114  114   76 1
   115  115   82 1
   116  116   83 1
   117  117   84 1
   118  118   85 1
   119  119   86 1
   120  120   87 1
   121  121   92 1
   122  122   93 1
   123  123   94 1
   124  124   95 1
   125  125   96 1
   126  126   97 1
   127  127   99 1
   128  128  100 1
   129  129  101 1
   130  130  102 1
   131  131  103 1
   132  132  105 1
   133  133  106 1
   134  134  107 1
   135  135  108 1
   136  136  109 1
   137   11   12 ar
   138   17   18 ar
   139   21   29 ar
   140   27   28 ar
   141   34   35 ar
   142   40   41 ar
   143   79   80 ar
   144   85   86 ar
   145   88   89 ar
   146   88   90 ar
   147   89   97 ar
   148   95   96 ar
   149  102  103 ar
   150  108  109 ar
@<TRIPOS>SUBSTRUCTURE
     1 RES1 1

@<TRIPOS>CRYSIN
  41.2840    6.4620   21.0780  90.0000  98.6160  90.0000  15 1

