# MOL2 file generated by ConQuest
# Please check atom types

@<TRIPOS>MOLECULE
VIHCUN
    47    50     1
SMALL
NO_CHARGES
****
Generated from CSD

@<TRIPOS>ATOM
      1 C1         0.6570    3.3623    2.2669 C.3       1 RES1    0.0000
      2 H1         1.5577    3.2887    1.8381 H         1 RES1    0.0000
      3 C2        -0.4076    3.6217    1.1978 C.3       1 RES1    0.0000
      4 H2        -1.2618    3.8617    1.6369 H         1 RES1    0.0000
      5 H3        -0.1277    4.3850    0.6351 H         1 RES1    0.0000
      6 C3        -0.6210    2.3942    0.3117 C.3       1 RES1    0.0000
      7 H4        -1.3155    2.5940   -0.3648 H         1 RES1    0.0000
      8 H5         0.2200    2.1835   -0.1662 H         1 RES1    0.0000
      9 C4        -1.0490    1.1923    1.1350 C.3       1 RES1    0.0000
     10 H6        -1.1701    0.4105    0.5413 H         1 RES1    0.0000
     11 H7        -1.9167    1.3850    1.5735 H         1 RES1    0.0000
     12 C5        -0.0024    0.8707    2.1951 C.3       1 RES1    0.0000
     13 H8         0.8181    0.5414    1.7501 H         1 RES1    0.0000
     14 H9        -0.3430    0.1444    2.7765 H         1 RES1    0.0000
     15 C6        -0.7396    2.5241    4.0545 C.3       1 RES1    0.0000
     16 H10       -0.6615    2.0211    4.9037 H         1 RES1    0.0000
     17 H11       -1.6408    2.3684    3.6755 H         1 RES1    0.0000
     18 C7        -0.5041    4.0295    4.2931 C.3       1 RES1    0.0000
     19 H12       -0.2933    4.2000    5.2445 H         1 RES1    0.0000
     20 H13       -1.3088    4.5519    4.0461 H         1 RES1    0.0000
     21 C8         0.6953    4.4188    3.3903 C.3       1 RES1    0.0000
     22 H14        1.5306    4.2632    3.9187 H         1 RES1    0.0000
     23 C9         0.6910    5.8841    2.9544 C.3       1 RES1    0.0000
     24 H15       -0.1432    6.0452    2.4260 H         1 RES1    0.0000
     25 C10        1.8904    6.2134    2.0502 C.3       1 RES1    0.0000
     26 H16        1.8425    5.6707    1.2340 H         1 RES1    0.0000
     27 H17        2.7236    6.0136    2.5262 H         1 RES1    0.0000
     28 H18        1.8707    7.1640    1.8141 H         1 RES1    0.0000
     29 C11        0.6685    6.8193    4.1476 C.ar      1 RES1    0.0000
     30 C12       -0.3150    7.7626    4.2996 C.ar      1 RES1    0.0000
     31 H19       -1.0132    7.8046    3.6567 H         1 RES1    0.0000
     32 C13       -0.3249    8.6766    5.3848 C.ar      1 RES1    0.0000
     33 C14       -1.3336    9.6583    5.5426 C.ar      1 RES1    0.0000
     34 H20       -2.0372    9.7129    4.9069 H         1 RES1    0.0000
     35 C15       -1.3064   10.5267    6.5968 C.ar      1 RES1    0.0000
     36 H21       -1.9935   11.1745    6.6874 H         1 RES1    0.0000
     37 C16       -0.2720   10.4694    7.5502 C.ar      1 RES1    0.0000
     38 H22       -0.2627   11.0798    8.2777 H         1 RES1    0.0000
     39 C17        0.7198    9.5342    7.4286 C.ar      1 RES1    0.0000
     40 H23        1.4168    9.5008    8.0727 H         1 RES1    0.0000
     41 C18        0.7175    8.6107    6.3485 C.ar      1 RES1    0.0000
     42 C19        1.7151    7.6214    6.1933 C.ar      1 RES1    0.0000
     43 H24        2.4102    7.5519    6.8368 H         1 RES1    0.0000
     44 C20        1.6961    6.7597    5.1294 C.ar      1 RES1    0.0000
     45 H25        2.3828    6.1083    5.0459 H         1 RES1    0.0000
     46 C21        0.3492    2.0784    3.0591 C.3       1 RES1    0.0000
     47 H26        1.1658    1.8451    3.5875 H         1 RES1    0.0000
@<TRIPOS>BOND
     1    1    2 1
     2    3    1 1
     3    4    3 1
     4    5    3 1
     5    6    3 1
     6    7    6 1
     7    8    6 1
     8    9    6 1
     9   10    9 1
    10   11    9 1
    11   12    9 1
    12   13   12 1
    13   14   12 1
    14   15   16 1
    15   17   15 1
    16   18   15 1
    17   19   18 1
    18   20   18 1
    19   21    1 1
    20   22   21 1
    21   23   21 1
    22   24   23 1
    23   25   23 1
    24   26   25 1
    25   27   25 1
    26   28   25 1
    27   29   23 1
    28   30   29 ar
    29   31   30 1
    30   32   30 ar
    31   33   32 ar
    32   34   33 1
    33   35   33 ar
    34   36   35 1
    35   37   35 ar
    36   38   37 1
    37   39   37 ar
    38   40   39 1
    39   41   32 ar
    40   42   41 ar
    41   43   42 1
    42   44   29 ar
    43   45   44 1
    44   46    1 1
    45   47   46 1
    46   12   46 1
    47   15   46 1
    48   18   21 1
    49   39   41 ar
    50   42   44 ar
@<TRIPOS>SUBSTRUCTURE
     1 RES1 1

@<TRIPOS>CRYSIN
   5.5039   45.1131    7.0986  90.0000 114.3430  90.0000  14 1

