# MOL2 file generated by ConQuest
# Please check atom types

@<TRIPOS>MOLECULE
VUFHOU
    54    65     1
SMALL
NO_CHARGES
****
Generated from CSD

@<TRIPOS>ATOM
      1 C1         8.6190   -0.3815    1.6546 C.ar      1 RES1    0.0000
      2 C2         9.7788    0.4397    1.6332 C.ar      1 RES1    0.0000
      3 C3         9.3208    1.7673    1.4951 C.ar      1 RES1    0.0000
      4 C4         8.6190   -1.5120    2.3950 C.ar      1 RES1    0.0000
      5 C5         9.7983   -1.9929    3.0074 C.ar      1 RES1    0.0000
      6 C6        10.9223   -1.2014    3.0149 C.ar      1 RES1    0.0000
      7 H1        11.7201   -1.5205    3.4195 H         1 RES1    0.0000
      8 C7        10.8992    0.1135    2.4122 C.ar      1 RES1    0.0000
      9 C8        11.6881    1.2275    2.9087 C.ar      1 RES1    0.0000
     10 H2        12.5269    1.0681    3.3264 H         1 RES1    0.0000
     11 C9        11.2188    2.5154    2.7732 C.ar      1 RES1    0.0000
     12 C10        9.9718    2.7716    2.1331 C.ar      1 RES1    0.0000
     13 C11        9.3020    3.9261    2.6796 C.ar      1 RES1    0.0000
     14 C12        9.3264   -3.1318    3.8166 C.ar      1 RES1    0.0000
     15 C13       10.0229   -4.0779    4.5373 C.ar      1 RES1    0.0000
     16 H3        10.9737   -4.0836    4.5398 H         1 RES1    0.0000
     17 C14        9.3061   -5.0240    5.2605 C.ar      1 RES1    0.0000
     18 H4         9.7739   -5.6807    5.7629 H         1 RES1    0.0000
     19 C15       11.5171    3.7517    3.5199 C.ar      1 RES1    0.0000
     20 C16       10.3883    4.6055    3.4502 C.ar      1 RES1    0.0000
     21 C17       10.4307    5.8665    4.0705 C.ar      1 RES1    0.0000
     22 H5         9.6929    6.4622    4.0277 H         1 RES1    0.0000
     23 C18       11.5815    6.2027    4.7417 C.ar      1 RES1    0.0000
     24 H6        11.6305    7.0480    5.1719 H         1 RES1    0.0000
     25 C19       12.6677    5.3559    4.8130 C.ar      1 RES1    0.0000
     26 H7        13.4456    5.6282    5.2861 H         1 RES1    0.0000
     27 C20       12.6387    4.1460    4.2200 C.ar      1 RES1    0.0000
     28 H8        13.3888    3.5659    4.2833 H         1 RES1    0.0000
     29 C2C        7.4592    0.4397    1.6332 C.ar      1 RES1    0.0000
     30 C3C        7.9172    1.7673    1.4951 C.ar      1 RES1    0.0000
     31 C5C        7.4397   -1.9929    3.0074 C.ar      1 RES1    0.0000
     32 C6C        6.3157   -1.2014    3.0149 C.ar      1 RES1    0.0000
     33 H1C        5.5179   -1.5205    3.4195 H         1 RES1    0.0000
     34 C7C        6.3388    0.1135    2.4122 C.ar      1 RES1    0.0000
     35 C8C        5.5499    1.2275    2.9087 C.ar      1 RES1    0.0000
     36 H2C        4.7111    1.0681    3.3264 H         1 RES1    0.0000
     37 C9C        6.0192    2.5154    2.7732 C.ar      1 RES1    0.0000
     38 C10C       7.2662    2.7716    2.1331 C.ar      1 RES1    0.0000
     39 C11C       7.9360    3.9261    2.6796 C.ar      1 RES1    0.0000
     40 C12C       7.9116   -3.1318    3.8166 C.ar      1 RES1    0.0000
     41 C13C       7.2151   -4.0779    4.5373 C.ar      1 RES1    0.0000
     42 H3C        6.2643   -4.0836    4.5398 H         1 RES1    0.0000
     43 C14C       7.9319   -5.0240    5.2605 C.ar      1 RES1    0.0000
     44 H4C        7.4641   -5.6807    5.7629 H         1 RES1    0.0000
     45 C15C       5.7209    3.7517    3.5199 C.ar      1 RES1    0.0000
     46 C16C       6.8497    4.6055    3.4502 C.ar      1 RES1    0.0000
     47 C17C       6.8073    5.8665    4.0705 C.ar      1 RES1    0.0000
     48 H5C        7.5451    6.4622    4.0277 H         1 RES1    0.0000
     49 C18C       5.6565    6.2027    4.7417 C.ar      1 RES1    0.0000
     50 H6C        5.6075    7.0480    5.1719 H         1 RES1    0.0000
     51 C19C       4.5703    5.3559    4.8130 C.ar      1 RES1    0.0000
     52 H7C        3.7924    5.6282    5.2861 H         1 RES1    0.0000
     53 C20C       4.5993    4.1460    4.2200 C.ar      1 RES1    0.0000
     54 H8C        3.8492    3.5659    4.2833 H         1 RES1    0.0000
@<TRIPOS>BOND
     1    1    2 ar
     2    2    3 ar
     3    3   12 ar
     4    4    1 ar
     5    5    4 ar
     6    6    5 ar
     7    7    6 1
     8    8    2 ar
     9    9    8 ar
    10   10    9 1
    11   11    9 ar
    12   12   11 ar
    13   13   12 ar
    14   14    5 1
    15   15   14 ar
    16   16   15 1
    17   17   15 ar
    18   18   17 1
    19   19   11 1
    20   20   13 1
    21   21   20 ar
    22   22   21 1
    23   23   21 ar
    24   24   23 1
    25   25   23 ar
    26   26   25 1
    27   27   19 ar
    28   28   27 1
    29   29    1 ar
    30   30    3 ar
    31   31    4 ar
    32   32   31 ar
    33   33   32 1
    34   34   29 ar
    35   35   34 ar
    36   36   35 1
    37   37   35 ar
    38   38   30 ar
    39   39   13 ar
    40   40   14 ar
    41   41   40 ar
    42   42   41 1
    43   43   17 ar
    44   44   43 1
    45   45   37 1
    46   46   39 1
    47   47   46 ar
    48   48   47 1
    49   49   47 ar
    50   50   49 1
    51   51   49 ar
    52   52   51 1
    53   53   45 ar
    54   54   53 1
    55    6    8 ar
    56   19   20 ar
    57   25   27 ar
    58   29   30 ar
    59   31   40 1
    60   32   34 ar
    61   37   38 ar
    62   38   39 ar
    63   41   43 ar
    64   45   46 ar
    65   51   53 ar
@<TRIPOS>SUBSTRUCTURE
     1 RES1 1

@<TRIPOS>CRYSIN
  17.2380   14.1840    4.1973  90.0000  90.0000  90.0000  31 1

