# MOL2 file generated by ConQuest
# Please check atom types

@<TRIPOS>MOLECULE
WANRAH
    74    79     1
SMALL
NO_CHARGES
****
Generated from CSD

@<TRIPOS>ATOM
      1 C1        -1.3084   15.9083    4.6779 C.ar      1 RES1    0.0000
      2 C2        -0.5891   16.5317    3.5937 C.ar      1 RES1    0.0000
      3 C3         0.5326   15.9283    2.8773 C.ar      1 RES1    0.0000
      4 C4         0.9114   14.5673    3.0881 C.ar      1 RES1    0.0000
      5 H1         0.3521   14.0076    3.6131 H         1 RES1    0.0000
      6 C5         2.0558   14.0511    2.5538 C.ar      1 RES1    0.0000
      7 H2         2.3320   13.1744    2.7951 H         1 RES1    0.0000
      8 C6         2.8453   14.8096    1.6360 C.ar      1 RES1    0.0000
      9 C7         4.0491   14.2480    1.1295 C.ar      1 RES1    0.0000
     10 H3         4.3504   13.4053    1.4502 H         1 RES1    0.0000
     11 C8         4.7758   14.9174    0.1793 C.ar      1 RES1    0.0000
     12 H4         5.6022   14.5670   -0.1303 H         1 RES1    0.0000
     13 C9         4.2850   16.1223   -0.3254 C.ar      1 RES1    0.0000
     14 H5         4.7795   16.5644   -1.0066 H         1 RES1    0.0000
     15 C10        3.1055   16.7053    0.1220 C.ar      1 RES1    0.0000
     16 C11        2.3918   16.0868    1.2127 C.ar      1 RES1    0.0000
     17 C12        1.2528   16.6867    1.9151 C.ar      1 RES1    0.0000
     18 C13        0.8691   18.0368    1.6878 C.ar      1 RES1    0.0000
     19 H6         1.4102   18.5879    1.1350 H         1 RES1    0.0000
     20 C14       -0.2536   18.5543    2.2433 C.ar      1 RES1    0.0000
     21 H7        -0.5245   19.4330    2.0067 H         1 RES1    0.0000
     22 C15       -1.0393   17.8113    3.1759 C.ar      1 RES1    0.0000
     23 C16       -2.2092   18.4003    3.6907 C.ar      1 RES1    0.0000
     24 H8        -2.4925   19.2497    3.3746 H         1 RES1    0.0000
     25 C17       -2.9469   17.7418    4.6557 C.ar      1 RES1    0.0000
     26 H9        -3.7619   18.1094    4.9764 H         1 RES1    0.0000
     27 C18       -2.4706   16.5286    5.1483 C.ar      1 RES1    0.0000
     28 H10       -2.9610   16.1001    5.8397 H         1 RES1    0.0000
     29 C19       -0.8937   14.7056    5.4487 C.ar      1 RES1    0.0000
     30 C20       -1.7802   13.6412    5.6207 C.ar      1 RES1    0.0000
     31 H11       -2.6266   13.6624    5.1909 H         1 RES1    0.0000
     32 C21       -1.4390   12.5480    6.4174 C.ar      1 RES1    0.0000
     33 H12       -2.0575   11.8317    6.5080 H         1 RES1    0.0000
     34 C22       -0.2246   12.4764    7.0792 C.ar      1 RES1    0.0000
     35 C23        0.1643   11.2822    7.9591 C.3       1 RES1    0.0000
     36 C24       -1.0385   10.3890    8.2956 C.3       1 RES1    0.0000
     37 H13       -1.7136   10.9151    8.7725 H         1 RES1    0.0000
     38 H14       -0.7446    9.6463    8.8622 H         1 RES1    0.0000
     39 H15       -1.4253   10.0367    7.4674 H         1 RES1    0.0000
     40 C25        0.7312   11.7760    9.2901 C.3       1 RES1    0.0000
     41 H16        1.5578   12.2769    9.1284 H         1 RES1    0.0000
     42 H17        0.9225   11.0080    9.8687 H         1 RES1    0.0000
     43 H18        0.0764   12.3602    9.7282 H         1 RES1    0.0000
     44 C26        1.2011   10.4195    7.2179 C.3       1 RES1    0.0000
     45 H19        0.8323   10.1343    6.3555 H         1 RES1    0.0000
     46 H20        1.4158    9.6296    7.7576 H         1 RES1    0.0000
     47 H21        2.0151   10.9437    7.0672 H         1 RES1    0.0000
     48 C27        0.6639   13.5526    6.9128 C.ar      1 RES1    0.0000
     49 H22        1.5072   13.5338    7.3509 H         1 RES1    0.0000
     50 C28        0.3355   14.6375    6.1263 C.ar      1 RES1    0.0000
     51 H23        0.9536   15.3526    6.0403 H         1 RES1    0.0000
     52 C29        2.6458   17.8839   -0.6646 C.ar      1 RES1    0.0000
     53 C30        1.4621   17.8485   -1.4188 C.ar      1 RES1    0.0000
     54 H24        0.9127   17.0738   -1.3855 H         1 RES1    0.0000
     55 C31        1.0800   18.9135   -2.2054 C.ar      1 RES1    0.0000
     56 H25        0.2791   18.8545   -2.7128 H         1 RES1    0.0000
     57 C32        1.8555   20.0891   -2.2719 C.ar      1 RES1    0.0000
     58 C33        1.4671   21.2492   -3.2064 C.3       1 RES1    0.0000
     59 C34       -0.0521   21.4363   -3.2508 C.3       1 RES1    0.0000
     60 H26       -0.3953   21.5422   -2.3394 H         1 RES1    0.0000
     61 H27       -0.4654   20.6519   -3.6676 H         1 RES1    0.0000
     62 H28       -0.2674   22.2350   -3.7748 H         1 RES1    0.0000
     63 C35        2.0845   22.5633   -2.7618 C.3       1 RES1    0.0000
     64 H29        1.7063   23.2967   -3.2896 H         1 RES1    0.0000
     65 H30        3.0549   22.5302   -2.8958 H         1 RES1    0.0000
     66 H31        1.8905   22.7111   -1.8126 H         1 RES1    0.0000
     67 C36        1.9818   20.9149   -4.6039 C.3       1 RES1    0.0000
     68 H32        1.7242   21.6279   -5.2260 H         1 RES1    0.0000
     69 H33        1.5923   20.0662   -4.9006 H         1 RES1    0.0000
     70 H34        2.9585   20.8376   -4.5827 H         1 RES1    0.0000
     71 C37        3.0263   20.1086   -1.5325 C.ar      1 RES1    0.0000
     72 H35        3.5738   20.8852   -1.5584 H         1 RES1    0.0000
     73 C38        3.4266   19.0264   -0.7515 C.ar      1 RES1    0.0000
     74 H36        4.2457   19.0711   -0.2717 H         1 RES1    0.0000
@<TRIPOS>BOND
     1    1    2 ar
     2    2    3 ar
     3    3    4 ar
     4    4    5 1
     5    6    4 ar
     6    7    6 1
     7    8    6 ar
     8    9    8 ar
     9   10    9 1
    10   11    9 ar
    11   12   11 1
    12   13   11 ar
    13   14   13 1
    14   15   13 ar
    15   16    8 ar
    16   17    3 ar
    17   18   17 ar
    18   19   18 1
    19   20   18 ar
    20   21   20 1
    21   22    2 ar
    22   23   22 ar
    23   24   23 1
    24   25   23 ar
    25   26   25 1
    26   27    1 ar
    27   28   27 1
    28   29    1 1
    29   30   29 ar
    30   31   30 1
    31   32   30 ar
    32   33   32 1
    33   34   32 ar
    34   35   34 1
    35   36   35 1
    36   37   36 1
    37   38   36 1
    38   39   36 1
    39   40   35 1
    40   41   40 1
    41   42   40 1
    42   43   40 1
    43   44   35 1
    44   45   44 1
    45   46   44 1
    46   47   44 1
    47   48   34 ar
    48   49   48 1
    49   50   29 ar
    50   51   50 1
    51   52   15 1
    52   53   52 ar
    53   54   53 1
    54   55   53 ar
    55   56   55 1
    56   57   55 ar
    57   58   57 1
    58   59   58 1
    59   60   59 1
    60   61   59 1
    61   62   59 1
    62   63   58 1
    63   64   63 1
    64   65   63 1
    65   66   63 1
    66   67   58 1
    67   68   67 1
    68   69   67 1
    69   70   67 1
    70   71   57 ar
    71   72   71 1
    72   73   52 ar
    73   74   73 1
    74   15   16 ar
    75   16   17 ar
    76   20   22 ar
    77   25   27 ar
    78   48   50 ar
    79   71   73 ar
@<TRIPOS>SUBSTRUCTURE
     1 RES1 1

@<TRIPOS>CRYSIN
   6.1573   23.8062    9.2710  90.0000  94.4550  90.0000   4 1

