# MOL2 file generated by ConQuest
# Please check atom types

@<TRIPOS>MOLECULE
WEKMUV
    47    53     1
SMALL
NO_CHARGES
****
Generated from CSD

@<TRIPOS>ATOM
      1 C1         6.5023    3.8135    9.1478 C.3       1 RES1    0.0000
      2 H1         7.0998    3.1902    8.6066 H         1 RES1    0.0000
      3 H2         7.0821    4.2961    9.8031 H         1 RES1    0.0000
      4 C2         5.3667    3.1158    9.8410 C.ar      1 RES1    0.0000
      5 C3         4.1598    3.6045    9.4091 C.ar      1 RES1    0.0000
      6 C4         4.4289    4.5565    8.3070 C.ar      1 RES1    0.0000
      7 C5         5.7845    4.7532    8.2297 C.ar      1 RES1    0.0000
      8 C6         5.4764    2.1149   10.8504 C.ar      1 RES1    0.0000
      9 C7         6.7308    1.6180   11.2671 C.ar      1 RES1    0.0000
     10 H3         7.5857    2.0181   10.8540 H         1 RES1    0.0000
     11 C8         6.8085    0.6248   12.2095 C.ar      1 RES1    0.0000
     12 H4         7.7019    0.2854   12.5099 H         1 RES1    0.0000
     13 C9         5.6382    0.0749   12.7468 C.ar      1 RES1    0.0000
     14 H5         5.7147   -0.6523   13.4115 H         1 RES1    0.0000
     15 C10        4.4069    0.5534   12.3688 C.ar      1 RES1    0.0000
     16 H6         3.5833    0.1274   12.7759 H         1 RES1    0.0000
     17 C11        4.2876    1.5992   11.4315 C.ar      1 RES1    0.0000
     18 C12        3.0101    2.2168   11.0967 C.ar      1 RES1    0.0000
     19 C13        1.8206    1.8703   11.7801 C.ar      1 RES1    0.0000
     20 H7         1.8432    1.1263   12.4448 H         1 RES1    0.0000
     21 C14        0.6519    2.5614   11.5864 C.ar      1 RES1    0.0000
     22 H8        -0.2009    2.2984   12.0906 H         1 RES1    0.0000
     23 C15        0.6281    3.6657   10.7282 C.ar      1 RES1    0.0000
     24 H9        -0.2066    4.2197   10.6511 H         1 RES1    0.0000
     25 C16        1.7598    4.0092   10.0234 C.ar      1 RES1    0.0000
     26 H10        1.7381    4.8159    9.4413 H         1 RES1    0.0000
     27 C17        2.9544    3.2616   10.1335 C.ar      1 RES1    0.0000
     28 C18        3.5731    5.1599    7.3043 C.ar      1 RES1    0.0000
     29 C19        2.2791    4.6707    7.0252 C.ar      1 RES1    0.0000
     30 H11        1.9517    3.8935    7.5040 H         1 RES1    0.0000
     31 C20        1.5013    5.2430    6.0457 C.ar      1 RES1    0.0000
     32 H12        0.5821    4.8822    5.8577 H         1 RES1    0.0000
     33 C21        1.9913    6.3198    5.3064 C.ar      1 RES1    0.0000
     34 H13        1.4070    6.7627    4.6192 H         1 RES1    0.0000
     35 C22        3.2756    6.7708    5.5066 C.ar      1 RES1    0.0000
     36 H14        3.6328    7.5118    4.9312 H         1 RES1    0.0000
     37 C23        4.1164    6.1817    6.4799 C.ar      1 RES1    0.0000
     38 C24        5.5313    6.5236    6.5608 C.ar      1 RES1    0.0000
     39 C25        6.1207    7.5546    5.8003 C.ar      1 RES1    0.0000
     40 H15        5.5390    8.1437    5.2624 H         1 RES1    0.0000
     41 C26        7.4852    7.7340    5.7750 C.ar      1 RES1    0.0000
     42 H16        7.8739    8.4597    5.2471 H         1 RES1    0.0000
     43 C27        8.3271    6.8987    6.5160 C.ar      1 RES1    0.0000
     44 H17        9.3395    7.0226    6.4799 H         1 RES1    0.0000
     45 C28        7.7806    5.9187    7.3124 C.ar      1 RES1    0.0000
     46 H18        8.3641    5.3153    7.8792 H         1 RES1    0.0000
     47 C29        6.3787    5.7184    7.3654 C.ar      1 RES1    0.0000
@<TRIPOS>BOND
     1    1    2 1
     2    3    1 1
     3    4    1 1
     4    5    4 ar
     5    6    5 1
     6    7    1 1
     7    8    4 ar
     8    9    8 ar
     9   10    9 1
    10   11    9 ar
    11   12   11 1
    12   13   11 ar
    13   14   13 1
    14   15   13 ar
    15   16   15 1
    16   17    8 ar
    17   18   17 ar
    18   19   18 ar
    19   20   19 1
    20   21   19 ar
    21   22   21 1
    22   23   21 ar
    23   24   23 1
    24   25   23 ar
    25   26   25 1
    26   27    5 ar
    27   28    6 ar
    28   29   28 ar
    29   30   29 1
    30   31   29 ar
    31   32   31 1
    32   33   31 ar
    33   34   33 1
    34   35   33 ar
    35   36   35 1
    36   37   28 ar
    37   38   37 ar
    38   39   38 ar
    39   40   39 1
    40   41   39 ar
    41   42   41 1
    42   43   41 ar
    43   44   43 1
    44   45   43 ar
    45   46   45 1
    46   47    7 ar
    47    6    7 ar
    48   15   17 ar
    49   18   27 ar
    50   25   27 ar
    51   35   37 ar
    52   38   47 ar
    53   45   47 ar
@<TRIPOS>SUBSTRUCTURE
     1 RES1 1

@<TRIPOS>CRYSIN
  18.4562    5.0962   19.1459  90.0000  91.0220  90.0000  13 1

