# MOL2 file generated by ConQuest
# Please check atom types

@<TRIPOS>MOLECULE
WEVVIC
    50    54     1
SMALL
NO_CHARGES
****
Generated from CSD

@<TRIPOS>ATOM
      1 C1         6.0690    2.4211    6.3719 C.3       1 RES1    0.0000
      2 H1         6.4604    2.0989    7.1989 H         1 RES1    0.0000
      3 H2         5.4625    1.7380    6.0428 H         1 RES1    0.0000
      4 C2         5.2600    3.7339    6.6589 C.3       1 RES1    0.0000
      5 H3         4.3143    3.5193    6.6832 H         1 RES1    0.0000
      6 H4         5.5087    4.0692    7.5345 H         1 RES1    0.0000
      7 C3         5.4884    4.8275    5.6326 C.ar      1 RES1    0.0000
      8 C4         4.9034    4.7949    4.3404 C.ar      1 RES1    0.0000
      9 C5         3.8644    3.8640    4.0226 C.ar      1 RES1    0.0000
     10 H5         3.4763    3.3675    4.7064 H         1 RES1    0.0000
     11 C6         3.4349    3.6889    2.7610 C.ar      1 RES1    0.0000
     12 H6         2.8573    2.9849    2.5743 H         1 RES1    0.0000
     13 C7         3.8419    4.5579    1.6948 C.ar      1 RES1    0.0000
     14 C8         3.2724    4.4418    0.3996 C.ar      1 RES1    0.0000
     15 C9         3.5635    5.4021   -0.5287 C.ar      1 RES1    0.0000
     16 H7         3.2617    5.3015   -1.4024 H         1 RES1    0.0000
     17 C10        4.3005    6.5221   -0.1871 C.ar      1 RES1    0.0000
     18 H8         4.4130    7.1951   -0.8191 H         1 RES1    0.0000
     19 C11        4.8747    6.6762    1.0595 C.ar      1 RES1    0.0000
     20 C12        4.7538    5.6066    1.9909 C.ar      1 RES1    0.0000
     21 C13        5.4407    5.5826    3.2835 C.ar      1 RES1    0.0000
     22 C14        6.7015    6.2123    3.5032 C.ar      1 RES1    0.0000
     23 C15        7.0790    6.4237    4.8088 C.ar      1 RES1    0.0000
     24 H9         7.7693    7.0201    4.9889 H         1 RES1    0.0000
     25 C16        6.4594    5.7716    5.8643 C.ar      1 RES1    0.0000
     26 H10        6.7039    5.9753    6.7382 H         1 RES1    0.0000
     27 C17        7.7573    6.3238    2.4223 C.3       1 RES1    0.0000
     28 H11        8.1820    7.1928    2.4922 H         1 RES1    0.0000
     29 H12        7.3210    6.2789    1.5570 H         1 RES1    0.0000
     30 C18        8.8648    5.2194    2.4811 C.3       1 RES1    0.0000
     31 H13        9.0146    4.8794    1.5849 H         1 RES1    0.0000
     32 H14        9.6925    5.6244    2.7829 H         1 RES1    0.0000
     33 C19        8.5345    4.0692    3.3841 C.ar      1 RES1    0.0000
     34 C20        8.9921    4.0367    4.6948 C.ar      1 RES1    0.0000
     35 H15        9.7703    4.4936    4.9201 H         1 RES1    0.0000
     36 C21        8.3098    3.3381    5.6656 C.ar      1 RES1    0.0000
     37 H16        8.6309    3.3342    6.5383 H         1 RES1    0.0000
     38 C22        7.1578    2.6449    5.3624 C.ar      1 RES1    0.0000
     39 C23        6.8848    2.4420    4.0221 C.ar      1 RES1    0.0000
     40 H17        6.2354    1.8232    3.7768 H         1 RES1    0.0000
     41 C24        7.5589    3.1421    3.0422 C.ar      1 RES1    0.0000
     42 H18        7.3586    2.9911    2.1466 H         1 RES1    0.0000
     43 C25        2.3373    3.3149    0.0488 C.3       1 RES1    0.0000
     44 H19        1.5225    3.4086    0.5468 H         1 RES1    0.0000
     45 H20        2.7515    2.4769    0.2658 H         1 RES1    0.0000
     46 H21        2.1418    3.3420   -0.8901 H         1 RES1    0.0000
     47 C26        5.4046    8.0447    1.4120 C.3       1 RES1    0.0000
     48 H22        6.2962    8.1415    1.0667 H         1 RES1    0.0000
     49 H23        5.4171    8.1470    2.3663 H         1 RES1    0.0000
     50 H24        4.8371    8.7162    1.0263 H         1 RES1    0.0000
@<TRIPOS>BOND
     1    1    2 1
     2    3    1 1
     3    4    1 1
     4    5    4 1
     5    6    4 1
     6    7    4 1
     7    8    7 ar
     8    9    8 ar
     9   10    9 1
    10   11    9 ar
    11   12   11 1
    12   13   11 ar
    13   14   13 ar
    14   15   14 ar
    15   16   15 1
    16   17   15 ar
    17   18   17 1
    18   19   17 ar
    19   20   13 ar
    20   21    8 ar
    21   22   21 ar
    22   23   22 ar
    23   24   23 1
    24   25    7 ar
    25   26   25 1
    26   27   22 1
    27   28   27 1
    28   29   27 1
    29   30   27 1
    30   31   30 1
    31   32   30 1
    32   33   30 1
    33   34   33 ar
    34   35   34 1
    35   36   34 ar
    36   37   36 1
    37   38    1 1
    38   39   38 ar
    39   40   39 1
    40   41   33 ar
    41   42   41 1
    42   43   14 1
    43   44   43 1
    44   45   43 1
    45   46   43 1
    46   47   19 1
    47   48   47 1
    48   49   47 1
    49   50   47 1
    50   19   20 ar
    51   20   21 ar
    52   23   25 ar
    53   36   38 ar
    54   39   41 ar
@<TRIPOS>SUBSTRUCTURE
     1 RES1 1

@<TRIPOS>CRYSIN
  13.9630    7.7450   16.8670  90.0000  94.0300  90.0000 231 1

