# MOL2 file generated by ConQuest
# Please check atom types

@<TRIPOS>MOLECULE
WOVVIO
    44    48     1
SMALL
NO_CHARGES
****
Generated from CSD

@<TRIPOS>ATOM
      1 C1         2.8113    4.4472    3.0624 C.ar      1 RES1    0.0000
      2 H1         3.0251    4.9972    3.8067 H         1 RES1    0.0000
      3 C2         1.5074    4.4266    2.5809 C.ar      1 RES1    0.0000
      4 H2         0.8396    4.9552    3.0018 H         1 RES1    0.0000
      5 C3         1.1768    3.6392    1.4925 C.ar      1 RES1    0.0000
      6 H3         0.2834    3.6194    1.1702 H         1 RES1    0.0000
      7 C4         2.1593    2.8790    0.8761 C.ar      1 RES1    0.0000
      8 H4         1.9415    2.3460    0.1205 H         1 RES1    0.0000
      9 C5         3.4621    2.8937    1.3588 C.ar      1 RES1    0.0000
     10 H5         4.1251    2.3666    0.9292 H         1 RES1    0.0000
     11 C6         3.8148    3.6709    2.4672 C.ar      1 RES1    0.0000
     12 C7         5.2088    3.6981    2.9887 C.ar      1 RES1    0.0000
     13 C8         5.4722    4.1539    4.3231 C.ar      1 RES1    0.0000
     14 H6         4.7418    4.3605    4.8933 H         1 RES1    0.0000
     15 C9         6.7394    4.2972    4.7940 C.ar      1 RES1    0.0000
     16 H7         6.8753    4.6038    5.6826 H         1 RES1    0.0000
     17 C10        7.8698    3.9943    3.9728 C.ar      1 RES1    0.0000
     18 C11        7.6273    3.4715    2.6558 C.ar      1 RES1    0.0000
     19 C12        6.2804    3.3363    2.2050 C.ar      1 RES1    0.0000
     20 H8         6.1191    2.9856    1.3370 H         1 RES1    0.0000
     21 C13        9.1813    4.1877    4.4062 C.ar      1 RES1    0.0000
     22 H9         9.3350    4.5362    5.2767 H         1 RES1    0.0000
     23 C1B       15.0913    2.9048    3.1822 C.ar      1 RES1    0.0000
     24 H1B       14.8775    2.3548    2.4379 H         1 RES1    0.0000
     25 C2B       16.3952    2.9254    3.6637 C.ar      1 RES1    0.0000
     26 H2B       17.0629    2.3968    3.2428 H         1 RES1    0.0000
     27 C3B       16.7258    3.7128    4.7521 C.ar      1 RES1    0.0000
     28 H3B       17.6192    3.7326    5.0744 H         1 RES1    0.0000
     29 C4B       15.7433    4.4730    5.3685 C.ar      1 RES1    0.0000
     30 H4B       15.9611    5.0060    6.1241 H         1 RES1    0.0000
     31 C5B       14.4405    4.4583    4.8858 C.ar      1 RES1    0.0000
     32 H5B       13.7775    4.9854    5.3154 H         1 RES1    0.0000
     33 C6B       14.0878    3.6811    3.7774 C.ar      1 RES1    0.0000
     34 C7B       12.6937    3.6539    3.2559 C.ar      1 RES1    0.0000
     35 C8B       12.4304    3.1981    1.9215 C.ar      1 RES1    0.0000
     36 H6B       13.1608    2.9915    1.3513 H         1 RES1    0.0000
     37 C9B       11.1632    3.0548    1.4506 C.ar      1 RES1    0.0000
     38 H7B       11.0273    2.7482    0.5620 H         1 RES1    0.0000
     39 C10B      10.0328    3.3577    2.2718 C.ar      1 RES1    0.0000
     40 C11B      10.2753    3.8805    3.5888 C.ar      1 RES1    0.0000
     41 C12B      11.6222    4.0157    4.0396 C.ar      1 RES1    0.0000
     42 H8B       11.7835    4.3664    4.9076 H         1 RES1    0.0000
     43 C13B       8.7213    3.1643    1.8384 C.ar      1 RES1    0.0000
     44 H9B        8.5676    2.8158    0.9679 H         1 RES1    0.0000
@<TRIPOS>BOND
     1    1    2 1
     2    3    1 ar
     3    4    3 1
     4    5    3 ar
     5    6    5 1
     6    7    5 ar
     7    8    7 1
     8    9    7 ar
     9   10    9 1
    10   11    1 ar
    11   12   11 1
    12   13   12 ar
    13   14   13 1
    14   15   13 ar
    15   16   15 1
    16   17   15 ar
    17   18   17 ar
    18   19   12 ar
    19   20   19 1
    20   21   17 ar
    21   22   21 1
    22   23   24 1
    23   25   23 ar
    24   26   25 1
    25   27   25 ar
    26   28   27 1
    27   29   27 ar
    28   30   29 1
    29   31   29 ar
    30   32   31 1
    31   33   23 ar
    32   34   33 1
    33   35   34 ar
    34   36   35 1
    35   37   35 ar
    36   38   37 1
    37   39   37 ar
    38   40   21 ar
    39   41   34 ar
    40   42   41 1
    41   43   18 ar
    42   44   43 1
    43    9   11 ar
    44   18   19 ar
    45   31   33 ar
    46   39   40 ar
    47   39   43 ar
    48   40   41 ar
@<TRIPOS>SUBSTRUCTURE
     1 RES1 1

@<TRIPOS>CRYSIN
  17.9730    7.3520    6.2450  90.0000  90.6460  90.0000  14 1

