# MOL2 file generated by ConQuest
# Please check atom types

@<TRIPOS>MOLECULE
WUMWOR
    80    85     1
SMALL
NO_CHARGES
****
Generated from CSD

@<TRIPOS>ATOM
      1 C1         0.9612    5.7714    2.9657 C.ar      1 RES1    0.0000
      2 C2        -0.8543    6.9893   -0.7273 C.ar      1 RES1    0.0000
      3 C3         1.0638    5.8535    5.4193 C.ar      1 RES1    0.0000
      4 C4         0.6257    5.5492   -2.0001 C.ar      1 RES1    0.0000
      5 H1         1.3410    4.9403   -2.0230 H         1 RES1    0.0000
      6 C5        -1.3148    7.5323    0.5250 C.ar      1 RES1    0.0000
      7 C6        -1.0605    6.7887   -3.1348 C.ar      1 RES1    0.0000
      8 H2        -1.4977    7.0359   -3.9296 H         1 RES1    0.0000
      9 C7         0.5828    6.3181    4.2123 C.ar      1 RES1    0.0000
     10 H3        -0.0267    7.0340    4.2203 H         1 RES1    0.0000
     11 C8         0.8537    5.6814    0.5042 C.ar      1 RES1    0.0000
     12 C9         1.9309    4.7401    2.9634 C.ar      1 RES1    0.0000
     13 C10        0.4332    5.2710   -4.5033 C.ar      1 RES1    0.0000
     14 C11        0.3808    6.2129    1.7088 C.ar      1 RES1    0.0000
     15 C12       -1.4815    7.3197   -1.9420 C.ar      1 RES1    0.0000
     16 H4        -2.2066    7.9190   -1.9364 H         1 RES1    0.0000
     17 C13        0.0085    5.8846   -3.1922 C.ar      1 RES1    0.0000
     18 C14        1.9464    4.7678    5.3882 C.ar      1 RES1    0.0000
     19 H5         2.2462    4.3917    6.1954 H         1 RES1    0.0000
     20 C15        0.2305    6.0799   -0.7454 C.ar      1 RES1    0.0000
     21 C16       -0.7035    7.1397    1.6682 C.ar      1 RES1    0.0000
     22 H6        -1.0109    7.4974    2.4815 H         1 RES1    0.0000
     23 C17        0.6953    6.5177    6.7297 C.ar      1 RES1    0.0000
     24 C18        2.4335    4.2419    1.7156 C.ar      1 RES1    0.0000
     25 C19        0.5900    5.8006    7.8828 C.ar      1 RES1    0.0000
     26 H7         0.6906    4.8661    7.8632 H         1 RES1    0.0000
     27 C20        1.2304    4.0805   -6.9425 C.ar      1 RES1    0.0000
     28 C21        2.3797    4.2463    4.2036 C.ar      1 RES1    0.0000
     29 H8         2.9962    3.5364    4.2164 H         1 RES1    0.0000
     30 C22        1.6166    3.3661   -8.2497 C.3       1 RES1    0.0000
     31 C23       -0.0727    4.4921   -6.7181 C.ar      1 RES1    0.0000
     32 H9        -0.7154    4.3651   -7.3917 H         1 RES1    0.0000
     33 C24        1.7251    4.8998   -4.7132 C.ar      1 RES1    0.0000
     34 H10        2.3570    5.0386   -4.0317 H         1 RES1    0.0000
     35 C25        0.3336    6.4473    9.0967 C.ar      1 RES1    0.0000
     36 H11        0.2666    5.9343    9.8822 H         1 RES1    0.0000
     37 C26        1.9176    4.7333    0.5568 C.ar      1 RES1    0.0000
     38 H12        2.2831    4.4307   -0.2545 H         1 RES1    0.0000
     39 C27        0.5174    7.8578    6.7788 C.ar      1 RES1    0.0000
     40 H13        0.5736    8.3573    5.9849 H         1 RES1    0.0000
     41 C28        2.1390    4.3162   -5.9184 C.ar      1 RES1    0.0000
     42 H14        3.0421    4.0823   -6.0353 H         1 RES1    0.0000
     43 C29       -2.4788    8.4909    0.5652 C.3       1 RES1    0.0000
     44 H15       -2.6846    8.7110    1.4869 H         1 RES1    0.0000
     45 H16       -3.2523    8.0771    0.1511 H         1 RES1    0.0000
     46 H17       -2.2482    9.3005    0.0840 H         1 RES1    0.0000
     47 C30        0.2531    8.5162    7.9779 C.ar      1 RES1    0.0000
     48 H18        0.1252    9.4472    7.9730 H         1 RES1    0.0000
     49 C31        0.1742    7.8300    9.1758 C.ar      1 RES1    0.0000
     50 C32       -0.4554    5.0894   -5.5198 C.ar      1 RES1    0.0000
     51 H19       -1.3443    5.3733   -5.4100 H         1 RES1    0.0000
     52 C33        0.0040    8.5441   10.5199 C.3       1 RES1    0.0000
     53 C34        3.5180    3.1948    1.6819 C.3       1 RES1    0.0000
     54 H20        3.8223    3.0748    0.7686 H         1 RES1    0.0000
     55 H21        3.1682    2.3552    2.0191 H         1 RES1    0.0000
     56 H22        4.2609    3.4806    2.2361 H         1 RES1    0.0000
     57 C35        1.0605    4.1317   -9.4415 C.3       1 RES1    0.0000
     58 H23        1.3426    3.7002  -10.2633 H         1 RES1    0.0000
     59 H24        1.3927    5.0423   -9.4236 H         1 RES1    0.0000
     60 H25        0.0915    4.1402   -9.3965 H         1 RES1    0.0000
     61 C36        3.1250    3.2494   -8.4220 C.3       1 RES1    0.0000
     62 H26        3.4928    2.7206   -7.6965 H         1 RES1    0.0000
     63 H27        3.5209    4.1346   -8.4109 H         1 RES1    0.0000
     64 H28        3.3206    2.8174   -9.2686 H         1 RES1    0.0000
     65 C37       -0.8772    7.7704   11.4705 C.3       1 RES1    0.0000
     66 H29       -1.7545    7.6496   11.0733 H         1 RES1    0.0000
     67 H30       -0.9643    8.2610   12.3031 H         1 RES1    0.0000
     68 H31       -0.4798    6.9029   11.6468 H         1 RES1    0.0000
     69 C38        1.0005    1.9596   -8.2147 C.3       1 RES1    0.0000
     70 H32        1.3640    1.4658   -7.4627 H         1 RES1    0.0000
     71 H33        1.2108    1.4934   -9.0387 H         1 RES1    0.0000
     72 H34        0.0383    2.0299   -8.1202 H         1 RES1    0.0000
     73 C39       -0.5759    9.9410   10.3447 C.3       1 RES1    0.0000
     74 H35       -1.4483    9.8795    9.9262 H         1 RES1    0.0000
     75 H36        0.0146   10.4682    9.7841 H         1 RES1    0.0000
     76 H37       -0.6628   10.3666   11.2128 H         1 RES1    0.0000
     77 C40        1.3746    8.6969   11.1420 C.3       1 RES1    0.0000
     78 H38        1.2961    9.1672   11.9866 H         1 RES1    0.0000
     79 H39        1.9469    9.2031   10.5436 H         1 RES1    0.0000
     80 H40        1.7610    7.8202   11.2942 H         1 RES1    0.0000
@<TRIPOS>BOND
     1    1    9 ar
     2    2    6 ar
     3    3    9 ar
     4    4    5 1
     5    6   21 ar
     6    7    8 1
     7    9   10 1
     8   11   14 ar
     9   12    1 ar
    10   13   17 1
    11   14    1 ar
    12   15    2 ar
    13   16   15 1
    14   17    4 ar
    15   18    3 ar
    16   19   18 1
    17   20    2 ar
    18   21   14 ar
    19   22   21 1
    20   23    3 1
    21   24   12 ar
    22   25   23 ar
    23   26   25 1
    24   27   30 1
    25   28   12 ar
    26   29   28 1
    27   30   57 1
    28   31   27 ar
    29   32   31 1
    30   33   13 ar
    31   34   33 1
    32   35   25 ar
    33   36   35 1
    34   37   11 ar
    35   38   37 1
    36   39   23 ar
    37   40   39 1
    38   41   27 ar
    39   42   41 1
    40   43    6 1
    41   44   43 1
    42   45   43 1
    43   46   43 1
    44   47   39 ar
    45   48   47 1
    46   49   35 ar
    47   50   13 ar
    48   51   50 1
    49   52   49 1
    50   53   24 1
    51   54   53 1
    52   55   53 1
    53   56   53 1
    54   57   58 1
    55   59   57 1
    56   60   57 1
    57   61   30 1
    58   62   61 1
    59   63   61 1
    60   64   61 1
    61   65   52 1
    62   66   65 1
    63   67   65 1
    64   68   65 1
    65   69   30 1
    66   70   69 1
    67   71   69 1
    68   72   69 1
    69   73   52 1
    70   74   73 1
    71   75   73 1
    72   76   73 1
    73   77   52 1
    74   78   77 1
    75   79   77 1
    76   80   77 1
    77    4   20 ar
    78    7   15 ar
    79    7   17 ar
    80   11   20 ar
    81   18   28 ar
    82   24   37 ar
    83   31   50 ar
    84   33   41 ar
    85   47   49 ar
@<TRIPOS>SUBSTRUCTURE
     1 RES1 1

@<TRIPOS>CRYSIN
  10.4320   11.2820   13.3200 102.3750  92.8920 106.5480   2 1

