# MOL2 file generated by ConQuest
# Please check atom types

@<TRIPOS>MOLECULE
XECJIZ01
    50    55     1
SMALL
NO_CHARGES
****
Generated from CSD

@<TRIPOS>ATOM
      1 C1        -0.0227    6.1825    1.1232 C.ar      1 RES1    0.0000
      2 C2         0.0980    4.7931    1.5021 C.ar      1 RES1    0.0000
      3 C3         0.8531    4.2647   -0.7780 C.ar      1 RES1    0.0000
      4 C4        -0.4389    7.1393    2.1013 C.ar      1 RES1    0.0000
      5 C5        -0.2507    4.3697    2.8049 C.ar      1 RES1    0.0000
      6 C6        -0.8064    6.7093    3.3811 C.ar      1 RES1    0.0000
      7 C7        -0.7393    5.3121    3.7349 C.ar      1 RES1    0.0000
      8 C8        -0.1222    2.9401    3.2148 C.ar      1 RES1    0.0000
      9 C9        -0.4869    8.5953    1.7589 C.ar      1 RES1    0.0000
     10 C10        0.5710    3.8793    0.5216 C.ar      1 RES1    0.0000
     11 C11        0.7040    5.6356   -1.1593 C.ar      1 RES1    0.0000
     12 C12       -1.3055    7.6323    4.3732 C.ar      1 RES1    0.0000
     13 C13        0.2896    6.5559   -0.1944 C.ar      1 RES1    0.0000
     14 C14       -1.7562    7.1951    5.5724 C.ar      1 RES1    0.0000
     15 C15        0.4240    9.4814    2.3264 C.ar      1 RES1    0.0000
     16 C16       -1.2354    4.9128    5.0178 C.ar      1 RES1    0.0000
     17 C17        0.9833    6.0096   -2.5007 C.ar      1 RES1    0.0000
     18 C18        0.8313    2.5381    4.1363 C.ar      1 RES1    0.0000
     19 C19       -1.4460    9.1032    0.9005 C.ar      1 RES1    0.0000
     20 C20       -0.9788    1.9715    2.6789 C.ar      1 RES1    0.0000
     21 C21       -0.5914   11.3310    1.1817 C.ar      1 RES1    0.0000
     22 C22        1.5287    3.7220   -3.0494 C.ar      1 RES1    0.0000
     23 C23        0.3628   10.8367    2.0390 C.ar      1 RES1    0.0000
     24 C24       -1.4942   10.4620    0.5994 C.ar      1 RES1    0.0000
     25 C25        1.2848    3.3267   -1.7764 C.ar      1 RES1    0.0000
     26 C26        0.0429    0.2698    4.0363 C.ar      1 RES1    0.0000
     27 C27       -1.7413    5.8179    5.8998 C.ar      1 RES1    0.0000
     28 C28       -0.8880    0.6466    3.0954 C.ar      1 RES1    0.0000
     29 C29        1.3818    5.0851   -3.4263 C.ar      1 RES1    0.0000
     30 C30        0.9193    1.2144    4.5624 C.ar      1 RES1    0.0000
     31 H1         0.6851    2.8935    0.8041 H         1 RES1    0.0000
     32 H2        -1.3274    8.6051    4.1228 H         1 RES1    0.0000
     33 H3        -1.2080    3.9571    5.2829 H         1 RES1    0.0000
     34 H4         0.8951    6.9561   -2.7569 H         1 RES1    0.0000
     35 H5         0.2159    7.4947   -0.4504 H         1 RES1    0.0000
     36 H6        -0.6408   12.3007    0.9508 H         1 RES1    0.0000
     37 H7         1.4920    3.2302    4.5903 H         1 RES1    0.0000
     38 H8        -1.6700    2.2703    1.9573 H         1 RES1    0.0000
     39 H9        -2.1017    8.4518    0.4595 H         1 RES1    0.0000
     40 H10        1.4257    2.3646   -1.4694 H         1 RES1    0.0000
     41 H11        1.0836    9.1208    2.9809 H         1 RES1    0.0000
     42 H12        1.5695    5.3949   -4.4436 H         1 RES1    0.0000
     43 H13       -2.1369    7.8967    6.2542 H         1 RES1    0.0000
     44 H14       -1.4871   -0.0506    2.6921 H         1 RES1    0.0000
     45 H15        0.9976   11.4718    2.4612 H         1 RES1    0.0000
     46 H16        0.1291   -0.7245    4.3912 H         1 RES1    0.0000
     47 H17       -2.2525   10.8106   -0.0535 H         1 RES1    0.0000
     48 H18       -2.0774    5.4718    6.8194 H         1 RES1    0.0000
     49 H19        1.8068    3.0173   -3.8146 H         1 RES1    0.0000
     50 H20        1.6642    0.9638    5.2806 H         1 RES1    0.0000
@<TRIPOS>BOND
     1    1    2 ar
     2    2    5 ar
     3    3   10 ar
     4    4    1 ar
     5    5    7 ar
     6    6    4 ar
     7    7    6 ar
     8    8    5 1
     9    9    4 1
    10   10    2 ar
    11   11    3 ar
    12   12    6 ar
    13   13    1 ar
    14   14   12 ar
    15   15    9 ar
    16   16    7 ar
    17   17   11 ar
    18   18    8 ar
    19   19    9 ar
    20   20    8 ar
    21   21   23 ar
    22   22   25 ar
    23   23   15 ar
    24   24   19 ar
    25   25    3 ar
    26   26   28 ar
    27   27   14 ar
    28   28   20 ar
    29   29   17 ar
    30   30   18 ar
    31   31   10 1
    32   32   12 1
    33   33   16 1
    34   34   17 1
    35   35   13 1
    36   36   21 1
    37   37   18 1
    38   38   20 1
    39   39   19 1
    40   40   25 1
    41   41   15 1
    42   42   29 1
    43   43   14 1
    44   44   28 1
    45   45   23 1
    46   46   26 1
    47   47   24 1
    48   48   27 1
    49   49   22 1
    50   50   30 1
    51   11   13 ar
    52   16   27 ar
    53   21   24 ar
    54   22   29 ar
    55   26   30 ar
@<TRIPOS>SUBSTRUCTURE
     1 RES1 1

@<TRIPOS>CRYSIN
   8.0950   11.0750   11.9010 100.4360  99.6330 107.4090   2 1

