# MOL2 file generated by ConQuest
# Please check atom types

@<TRIPOS>MOLECULE
XESTAT
    66    73     1
SMALL
NO_CHARGES
****
Generated from CSD

@<TRIPOS>ATOM
      1 C1        11.7736    4.2852   10.7664 C.ar      1 RES1    0.0000
      2 C2        14.8936   -0.3823   15.2048 C.ar      1 RES1    0.0000
      3 C3        11.0959    2.0849    7.6479 C.ar      1 RES1    0.0000
      4 C4        12.5124    4.2245   11.9605 C.ar      1 RES1    0.0000
      5 C5        10.7474    1.3985    5.3182 C.ar      1 RES1    0.0000
      6 C6        10.5266    2.3351    6.3823 C.ar      1 RES1    0.0000
      7 C7        16.0333   -0.7957   14.5221 C.ar      1 RES1    0.0000
      8 H1        16.4371   -1.6001   14.7562 H         1 RES1    0.0000
      9 C8        14.2519    0.8341   14.8385 C.ar      1 RES1    0.0000
     10 C9        14.7564    1.6069   13.7701 C.ar      1 RES1    0.0000
     11 C10       10.1945    1.6487    4.0157 C.ar      1 RES1    0.0000
     12 C11       11.4830    0.2077    5.5436 C.ar      1 RES1    0.0000
     13 C12       12.4443    5.3007   12.8556 C.ar      1 RES1    0.0000
     14 H2        12.9260    5.2663   13.6509 H         1 RES1    0.0000
     15 C13       10.4122    0.7296    2.9603 C.ar      1 RES1    0.0000
     16 C14       16.5820   -0.0371   13.5014 C.ar      1 RES1    0.0000
     17 C15       15.9515    1.1881   13.1330 C.ar      1 RES1    0.0000
     18 C16        9.4323    2.8287    3.7730 C.ar      1 RES1    0.0000
     19 C17       10.9442    6.4773   11.4252 C.ar      1 RES1    0.0000
     20 H3        10.4049    7.2157   11.2562 H         1 RES1    0.0000
     21 C18       13.3155    3.0256   12.3224 C.2       1 RES1    0.0000
     22 H4        13.2939    2.3236   11.7135 H         1 RES1    0.0000
     23 C19        9.7606    3.5239    6.0789 C.ar      1 RES1    0.0000
     24 H5         9.6238    4.1564    6.7464 H         1 RES1    0.0000
     25 C20       11.7924    0.8995    7.8408 C.ar      1 RES1    0.0000
     26 H6        12.1508    0.7195    8.6795 H         1 RES1    0.0000
     27 C21       11.8323    3.2346    9.7370 C.2       1 RES1    0.0000
     28 H7        12.5368    2.6318    9.8020 H         1 RES1    0.0000
     29 C22       11.0225    5.4328   10.5107 C.ar      1 RES1    0.0000
     30 H8        10.5604    5.5009    9.7067 H         1 RES1    0.0000
     31 C23       11.6793    6.3998   12.5825 C.ar      1 RES1    0.0000
     32 H9        11.6558    7.1051   13.1871 H         1 RES1    0.0000
     33 C24       10.9976    3.0539    8.7358 C.2       1 RES1    0.0000
     34 H10       10.2532    3.6122    8.7185 H         1 RES1    0.0000
     35 C25       11.6961   -0.6932    4.4578 C.ar      1 RES1    0.0000
     36 H11       12.2000   -1.4639    4.5944 H         1 RES1    0.0000
     37 C26       14.0430    2.8341   13.3822 C.2       1 RES1    0.0000
     38 H12       14.1195    3.5563   13.9652 H         1 RES1    0.0000
     39 C27        9.2426    3.7410    4.8609 C.ar      1 RES1    0.0000
     40 H13        8.7433    4.5117    4.7179 H         1 RES1    0.0000
     41 C28       14.3776   -1.1571   16.3013 C.ar      1 RES1    0.0000
     42 H14       14.7950   -1.9528   16.5419 H         1 RES1    0.0000
     43 C29       13.0821    1.1928   15.5884 C.ar      1 RES1    0.0000
     44 H15       12.6139    1.9588   15.3456 H         1 RES1    0.0000
     45 C30       11.9701   -0.0243    6.8222 C.ar      1 RES1    0.0000
     46 H16       12.4241   -0.8159    6.9999 H         1 RES1    0.0000
     47 C31       11.1824   -0.4450    3.2356 C.ar      1 RES1    0.0000
     48 H17       11.3327   -1.0566    2.5507 H         1 RES1    0.0000
     49 C32       13.2973   -0.7336   16.9775 C.ar      1 RES1    0.0000
     50 H18       12.9788   -1.2400   17.6883 H         1 RES1    0.0000
     51 C33       12.6347    0.4639   16.6286 C.ar      1 RES1    0.0000
     52 H19       11.8944    0.7471   17.1162 H         1 RES1    0.0000
     53 C34        8.9016    3.0263    2.5052 C.ar      1 RES1    0.0000
     54 H20        8.3902    3.7869    2.3449 H         1 RES1    0.0000
     55 C35        9.8586    0.9946    1.7121 C.ar      1 RES1    0.0000
     56 H21        9.9996    0.3938    1.0164 H         1 RES1    0.0000
     57 C36       17.8101   -0.4302   12.8382 C.ar      1 RES1    0.0000
     58 H22       18.2200   -1.2319   13.0679 H         1 RES1    0.0000
     59 C37        9.1039    2.1328    1.4802 C.ar      1 RES1    0.0000
     60 H23        8.7382    2.2913    0.6415 H         1 RES1    0.0000
     61 C38       18.3646    0.3547   11.8890 C.ar      1 RES1    0.0000
     62 H24       19.1408    0.0809   11.4556 H         1 RES1    0.0000
     63 C39       17.7711    1.5833   11.5553 C.ar      1 RES1    0.0000
     64 H25       18.1809    2.1362   10.9311 H         1 RES1    0.0000
     65 C40       16.5949    1.9764   12.1382 C.ar      1 RES1    0.0000
     66 H26       16.2063    2.7795   11.8760 H         1 RES1    0.0000
@<TRIPOS>BOND
     1    1    4 ar
     2    2    7 ar
     3    3    6 ar
     4    4   13 ar
     5    5    6 ar
     6    6   23 ar
     7    7    8 1
     8    9    2 ar
     9   10    9 ar
    10   11    5 ar
    11   12    5 ar
    12   13   14 1
    13   15   11 ar
    14   16    7 ar
    15   17   10 ar
    16   18   11 ar
    17   19   20 1
    18   21    4 1
    19   22   21 1
    20   23   24 1
    21   25    3 ar
    22   26   25 1
    23   27    1 1
    24   28   27 1
    25   29    1 ar
    26   30   29 1
    27   31   13 ar
    28   32   31 1
    29   33    3 1
    30   34   33 1
    31   35   12 ar
    32   36   35 1
    33   37   10 1
    34   38   37 1
    35   39   18 ar
    36   40   39 1
    37   41    2 ar
    38   42   41 1
    39   43    9 ar
    40   44   43 1
    41   45   12 ar
    42   46   45 1
    43   47   15 ar
    44   48   47 1
    45   49   41 ar
    46   50   49 1
    47   51   43 ar
    48   52   51 1
    49   53   18 ar
    50   54   53 1
    51   55   15 ar
    52   56   55 1
    53   57   16 ar
    54   58   57 1
    55   59   53 ar
    56   60   59 1
    57   61   57 ar
    58   62   61 1
    59   63   61 ar
    60   64   63 1
    61   65   17 ar
    62   66   65 1
    63   16   17 ar
    64   19   29 ar
    65   19   31 ar
    66   21   37 2
    67   23   39 ar
    68   25   45 ar
    69   27   33 2
    70   35   47 ar
    71   49   51 ar
    72   55   59 ar
    73   63   65 ar
@<TRIPOS>SUBSTRUCTURE
     1 RES1 1

@<TRIPOS>CRYSIN
  18.2610    6.7430   21.9060  90.0000  98.3900  90.0000  14 1

