# MOL2 file generated by ConQuest
# Please check atom types

@<TRIPOS>MOLECULE
XITPAS
    48    50     1
SMALL
NO_CHARGES
****
Generated from CSD

@<TRIPOS>ATOM
      1 C1         3.0605    1.8407    0.8094 C.ar      1 RES1    0.0000
      2 C2         1.8693    1.8014    0.1480 C.ar      1 RES1    0.0000
      3 C3         1.6300    0.8991   -0.9236 C.ar      1 RES1    0.0000
      4 C4         2.5754    0.0207   -1.3646 C.ar      1 RES1    0.0000
      5 C5         3.8564    0.0104   -0.6836 C.ar      1 RES1    0.0000
      6 C6         4.0915    0.9167    0.4007 C.ar      1 RES1    0.0000
      7 C7         4.8718   -0.8758   -1.0485 C.ar      1 RES1    0.0000
      8 C8         3.3322    2.7958    1.9476 C.3       1 RES1    0.0000
      9 C9         2.1908    3.7291    2.3227 C.3       1 RES1    0.0000
     10 C10        2.3329   -0.9271   -2.5155 C.3       1 RES1    0.0000
     11 C11        0.9428   -0.8665   -3.1313 C.3       1 RES1    0.0000
     12 H1         1.1549    2.4084    0.4214 H         1 RES1    0.0000
     13 H2         0.7647    0.9323   -1.3347 H         1 RES1    0.0000
     14 H3         4.7038   -1.4865   -1.7623 H         1 RES1    0.0000
     15 H4         4.1389    3.3769    1.7044 H         1 RES1    0.0000
     16 H5         3.6111    2.2582    2.7680 H         1 RES1    0.0000
     17 H6         2.5066    4.3351    3.0390 H         1 RES1    0.0000
     18 H7         1.4216    3.2526    2.6521 H         1 RES1    0.0000
     19 H8         1.9290    4.2885    1.5884 H         1 RES1    0.0000
     20 H9         3.0351   -0.7251   -3.2364 H         1 RES1    0.0000
     21 H10        2.5188   -1.8904   -2.2025 H         1 RES1    0.0000
     22 H11        0.7200    0.0932   -3.5090 H         1 RES1    0.0000
     23 H12        0.2569   -1.1084   -2.5221 H         1 RES1    0.0000
     24 H13        0.8996   -1.5331   -3.8693 H         1 RES1    0.0000
     25 C1B        7.1475   -1.8407   -0.8094 C.ar      1 RES1    0.0000
     26 C2B        8.3387   -1.8014   -0.1480 C.ar      1 RES1    0.0000
     27 C3B        8.5780   -0.8991    0.9236 C.ar      1 RES1    0.0000
     28 C4B        7.6326   -0.0207    1.3646 C.ar      1 RES1    0.0000
     29 C5B        6.3516   -0.0104    0.6836 C.ar      1 RES1    0.0000
     30 C6B        6.1165   -0.9167   -0.4007 C.ar      1 RES1    0.0000
     31 C7B        5.3362    0.8758    1.0485 C.ar      1 RES1    0.0000
     32 C8B        6.8758   -2.7958   -1.9476 C.3       1 RES1    0.0000
     33 C9B        8.0172   -3.7291   -2.3227 C.3       1 RES1    0.0000
     34 C10B       7.8751    0.9271    2.5155 C.3       1 RES1    0.0000
     35 C11B       9.2652    0.8665    3.1313 C.3       1 RES1    0.0000
     36 H1B        9.0531   -2.4084   -0.4214 H         1 RES1    0.0000
     37 H2B        9.4433   -0.9323    1.3347 H         1 RES1    0.0000
     38 H3B        5.5042    1.4865    1.7623 H         1 RES1    0.0000
     39 H4B        6.0691   -3.3769   -1.7044 H         1 RES1    0.0000
     40 H5B        6.5969   -2.2582   -2.7680 H         1 RES1    0.0000
     41 H6B        7.7014   -4.3351   -3.0390 H         1 RES1    0.0000
     42 H7B        8.7864   -3.2526   -2.6521 H         1 RES1    0.0000
     43 H8B        8.2790   -4.2885   -1.5884 H         1 RES1    0.0000
     44 H9B        7.1729    0.7251    3.2364 H         1 RES1    0.0000
     45 H10B       7.6892    1.8904    2.2025 H         1 RES1    0.0000
     46 H11B       9.4880   -0.0932    3.5090 H         1 RES1    0.0000
     47 H12B       9.9511    1.1084    2.5221 H         1 RES1    0.0000
     48 H13B       9.3084    1.5331    3.8693 H         1 RES1    0.0000
@<TRIPOS>BOND
     1    1    2 ar
     2    2    3 ar
     3    3    4 ar
     4    4    5 ar
     5    5    6 ar
     6    6    1 ar
     7    7    5 ar
     8    8    1 1
     9    9    8 1
    10   10    4 1
    11   11   10 1
    12   12    2 1
    13   13    3 1
    14   14    7 1
    15   15    8 1
    16   16    8 1
    17   17    9 1
    18   18    9 1
    19   19    9 1
    20   20   10 1
    21   21   10 1
    22   22   11 1
    23   23   11 1
    24   24   11 1
    25   25   26 ar
    26   26   27 ar
    27   27   28 ar
    28   28   29 ar
    29   29   30 ar
    30   30    7 ar
    31   31    6 ar
    32   32   25 1
    33   33   32 1
    34   34   28 1
    35   35   34 1
    36   36   26 1
    37   37   27 1
    38   38   31 1
    39   39   32 1
    40   40   32 1
    41   41   33 1
    42   42   33 1
    43   43   33 1
    44   44   34 1
    45   45   34 1
    46   46   35 1
    47   47   35 1
    48   48   35 1
    49   25   30 ar
    50   29   31 ar
@<TRIPOS>SUBSTRUCTURE
     1 RES1 1

@<TRIPOS>CRYSIN
  10.2080    5.1793   15.6810  90.0000  92.5870  90.0000 231 1

