# MOL2 file generated by ConQuest
# Please check atom types

@<TRIPOS>MOLECULE
XOZQOT
    33    39     1
SMALL
NO_CHARGES
****
Generated from CSD

@<TRIPOS>ATOM
      1 C1        -1.2479    0.6565    1.8795 C.ar      1 RES1    0.0000
      2 C2        -0.0813    1.4005    1.8779 C.ar      1 RES1    0.0000
      3 C3         0.0012    2.6475    2.4949 C.ar      1 RES1    0.0000
      4 C4         1.4995    2.9194    2.7830 C.3       1 RES1    0.0000
      5 C5        -2.4115    1.0934    2.4964 C.ar      1 RES1    0.0000
      6 C6        -2.3919    2.4021    2.9925 C.ar      1 RES1    0.0000
      7 C7        -1.1930    3.1759    2.9894 C.ar      1 RES1    0.0000
      8 H1         1.8885    3.6457    2.2415 H         1 RES1    0.0000
      9 H2         1.6556    3.2134    3.6973 H         1 RES1    0.0000
     10 H3        -3.1198    2.7235    3.5047 H         1 RES1    0.0000
     11 H4        -1.2230    3.9915    3.5355 H         1 RES1    0.0000
     12 C1C        1.1925    0.7525    1.8795 C.ar      1 RES1    0.0000
     13 C2C        1.2535   -0.6299    1.8779 C.ar      1 RES1    0.0000
     14 C1A        0.0554   -1.4090    1.8795 C.ar      1 RES1    0.0000
     15 C2A       -1.1722   -0.7706    1.8779 C.ar      1 RES1    0.0000
     16 C4A       -3.2781   -0.1611    2.7830 C.3       1 RES1    0.0000
     17 C3A       -2.2935   -1.3227    2.4949 C.ar      1 RES1    0.0000
     18 C7A       -2.1539   -2.6212    2.9894 C.ar      1 RES1    0.0000
     19 C6A       -0.8844   -3.2725    2.9925 C.ar      1 RES1    0.0000
     20 C5A        0.2588   -2.6351    2.4964 C.ar      1 RES1    0.0000
     21 C4C        1.7786   -2.7583    2.7830 C.3       1 RES1    0.0000
     22 C3C        2.2922   -1.3248    2.4949 C.ar      1 RES1    0.0000
     23 C7C        3.3470   -0.5548    2.9894 C.ar      1 RES1    0.0000
     24 C6C        3.2762    0.8704    2.9925 C.ar      1 RES1    0.0000
     25 C5C        2.1527    1.5417    2.4964 C.ar      1 RES1    0.0000
     26 H3C        3.9185    1.3401    3.5047 H         1 RES1    0.0000
     27 H4C        4.0683   -0.9366    3.5355 H         1 RES1    0.0000
     28 H1C        2.2130   -3.4584    2.2415 H         1 RES1    0.0000
     29 H2C        1.9551   -3.0405    3.6973 H         1 RES1    0.0000
     30 H3A       -0.7987   -4.0636    3.5047 H         1 RES1    0.0000
     31 H4A       -2.8453   -3.0549    3.5355 H         1 RES1    0.0000
     32 H1A       -4.1015   -0.1873    2.2415 H         1 RES1    0.0000
     33 H2A       -3.6107   -0.1729    3.6973 H         1 RES1    0.0000
@<TRIPOS>BOND
     1    1    2 ar
     2    2    3 ar
     3    3    4 1
     4    4    8 1
     5    5    1 ar
     6    6    5 ar
     7    7    3 ar
     8    9    4 1
     9   10    6 1
    10   11    7 1
    11   12    2 ar
    12   13   12 ar
    13   14   13 ar
    14   15    1 ar
    15   16    5 1
    16   17   15 ar
    17   18   17 ar
    18   19   18 ar
    19   20   14 ar
    20   21   20 1
    21   22   13 ar
    22   23   22 ar
    23   24   23 ar
    24   25    4 1
    25   26   24 1
    26   27   23 1
    27   28   21 1
    28   29   21 1
    29   30   19 1
    30   31   18 1
    31   32   16 1
    32   33   16 1
    33    6    7 ar
    34   12   25 ar
    35   14   15 ar
    36   16   17 1
    37   19   20 ar
    38   21   22 1
    39   24   25 ar
@<TRIPOS>SUBSTRUCTURE
     1 RES1 1

@<TRIPOS>CRYSIN
  16.6391   16.6391    7.7027  90.0000  90.0000 120.0000 236 1

