# MOL2 file generated by ConQuest
# Please check atom types

@<TRIPOS>MOLECULE
YOSYUC
    46    51     1
SMALL
NO_CHARGES
****
Generated from CSD

@<TRIPOS>ATOM
      1 C1         5.6481   12.0259    3.1307 C.ar      1 RES1    0.0000
      2 H1         5.6096   12.4137    2.2646 H         1 RES1    0.0000
      3 C2         5.2439   10.7260    3.3207 C.ar      1 RES1    0.0000
      4 H2         4.9224   10.2259    2.5802 H         1 RES1    0.0000
      5 C3         5.2966   10.1220    4.5901 C.ar      1 RES1    0.0000
      6 C4         4.8588    8.7560    4.8284 C.ar      1 RES1    0.0000
      7 C5         5.0454    8.2646    6.1112 C.ar      1 RES1    0.0000
      8 C6         4.6987    6.9639    6.5210 C.ar      1 RES1    0.0000
      9 C7         5.0254    6.8812    7.9572 C.ar      1 RES1    0.0000
     10 C8         4.6449    5.7101    8.7771 C.ar      1 RES1    0.0000
     11 C9         3.8474    5.8683    9.9167 C.ar      1 RES1    0.0000
     12 H3         3.6095    6.7416   10.2066 H         1 RES1    0.0000
     13 C10        3.4009    4.7637   10.6285 C.ar      1 RES1    0.0000
     14 H4         2.8468    4.8832   11.3907 H         1 RES1    0.0000
     15 C11        3.7610    3.4854   10.2297 C.ar      1 RES1    0.0000
     16 H5         3.4617    2.7298   10.7224 H         1 RES1    0.0000
     17 C12        7.4933    9.0096   12.0758 C.ar      1 RES1    0.0000
     18 H6         7.9529    9.2257   12.8786 H         1 RES1    0.0000
     19 C13        6.6714    9.9452   11.4670 C.ar      1 RES1    0.0000
     20 H7         6.5555   10.8011   11.8625 H         1 RES1    0.0000
     21 C14        6.0175    9.6373   10.2826 C.ar      1 RES1    0.0000
     22 H8         5.4591   10.2890    9.8755 H         1 RES1    0.0000
     23 C15        6.1656    8.3846    9.6789 C.ar      1 RES1    0.0000
     24 C16        5.5721    8.0741    8.3690 C.ar      1 RES1    0.0000
     25 C17        5.5815    8.9977    7.2124 C.ar      1 RES1    0.0000
     26 C18        5.9568   10.2891    6.9993 C.ar      1 RES1    0.0000
     27 H9         6.3117   10.8060    7.7133 H         1 RES1    0.0000
     28 C19        5.8146   10.8716    5.6875 C.ar      1 RES1    0.0000
     29 C20        6.1175   12.7787    4.2130 C.ar      1 RES1    0.0000
     30 H10        6.3796   13.6825    4.0836 H         1 RES1    0.0000
     31 C21        6.1998   12.2121    5.4624 C.ar      1 RES1    0.0000
     32 H11        6.5221   12.7316    6.1885 H         1 RES1    0.0000
     33 C22        4.2428    7.8726    3.9105 C.ar      1 RES1    0.0000
     34 H12        4.0705    8.1591    3.0210 H         1 RES1    0.0000
     35 C23        3.8901    6.5947    4.3023 C.ar      1 RES1    0.0000
     36 H13        3.4778    6.0203    3.6679 H         1 RES1    0.0000
     37 C24        4.1191    6.1109    5.6088 C.ar      1 RES1    0.0000
     38 H14        3.8808    5.2239    5.8514 H         1 RES1    0.0000
     39 C25        4.5601    3.3131    9.1104 C.ar      1 RES1    0.0000
     40 H15        4.8185    2.4390    8.8438 H         1 RES1    0.0000
     41 C26        4.9851    4.4146    8.3765 C.ar      1 RES1    0.0000
     42 H16        5.5108    4.2855    7.5954 H         1 RES1    0.0000
     43 C27        6.9844    7.4414   10.3237 C.ar      1 RES1    0.0000
     44 H17        7.0891    6.5767    9.9446 H         1 RES1    0.0000
     45 C28        7.6398    7.7535   11.5012 C.ar      1 RES1    0.0000
     46 H18        8.1928    7.1043   11.9197 H         1 RES1    0.0000
@<TRIPOS>BOND
     1    1    2 1
     2    3    1 ar
     3    4    3 1
     4    5    3 ar
     5    6    5 ar
     6    7    6 ar
     7    8    7 ar
     8    9    8 ar
     9   10    9 1
    10   11   10 ar
    11   12   11 1
    12   13   11 ar
    13   14   13 1
    14   15   13 ar
    15   16   15 1
    16   17   18 1
    17   19   17 ar
    18   20   19 1
    19   21   19 ar
    20   22   21 1
    21   23   21 ar
    22   24    9 ar
    23   25    7 ar
    24   26   25 ar
    25   27   26 1
    26   28    5 ar
    27   29    1 ar
    28   30   29 1
    29   31   28 ar
    30   32   31 1
    31   33    6 ar
    32   34   33 1
    33   35   33 ar
    34   36   35 1
    35   37    8 ar
    36   38   37 1
    37   39   15 ar
    38   40   39 1
    39   41   10 ar
    40   42   41 1
    41   43   23 ar
    42   44   43 1
    43   45   17 ar
    44   46   45 1
    45   23   24 1
    46   24   25 ar
    47   26   28 ar
    48   29   31 ar
    49   35   37 ar
    50   39   41 ar
    51   43   45 ar
@<TRIPOS>SUBSTRUCTURE
     1 RES1 1

@<TRIPOS>CRYSIN
   7.2764   10.6347   12.1668  83.1230  79.0330  74.6400   2 1

