# MOL2 file generated by ConQuest
# Please check atom types

@<TRIPOS>MOLECULE
YOSZAJ
    58    65     1
SMALL
NO_CHARGES
****
Generated from CSD

@<TRIPOS>ATOM
      1 C1        13.6642   12.8767   12.5912 C.ar      1 RES1    0.0000
      2 H1        14.4494   13.3888   12.7467 H         1 RES1    0.0000
      3 C2        13.4968   11.6709   13.2157 C.ar      1 RES1    0.0000
      4 H2        14.1887   11.3334   13.7709 H         1 RES1    0.0000
      5 C3        12.3088   10.9189   13.0475 C.ar      1 RES1    0.0000
      6 C4        12.2047    9.6053   13.5901 C.ar      1 RES1    0.0000
      7 H3        12.8743    9.2814   14.1817 H         1 RES1    0.0000
      8 C5        11.1529    8.8168   13.2647 C.ar      1 RES1    0.0000
      9 H4        11.1425    7.9128   13.5575 H         1 RES1    0.0000
     10 C6        10.0570    9.3124   12.4902 C.ar      1 RES1    0.0000
     11 C7         9.0555    8.3882   12.0715 C.ar      1 RES1    0.0000
     12 H5         9.1036    7.4769   12.3359 H         1 RES1    0.0000
     13 C8         8.0252    8.8246   11.2853 C.ar      1 RES1    0.0000
     14 C9         6.8447    8.1799   10.6869 C.ar      1 RES1    0.0000
     15 C10        6.5609    6.7418   10.8639 C.ar      1 RES1    0.0000
     16 C11        7.5536    5.7854   10.6273 C.ar      1 RES1    0.0000
     17 H6         8.4032    6.0605   10.3053 H         1 RES1    0.0000
     18 C12        7.3096    4.4365   10.8587 C.ar      1 RES1    0.0000
     19 H7         7.9859    3.7938   10.6802 H         1 RES1    0.0000
     20 C13        6.0748    4.0269   11.3504 C.ar      1 RES1    0.0000
     21 H8         5.9166    3.1086   11.5341 H         1 RES1    0.0000
     22 C14        2.3355    8.4072    8.1252 C.ar      1 RES1    0.0000
     23 H9         1.5015    8.2248    7.7097 H         1 RES1    0.0000
     24 C15        3.4182    7.5540    7.9311 C.ar      1 RES1    0.0000
     25 H10        3.3245    6.7918    7.3707 H         1 RES1    0.0000
     26 C16        4.6287    7.8071    8.5471 C.ar      1 RES1    0.0000
     27 H11        5.3633    7.2227    8.3985 H         1 RES1    0.0000
     28 C17        4.7845    8.9160    9.3887 C.ar      1 RES1    0.0000
     29 C18        6.0545    9.1410   10.1048 C.ar      1 RES1    0.0000
     30 C19        6.6720   10.4647   10.3566 C.ar      1 RES1    0.0000
     31 C20        6.3212   11.7608   10.0901 C.ar      1 RES1    0.0000
     32 H12        5.5840   11.9558    9.5250 H         1 RES1    0.0000
     33 C21        7.0916   12.8202   10.6833 C.ar      1 RES1    0.0000
     34 C22        8.2726   12.5633   11.4569 C.ar      1 RES1    0.0000
     35 C23        8.7785   11.1896   11.5231 C.ar      1 RES1    0.0000
     36 C24       10.0165   10.6912   12.1162 C.ar      1 RES1    0.0000
     37 C25       11.2467   11.4516   12.2638 C.ar      1 RES1    0.0000
     38 C26       11.5021   12.6530   11.5538 C.ar      1 RES1    0.0000
     39 H13       10.8482   12.9810   10.9475 H         1 RES1    0.0000
     40 C27       12.6726   13.3551   11.7197 C.ar      1 RES1    0.0000
     41 H14       12.8103   14.1664   11.2435 H         1 RES1    0.0000
     42 C28        5.0717    4.9672   11.5716 C.ar      1 RES1    0.0000
     43 H15        4.2200    4.6869   11.8874 H         1 RES1    0.0000
     44 C29        5.3112    6.3078   11.3323 C.ar      1 RES1    0.0000
     45 H16        4.6214    6.9420   11.4874 H         1 RES1    0.0000
     46 C30        7.8966   10.2211   11.0618 C.ar      1 RES1    0.0000
     47 C31        8.7865   13.6270   12.2329 C.ar      1 RES1    0.0000
     48 H17        9.5162   13.4614   12.8184 H         1 RES1    0.0000
     49 C32        8.2574   14.8957   12.1628 C.ar      1 RES1    0.0000
     50 H18        8.6303   15.5911   12.6911 H         1 RES1    0.0000
     51 C33        7.1695   15.1695   11.3147 C.ar      1 RES1    0.0000
     52 H19        6.8377   16.0550   11.2345 H         1 RES1    0.0000
     53 C34        6.5908   14.1472   10.6036 C.ar      1 RES1    0.0000
     54 H20        5.8415   14.3315   10.0488 H         1 RES1    0.0000
     55 C35        3.6952    9.7791    9.5575 C.ar      1 RES1    0.0000
     56 H21        3.7850   10.5476   10.1080 H         1 RES1    0.0000
     57 C36        2.4850    9.5244    8.9286 C.ar      1 RES1    0.0000
     58 H22        1.7542   10.1200    9.0497 H         1 RES1    0.0000
@<TRIPOS>BOND
     1    1    2 1
     2    3    1 ar
     3    4    3 1
     4    5    3 ar
     5    6    5 ar
     6    7    6 1
     7    8    6 ar
     8    9    8 1
     9   10    8 ar
    10   11   10 ar
    11   12   11 1
    12   13   11 ar
    13   14   13 ar
    14   15   14 1
    15   16   15 ar
    16   17   16 1
    17   18   16 ar
    18   19   18 1
    19   20   18 ar
    20   21   20 1
    21   22   23 1
    22   24   22 ar
    23   25   24 1
    24   26   24 ar
    25   27   26 1
    26   28   26 ar
    27   29   14 ar
    28   30   29 ar
    29   31   30 ar
    30   32   31 1
    31   33   31 ar
    32   34   33 ar
    33   35   34 ar
    34   36   10 ar
    35   37    5 ar
    36   38   37 ar
    37   39   38 1
    38   40    1 ar
    39   41   40 1
    40   42   20 ar
    41   43   42 1
    42   44   15 ar
    43   45   44 1
    44   46   13 ar
    45   47   34 ar
    46   48   47 1
    47   49   47 ar
    48   50   49 1
    49   51   49 ar
    50   52   51 1
    51   53   33 ar
    52   54   53 1
    53   55   28 ar
    54   56   55 1
    55   57   22 ar
    56   58   57 1
    57   28   29 1
    58   30   46 ar
    59   35   36 ar
    60   35   46 ar
    61   36   37 ar
    62   38   40 ar
    63   42   44 ar
    64   51   53 ar
    65   55   57 ar
@<TRIPOS>SUBSTRUCTURE
     1 RES1 1

@<TRIPOS>CRYSIN
  15.9909   16.5090   17.9379  90.0000  90.0000  90.0000  61 1

