# MOL2 file generated by ConQuest
# Please check atom types

@<TRIPOS>MOLECULE
YOSZOX
    50    57     1
SMALL
NO_CHARGES
****
Generated from CSD

@<TRIPOS>ATOM
      1 C1         0.3563   16.3437    9.9139 C.ar      1 RES1    0.0000
      2 H1         0.5231   16.5171   10.8330 H         1 RES1    0.0000
      3 C2        -0.3236   17.2969    9.1409 C.ar      1 RES1    0.0000
      4 H2        -0.6568   18.0912    9.5416 H         1 RES1    0.0000
      5 C3        -0.5001   17.0663    7.7999 C.ar      1 RES1    0.0000
      6 H3        -0.9402   17.7208    7.2704 H         1 RES1    0.0000
      7 C4        -0.0417   15.8749    7.1835 C.ar      1 RES1    0.0000
      8 C5        -0.1173   15.7490    5.7580 C.ar      1 RES1    0.0000
      9 H4        -0.5524   16.4190    5.2448 H         1 RES1    0.0000
     10 C6         0.4362   14.6645    5.1358 C.ar      1 RES1    0.0000
     11 C7         0.6440   14.2293    3.7356 C.ar      1 RES1    0.0000
     12 C8         0.2818   14.8871    2.5067 C.ar      1 RES1    0.0000
     13 C9        -0.4015   16.1261    2.4700 C.ar      1 RES1    0.0000
     14 H5        -0.6522   16.5407    3.2879 H         1 RES1    0.0000
     15 C10       -0.7118   16.7471    1.2808 C.ar      1 RES1    0.0000
     16 H6        -1.1609   17.5847    1.2808 H         1 RES1    0.0000
     17 C11       -0.3618   16.1369    0.0705 C.ar      1 RES1    0.0000
     18 H7        -0.5699   16.5625   -0.7527 H         1 RES1    0.0000
     19 C12        0.2826   14.9233    0.0724 C.ar      1 RES1    0.0000
     20 H8         0.5025   14.5162   -0.7579 H         1 RES1    0.0000
     21 C13        0.6292   14.2607    1.2761 C.ar      1 RES1    0.0000
     22 C14        0.9746   13.6175    5.9597 C.ar      1 RES1    0.0000
     23 C15        0.7835   15.1604    9.3543 C.ar      1 RES1    0.0000
     24 H9         1.2463   14.5325    9.8981 H         1 RES1    0.0000
     25 C16        0.5528   14.8530    7.9932 C.ar      1 RES1    0.0000
     26 C17        0.9746   13.6175    7.3446 C.ar      1 RES1    0.0000
     27 C1C        1.5928   10.8912    9.9139 C.ar      1 RES1    0.0000
     28 H1C        1.4260   10.7178   10.8330 H         1 RES1    0.0000
     29 C2C        2.2727    9.9380    9.1409 C.ar      1 RES1    0.0000
     30 H2C        2.6059    9.1437    9.5416 H         1 RES1    0.0000
     31 C3C        2.4492   10.1686    7.7999 C.ar      1 RES1    0.0000
     32 H3C        2.8893    9.5141    7.2704 H         1 RES1    0.0000
     33 C4C        1.9908   11.3600    7.1835 C.ar      1 RES1    0.0000
     34 C5C        2.0664   11.4859    5.7580 C.ar      1 RES1    0.0000
     35 H4C        2.5015   10.8159    5.2448 H         1 RES1    0.0000
     36 C6C        1.5129   12.5704    5.1358 C.ar      1 RES1    0.0000
     37 C7C        1.3051   13.0056    3.7356 C.ar      1 RES1    0.0000
     38 C8C        1.6673   12.3478    2.5067 C.ar      1 RES1    0.0000
     39 C9C        2.3506   11.1088    2.4700 C.ar      1 RES1    0.0000
     40 H5C        2.6013   10.6942    3.2879 H         1 RES1    0.0000
     41 C10C       2.6609   10.4878    1.2808 C.ar      1 RES1    0.0000
     42 H6C        3.1100    9.6502    1.2808 H         1 RES1    0.0000
     43 C11C       2.3109   11.0980    0.0705 C.ar      1 RES1    0.0000
     44 H7C        2.5190   10.6724   -0.7527 H         1 RES1    0.0000
     45 C12C       1.6665   12.3116    0.0724 C.ar      1 RES1    0.0000
     46 H8C        1.4466   12.7187   -0.7579 H         1 RES1    0.0000
     47 C13C       1.3199   12.9742    1.2761 C.ar      1 RES1    0.0000
     48 C15C       1.1656   12.0745    9.3543 C.ar      1 RES1    0.0000
     49 H9C        0.7028   12.7024    9.8981 H         1 RES1    0.0000
     50 C16C       1.3963   12.3819    7.9932 C.ar      1 RES1    0.0000
@<TRIPOS>BOND
     1    1    2 1
     2    3    1 ar
     3    4    3 1
     4    5    3 ar
     5    6    5 1
     6    7    5 ar
     7    8    7 ar
     8    9    8 1
     9   10    8 ar
    10   11   10 ar
    11   12   11 ar
    12   13   12 ar
    13   14   13 1
    14   15   13 ar
    15   16   15 1
    16   17   15 ar
    17   18   17 1
    18   19   17 ar
    19   20   19 1
    20   21   12 ar
    21   22   10 ar
    22   23    1 ar
    23   24   23 1
    24   25    7 ar
    25   26   22 ar
    26   27   28 1
    27   29   27 ar
    28   30   29 1
    29   31   29 ar
    30   32   31 1
    31   33   31 ar
    32   34   33 ar
    33   35   34 1
    34   36   22 ar
    35   37   11 ar
    36   38   37 ar
    37   39   38 ar
    38   40   39 1
    39   41   39 ar
    40   42   41 1
    41   43   41 ar
    42   44   43 1
    43   45   43 ar
    44   46   45 1
    45   47   21 ar
    46   48   27 ar
    47   49   48 1
    48   50   26 ar
    49   19   21 ar
    50   23   25 ar
    51   25   26 ar
    52   33   50 ar
    53   34   36 ar
    54   36   37 ar
    55   38   47 ar
    56   45   47 ar
    57   48   50 ar
@<TRIPOS>SUBSTRUCTURE
     1 RES1 1

@<TRIPOS>CRYSIN
   3.8982   18.1566   26.4090  90.0000  90.0000  90.0000  56 1

