# MOL2 file generated by ConQuest
# Please check atom types

@<TRIPOS>MOLECULE
YUNYEN
    56    65     1
SMALL
NO_CHARGES
****
Generated from CSD

@<TRIPOS>ATOM
      1 C1         5.6401    9.7953   20.5998 C.3       1 RES1    0.0000
      2 H1         6.2688   10.4635   20.9421 H         1 RES1    0.0000
      3 H2         5.0590   10.2067   19.9264 H         1 RES1    0.0000
      4 H3         6.1386    9.0553   20.1925 H         1 RES1    0.0000
      5 C2         4.7981    9.2690   21.7356 C.ar      1 RES1    0.0000
      6 C3         4.9992    9.7107   23.0305 C.ar      1 RES1    0.0000
      7 H4         5.6756   10.3550   23.1988 H         1 RES1    0.0000
      8 C4         4.2277    9.2291   24.1041 C.ar      1 RES1    0.0000
      9 C5         3.2327    8.2595   23.8510 C.ar      1 RES1    0.0000
     10 C6         3.0270    7.7810   22.5177 C.ar      1 RES1    0.0000
     11 C7         3.8254    8.3073   21.5096 C.ar      1 RES1    0.0000
     12 H5         3.6983    7.9931   20.6223 H         1 RES1    0.0000
     13 C8         2.4236    7.7428   24.9356 C.ar      1 RES1    0.0000
     14 C9         1.4195    6.7604   24.6652 C.ar      1 RES1    0.0000
     15 C10        1.2143    6.2867   23.3237 C.ar      1 RES1    0.0000
     16 C11        2.0082    6.7747   22.2544 C.ar      1 RES1    0.0000
     17 C12        1.7696    6.2644   20.9716 C.ar      1 RES1    0.0000
     18 H6         2.2924    6.5817   20.2436 H         1 RES1    0.0000
     19 C13        0.7918    5.3075   20.7303 C.ar      1 RES1    0.0000
     20 H7         0.6606    4.9790   19.8496 H         1 RES1    0.0000
     21 C14        0.0127    4.8322   21.7558 C.ar      1 RES1    0.0000
     22 H8        -0.6637    4.1895   21.5818 H         1 RES1    0.0000
     23 C15        0.2183    5.3027   23.0688 C.ar      1 RES1    0.0000
     24 C16       -0.5927    4.8578   24.1450 C.ar      1 RES1    0.0000
     25 H9        -1.2853    4.2294   23.9766 H         1 RES1    0.0000
     26 C17       -0.3992    5.3107   25.4064 C.ar      1 RES1    0.0000
     27 H10       -0.9504    4.9838   26.1080 H         1 RES1    0.0000
     28 C18        0.6160    6.2692   25.7037 C.ar      1 RES1    0.0000
     29 C1D       -0.5740    6.1527   30.5722 C.3       1 RES1    0.0000
     30 H1D       -1.2027    5.4845   30.2299 H         1 RES1    0.0000
     31 H2D        0.0071    5.7413   31.2456 H         1 RES1    0.0000
     32 H3D       -1.0725    6.8927   30.9795 H         1 RES1    0.0000
     33 C2D        0.2680    6.6790   29.4364 C.ar      1 RES1    0.0000
     34 C3D        0.0669    6.2373   28.1415 C.ar      1 RES1    0.0000
     35 H4D       -0.6095    5.5930   27.9732 H         1 RES1    0.0000
     36 C4D        0.8384    6.7189   27.0679 C.ar      1 RES1    0.0000
     37 C5D        1.8334    7.6885   27.3210 C.ar      1 RES1    0.0000
     38 C6D        2.0391    8.1670   28.6543 C.ar      1 RES1    0.0000
     39 C7D        1.2407    7.6407   29.6624 C.ar      1 RES1    0.0000
     40 H5D        1.3678    7.9549   30.5497 H         1 RES1    0.0000
     41 C8D        2.6425    8.2052   26.2364 C.ar      1 RES1    0.0000
     42 C9D        3.6466    9.1876   26.5068 C.ar      1 RES1    0.0000
     43 C10D       3.8518    9.6613   27.8483 C.ar      1 RES1    0.0000
     44 C11D       3.0579    9.1733   28.9176 C.ar      1 RES1    0.0000
     45 C12D       3.2965    9.6836   30.2004 C.ar      1 RES1    0.0000
     46 H6D        2.7737    9.3663   30.9284 H         1 RES1    0.0000
     47 C13D       4.2743   10.6405   30.4417 C.ar      1 RES1    0.0000
     48 H7D        4.4055   10.9690   31.3224 H         1 RES1    0.0000
     49 C14D       5.0534   11.1158   29.4162 C.ar      1 RES1    0.0000
     50 H8D        5.7298   11.7585   29.5902 H         1 RES1    0.0000
     51 C15D       4.8478   10.6453   28.1032 C.ar      1 RES1    0.0000
     52 C16D       5.6588   11.0902   27.0270 C.ar      1 RES1    0.0000
     53 H9D        6.3514   11.7186   27.1954 H         1 RES1    0.0000
     54 C17D       5.4653   10.6373   25.7656 C.ar      1 RES1    0.0000
     55 H10D       6.0165   10.9643   25.0640 H         1 RES1    0.0000
     56 C18D       4.4501    9.6788   25.4683 C.ar      1 RES1    0.0000
@<TRIPOS>BOND
     1    1    2 1
     2    3    1 1
     3    4    1 1
     4    5    1 1
     5    6    5 ar
     6    7    6 1
     7    8    6 ar
     8    9    8 ar
     9   10    9 ar
    10   11    5 ar
    11   12   11 1
    12   13    9 ar
    13   14   13 ar
    14   15   14 ar
    15   16   10 ar
    16   17   16 ar
    17   18   17 1
    18   19   17 ar
    19   20   19 1
    20   21   19 ar
    21   22   21 1
    22   23   15 ar
    23   24   23 ar
    24   25   24 1
    25   26   24 ar
    26   27   26 1
    27   28   14 ar
    28   29   30 1
    29   31   29 1
    30   32   29 1
    31   33   29 1
    32   34   33 ar
    33   35   34 1
    34   36   28 ar
    35   37   36 ar
    36   38   37 ar
    37   39   33 ar
    38   40   39 1
    39   41   13 ar
    40   42   41 ar
    41   43   42 ar
    42   44   38 ar
    43   45   44 ar
    44   46   45 1
    45   47   45 ar
    46   48   47 1
    47   49   47 ar
    48   50   49 1
    49   51   43 ar
    50   52   51 ar
    51   53   52 1
    52   54   52 ar
    53   55   54 1
    54   56    8 ar
    55   10   11 ar
    56   15   16 ar
    57   21   23 ar
    58   26   28 ar
    59   34   36 ar
    60   37   41 ar
    61   38   39 ar
    62   42   56 ar
    63   43   44 ar
    64   49   51 ar
    65   54   56 ar
@<TRIPOS>SUBSTRUCTURE
     1 RES1 1

@<TRIPOS>CRYSIN
   5.0661   15.9480   25.5860  90.0000  90.0000  90.0000  61 1

