# MOL2 file generated by ConQuest
# Please check atom types

@<TRIPOS>MOLECULE
YUNYUD
    74    83     1
SMALL
NO_CHARGES
****
Generated from CSD

@<TRIPOS>ATOM
      1 C1         0.0527    2.9494    2.7816 C.3       1 RES1    0.0000
      2 C2         1.1814    3.3174    1.8387 C.3       1 RES1    0.0000
      3 H1         1.9786    2.7925    2.0630 H         1 RES1    0.0000
      4 H2         1.3848    4.2720    1.9281 H         1 RES1    0.0000
      5 H3         0.9125    3.1264    0.9160 H         1 RES1    0.0000
      6 C3        -1.1620    3.7361    2.4409 C.3       1 RES1    0.0000
      7 H4        -1.4165    3.5549    1.5114 H         1 RES1    0.0000
      8 H5        -0.9698    4.6914    2.5455 H         1 RES1    0.0000
      9 H6        -1.8951    3.4804    3.0380 H         1 RES1    0.0000
     10 C4        -0.2408    1.4887    2.5337 C.3       1 RES1    0.0000
     11 H7         0.5541    0.9559    2.7479 H         1 RES1    0.0000
     12 H8        -0.4744    1.3587    1.5907 H         1 RES1    0.0000
     13 H9        -0.9880    1.2043    3.0988 H         1 RES1    0.0000
     14 C5         0.4365    3.2429    4.2458 C.ar      1 RES1    0.0000
     15 C6         0.0005    2.4244    5.2833 C.ar      1 RES1    0.0000
     16 H10       -0.5403    1.6731    5.0724 H         1 RES1    0.0000
     17 C7         0.3223    2.6600    6.6176 C.ar      1 RES1    0.0000
     18 C8         1.1555    3.7654    6.9212 C.ar      1 RES1    0.0000
     19 C9         1.5924    4.6291    5.8855 C.ar      1 RES1    0.0000
     20 C10        1.2238    4.3313    4.5528 C.ar      1 RES1    0.0000
     21 H11        1.5274    4.8959    3.8511 H         1 RES1    0.0000
     22 C11        1.5456    4.0285    8.2909 C.ar      1 RES1    0.0000
     23 C12        1.0889    3.1618    9.3435 C.ar      1 RES1    0.0000
     24 C13        0.2798    2.0252    9.0163 C.ar      1 RES1    0.0000
     25 C14       -0.1206    1.7591    7.6837 C.ar      1 RES1    0.0000
     26 C15       -0.9173    0.6427    7.4441 C.ar      1 RES1    0.0000
     27 H12       -1.2024    0.4663    6.5552 H         1 RES1    0.0000
     28 C16       -1.3071   -0.2228    8.4579 C.ar      1 RES1    0.0000
     29 H13       -1.8509   -0.9760    8.2572 H         1 RES1    0.0000
     30 C17       -0.9090    0.0128    9.7416 C.ar      1 RES1    0.0000
     31 H14       -1.1624   -0.5908   10.4299 H         1 RES1    0.0000
     32 C18       -0.1253    1.1439   10.0571 C.ar      1 RES1    0.0000
     33 C19        0.3016    1.3996   11.3846 C.ar      1 RES1    0.0000
     34 H15        0.0399    0.8124   12.0830 H         1 RES1    0.0000
     35 C20        1.0713    2.4653   11.6630 C.ar      1 RES1    0.0000
     36 H16        1.3490    2.6057   12.5604 H         1 RES1    0.0000
     37 C21        1.4909    3.3931   10.6627 C.ar      1 RES1    0.0000
     38 C1F        3.8642    6.2063   14.0870 C.3       1 RES1    0.0000
     39 C2F        2.7356    5.8383   15.0300 C.3       1 RES1    0.0000
     40 H1F        1.9384    6.3632   14.8056 H         1 RES1    0.0000
     41 H2F        2.5322    4.8837   14.9406 H         1 RES1    0.0000
     42 H3F        3.0045    6.0293   15.9527 H         1 RES1    0.0000
     43 C3F        5.0790    5.4196   14.4278 C.3       1 RES1    0.0000
     44 H4F        5.3335    5.6008   15.3572 H         1 RES1    0.0000
     45 H5F        4.8868    4.4643   14.3232 H         1 RES1    0.0000
     46 H6F        5.8121    5.6753   13.8306 H         1 RES1    0.0000
     47 C4F        4.1578    7.6670   14.3350 C.3       1 RES1    0.0000
     48 H7F        3.3629    8.1998   14.1207 H         1 RES1    0.0000
     49 H8F        4.3914    7.7970   15.2779 H         1 RES1    0.0000
     50 H9F        4.9050    7.9514   13.7699 H         1 RES1    0.0000
     51 C5F        3.4805    5.9128   12.6228 C.ar      1 RES1    0.0000
     52 C6F        3.9165    6.7313   11.5854 C.ar      1 RES1    0.0000
     53 H10F       4.4573    7.4826   11.7962 H         1 RES1    0.0000
     54 C7F        3.5947    6.4957   10.2511 C.ar      1 RES1    0.0000
     55 C8F        2.7615    5.3903    9.9474 C.ar      1 RES1    0.0000
     56 C9F        2.3246    4.5266   10.9832 C.ar      1 RES1    0.0000
     57 C10F       2.6932    4.8244   12.3158 C.ar      1 RES1    0.0000
     58 H11F       2.3896    4.2598   13.0175 H         1 RES1    0.0000
     59 C11F       2.3714    5.1272    8.5777 C.ar      1 RES1    0.0000
     60 C12F       2.8281    5.9939    7.5251 C.ar      1 RES1    0.0000
     61 C13F       3.6372    7.1305    7.8524 C.ar      1 RES1    0.0000
     62 C14F       4.0376    7.3966    9.1850 C.ar      1 RES1    0.0000
     63 C15F       4.8343    8.5130    9.4245 C.ar      1 RES1    0.0000
     64 H12F       5.1194    8.6894   10.3135 H         1 RES1    0.0000
     65 C16F       5.2241    9.3785    8.4107 C.ar      1 RES1    0.0000
     66 H13F       5.7679   10.1317    8.6114 H         1 RES1    0.0000
     67 C17F       4.8260    9.1429    7.1270 C.ar      1 RES1    0.0000
     68 H14F       5.0794    9.7465    6.4388 H         1 RES1    0.0000
     69 C18F       4.0423    8.0118    6.8116 C.ar      1 RES1    0.0000
     70 C19F       3.6154    7.7561    5.4840 C.ar      1 RES1    0.0000
     71 H15F       3.8771    8.3433    4.7856 H         1 RES1    0.0000
     72 C20F       2.8456    6.6904    5.2057 C.ar      1 RES1    0.0000
     73 H16F       2.5679    6.5500    4.3083 H         1 RES1    0.0000
     74 C21F       2.4261    5.7626    6.2060 C.ar      1 RES1    0.0000
@<TRIPOS>BOND
     1    1    2 1
     2    2    3 1
     3    4    2 1
     4    5    2 1
     5    6    1 1
     6    7    6 1
     7    8    6 1
     8    9    6 1
     9   10    1 1
    10   11   10 1
    11   12   10 1
    12   13   10 1
    13   14    1 1
    14   15   14 ar
    15   16   15 1
    16   17   15 ar
    17   18   17 ar
    18   19   18 ar
    19   20   14 ar
    20   21   20 1
    21   22   18 ar
    22   23   22 ar
    23   24   23 ar
    24   25   17 ar
    25   26   25 ar
    26   27   26 1
    27   28   26 ar
    28   29   28 1
    29   30   28 ar
    30   31   30 1
    31   32   24 ar
    32   33   32 ar
    33   34   33 1
    34   35   33 ar
    35   36   35 1
    36   37   23 ar
    37   38   39 1
    38   39   40 1
    39   41   39 1
    40   42   39 1
    41   43   38 1
    42   44   43 1
    43   45   43 1
    44   46   43 1
    45   47   38 1
    46   48   47 1
    47   49   47 1
    48   50   47 1
    49   51   38 1
    50   52   51 ar
    51   53   52 1
    52   54   52 ar
    53   55   54 ar
    54   56   37 ar
    55   57   51 ar
    56   58   57 1
    57   59   22 ar
    58   60   59 ar
    59   61   60 ar
    60   62   54 ar
    61   63   62 ar
    62   64   63 1
    63   65   63 ar
    64   66   65 1
    65   67   65 ar
    66   68   67 1
    67   69   61 ar
    68   70   69 ar
    69   71   70 1
    70   72   70 ar
    71   73   72 1
    72   74   19 ar
    73   19   20 ar
    74   24   25 ar
    75   30   32 ar
    76   35   37 ar
    77   55   56 ar
    78   55   59 ar
    79   56   57 ar
    80   60   74 ar
    81   61   62 ar
    82   67   69 ar
    83   72   74 ar
@<TRIPOS>SUBSTRUCTURE
     1 RES1 1

@<TRIPOS>CRYSIN
  26.6590    6.1038   19.3170  90.0000 119.1610  90.0000  15 1

