# MOL2 file generated by ConQuest
# Please check atom types

@<TRIPOS>MOLECULE
ZATQAO
    62    67     1
SMALL
NO_CHARGES
****
Generated from CSD

@<TRIPOS>ATOM
      1 C1         0.2387    6.7903    4.1020 C.ar      1 RES1    0.0000
      2 C2         1.5135    6.1532    4.0972 C.ar      1 RES1    0.0000
      3 C3         8.6925    6.1555   22.6471 C.ar      1 RES1    0.0000
      4 C4         4.8348    6.4252   14.0201 C.ar      1 RES1    0.0000
      5 C5         4.1371    6.4560   12.7081 C.ar      1 RES1    0.0000
      6 C6         7.4279    6.7993   22.6321 C.ar      1 RES1    0.0000
      7 C7         1.6036    6.2727    6.5218 C.ar      1 RES1    0.0000
      8 C8         2.1569    5.8903    5.3258 C.ar      1 RES1    0.0000
      9 H1         2.9745    5.4478    5.3258 H         1 RES1    0.0000
     10 C9         7.3658    6.6430   20.1995 C.ar      1 RES1    0.0000
     11 C10        6.8030    7.0419   21.3880 C.ar      1 RES1    0.0000
     12 H2         5.9854    7.4852   21.3725 H         1 RES1    0.0000
     13 C11        6.7177    5.7634   15.3924 C.ar      1 RES1    0.0000
     14 H3         7.5407    5.3352   15.4538 H         1 RES1    0.0000
     15 C12        2.8050    6.5416   10.1959 C.ar      1 RES1    0.0000
     16 C13        4.2827    7.0104   15.1664 C.ar      1 RES1    0.0000
     17 H4         3.4591    7.4371   15.1066 H         1 RES1    0.0000
     18 C14        9.2959    5.8092   21.4142 C.ar      1 RES1    0.0000
     19 H5        10.1392    5.4170   21.4099 H         1 RES1    0.0000
     20 C15       -0.3372    7.1223    5.3434 C.ar      1 RES1    0.0000
     21 H6        -1.1811    7.5122    5.3632 H         1 RES1    0.0000
     22 C16        2.1032    5.8174    2.8504 C.ar      1 RES1    0.0000
     23 H7         2.9244    5.3810    2.8312 H         1 RES1    0.0000
     24 C17        8.6526    6.0458   20.2385 C.ar      1 RES1    0.0000
     25 H8         9.0667    5.8092   19.4388 H         1 RES1    0.0000
     26 C18        2.2565    7.1058   11.3353 C.ar      1 RES1    0.0000
     27 H9         1.4288    7.5250   11.2712 H         1 RES1    0.0000
     28 C19        4.6891    5.8693   11.5607 C.ar      1 RES1    0.0000
     29 H10        5.5092    5.4351   11.6238 H         1 RES1    0.0000
     30 C20        6.0785    5.8092   14.1734 C.ar      1 RES1    0.0000
     31 H11        6.4855    5.4193   13.4346 H         1 RES1    0.0000
     32 C21        6.1645    6.3418   16.5318 C.ar      1 RES1    0.0000
     33 C22        2.8927    7.0697   12.5580 C.ar      1 RES1    0.0000
     34 H12        2.4857    7.4619   13.2957 H         1 RES1    0.0000
     35 C23        4.9291    6.9713   16.3865 C.ar      1 RES1    0.0000
     36 H13        4.5328    7.3732   17.1258 H         1 RES1    0.0000
     37 C24        6.6061    6.8098   18.9522 C.2       1 RES1    0.0000
     38 H14        5.8487    7.3492   18.9848 H         1 RES1    0.0000
     39 C25        2.0602    6.6348    8.9395 C.2       1 RES1    0.0000
     40 H15        1.2718    7.1276    8.9689 H         1 RES1    0.0000
     41 C26        9.2971    5.8708   23.8992 C.ar      1 RES1    0.0000
     42 H16       10.1267    5.4516   23.9259 H         1 RES1    0.0000
     43 C27        6.8186    7.1411   23.8613 C.ar      1 RES1    0.0000
     44 H17        5.9926    7.5678   23.8618 H         1 RES1    0.0000
     45 C28        2.3646    6.1082    7.7638 C.2       1 RES1    0.0000
     46 H18        3.1321    5.5853    7.7242 H         1 RES1    0.0000
     47 C29        0.3121    6.8857    6.5090 C.ar      1 RES1    0.0000
     48 H19       -0.0889    7.1253    7.3129 H         1 RES1    0.0000
     49 C30       -0.3760    7.0840    2.8675 C.ar      1 RES1    0.0000
     50 H20       -1.2067    7.5024    2.8579 H         1 RES1    0.0000
     51 C31        4.0482    5.9189   10.3396 C.ar      1 RES1    0.0000
     52 H21        4.4510    5.5297    9.5992 H         1 RES1    0.0000
     53 C32        6.9099    6.2554   17.7893 C.2       1 RES1    0.0000
     54 H22        7.6905    5.7506   17.7668 H         1 RES1    0.0000
     55 C33        8.6776    6.2051   25.0595 C.ar      1 RES1    0.0000
     56 H23        9.0829    6.0045   25.8703 H         1 RES1    0.0000
     57 C34        7.4309    6.8504   25.0461 C.ar      1 RES1    0.0000
     58 H24        7.0203    7.0802   25.8490 H         1 RES1    0.0000
     59 C35        1.4729    6.1307    1.6832 C.ar      1 RES1    0.0000
     60 H25        1.8752    5.9196    0.8707 H         1 RES1    0.0000
     61 C36        0.2256    6.7670    1.6934 C.ar      1 RES1    0.0000
     62 H26       -0.1940    6.9736    0.8921 H         1 RES1    0.0000
@<TRIPOS>BOND
     1    1    2 ar
     2    2    8 ar
     3    3    6 ar
     4    4    5 1
     5    5   28 ar
     6    6   11 ar
     7    7    8 ar
     8    8    9 1
     9   10   11 ar
    10   11   12 1
    11   13   14 1
    12   15   26 ar
    13   16    4 ar
    14   17   16 1
    15   18    3 ar
    16   19   18 1
    17   20    1 ar
    18   21   20 1
    19   22    2 ar
    20   23   22 1
    21   24   10 ar
    22   25   24 1
    23   26   27 1
    24   28   29 1
    25   30    4 ar
    26   31   30 1
    27   32   13 ar
    28   33    5 ar
    29   34   33 1
    30   35   16 ar
    31   36   35 1
    32   37   10 1
    33   38   37 1
    34   39   15 1
    35   40   39 1
    36   41    3 ar
    37   42   41 1
    38   43    6 ar
    39   44   43 1
    40   45    7 1
    41   46   45 1
    42   47    7 ar
    43   48   47 1
    44   49    1 ar
    45   50   49 1
    46   51   15 ar
    47   52   51 1
    48   53   32 1
    49   54   53 1
    50   55   41 ar
    51   56   55 1
    52   57   43 ar
    53   58   57 1
    54   59   22 ar
    55   60   59 1
    56   61   49 ar
    57   62   61 1
    58   13   30 ar
    59   18   24 ar
    60   20   47 ar
    61   26   33 ar
    62   28   51 ar
    63   32   35 ar
    64   37   53 2
    65   39   45 2
    66   55   57 ar
    67   59   61 ar
@<TRIPOS>SUBSTRUCTURE
     1 RES1 1

@<TRIPOS>CRYSIN
   5.9681    7.5122   53.4180  90.0000  90.0000  90.0000  19 1

