# MOL2 file generated by ConQuest
# Please check atom types

@<TRIPOS>MOLECULE
ZEDPOQ
    50    57     1
SMALL
NO_CHARGES
****
Generated from CSD

@<TRIPOS>ATOM
      1 C1        22.1541    2.2781    3.8720 C.2       1 RES1    0.0000
      2 C2        21.3161    2.6244    2.8568 C.2       1 RES1    0.0000
      3 H1        21.5860    2.9876    2.0446 H         1 RES1    0.0000
      4 C3        19.9298    2.3427    3.2300 C.ar      1 RES1    0.0000
      5 C4        18.6776    2.5000    2.6116 C.ar      1 RES1    0.0000
      6 C5        18.4820    3.0787    1.3329 C.ar      1 RES1    0.0000
      7 H2        19.2206    3.3861    0.8568 H         1 RES1    0.0000
      8 C6        17.2479    3.1960    0.7859 C.ar      1 RES1    0.0000
      9 H3        17.1485    3.5818   -0.0552 H         1 RES1    0.0000
     10 C7        16.1140    2.7345    1.4874 C.ar      1 RES1    0.0000
     11 H4        15.2729    2.8121    1.1018 H         1 RES1    0.0000
     12 C8        16.2374    2.1807    2.7132 C.ar      1 RES1    0.0000
     13 H5        15.4762    1.8796    3.1546 H         1 RES1    0.0000
     14 C9        17.5065    2.0488    3.3421 C.ar      1 RES1    0.0000
     15 C10       17.6235    1.4867    4.6194 C.ar      1 RES1    0.0000
     16 H6        16.8598    1.1955    5.0612 H         1 RES1    0.0000
     17 C11       18.8690    1.3552    5.2433 C.ar      1 RES1    0.0000
     18 C12       19.1527    0.8374    6.5374 C.ar      1 RES1    0.0000
     19 H7        18.4588    0.5185    7.0685 H         1 RES1    0.0000
     20 C13       20.4271    0.8053    7.0035 C.ar      1 RES1    0.0000
     21 H8        20.5848    0.4718    7.8572 H         1 RES1    0.0000
     22 C14       21.5322    1.2633    6.2338 C.ar      1 RES1    0.0000
     23 H9        22.3953    1.2312    6.5817 H         1 RES1    0.0000
     24 C15       21.3096    1.7497    4.9795 C.ar      1 RES1    0.0000
     25 C16       19.9759    1.7941    4.5089 C.ar      1 RES1    0.0000
     26 C17       23.6202    2.4215    3.9797 C.ar      1 RES1    0.0000
     27 C18       24.1342    2.9928    5.1508 C.ar      1 RES1    0.0000
     28 H10       23.5434    3.2403    5.8255 H         1 RES1    0.0000
     29 C19       25.4758    3.2003    5.3392 C.ar      1 RES1    0.0000
     30 H11       25.7695    3.6087    6.1209 H         1 RES1    0.0000
     31 C20       26.4046    2.8098    4.3794 C.ar      1 RES1    0.0000
     32 C21       27.8180    3.0007    4.5509 C.ar      1 RES1    0.0000
     33 H12       28.1300    3.4091    5.3257 H         1 RES1    0.0000
     34 C22       28.6962    2.6034    3.6203 C.ar      1 RES1    0.0000
     35 H13       29.6048    2.7412    3.7647 H         1 RES1    0.0000
     36 C23       28.2684    1.9715    2.4094 C.ar      1 RES1    0.0000
     37 C24       29.1620    1.5358    1.4320 C.ar      1 RES1    0.0000
     38 H14       30.0758    1.6602    1.5610 H         1 RES1    0.0000
     39 C25       28.7222    0.9262    0.2811 C.ar      1 RES1    0.0000
     40 H15       29.3361    0.6382   -0.3538 H         1 RES1    0.0000
     41 C26       27.3709    0.7388    0.0628 C.ar      1 RES1    0.0000
     42 H16       27.0856    0.3327   -0.7237 H         1 RES1    0.0000
     43 C27       26.4288    1.1527    1.0108 C.ar      1 RES1    0.0000
     44 C28       25.0213    0.9523    0.8383 C.ar      1 RES1    0.0000
     45 H17       24.7131    0.5352    0.0665 H         1 RES1    0.0000
     46 C29       24.1328    1.3520    1.7655 C.ar      1 RES1    0.0000
     47 H18       23.2265    1.1955    1.6178 H         1 RES1    0.0000
     48 C30       24.5332    2.0119    2.9759 C.ar      1 RES1    0.0000
     49 C31       25.9322    2.2037    3.1851 C.ar      1 RES1    0.0000
     50 C32       26.8726    1.7810    2.1980 C.ar      1 RES1    0.0000
@<TRIPOS>BOND
     1    1    2 2
     2    2    3 1
     3    4    2 1
     4    5    4 ar
     5    6    5 ar
     6    7    6 1
     7    8    6 ar
     8    9    8 1
     9   10    8 ar
    10   11   10 1
    11   12   10 ar
    12   13   12 1
    13   14    5 ar
    14   15   14 ar
    15   16   15 1
    16   17   15 ar
    17   18   17 ar
    18   19   18 1
    19   20   18 ar
    20   21   20 1
    21   22   20 ar
    22   23   22 1
    23   24    1 1
    24   25    4 ar
    25   26    1 1
    26   27   26 ar
    27   28   27 1
    28   29   27 ar
    29   30   29 1
    30   31   29 ar
    31   32   31 ar
    32   33   32 1
    33   34   32 ar
    34   35   34 1
    35   36   34 ar
    36   37   36 ar
    37   38   37 1
    38   39   37 ar
    39   40   39 1
    40   41   39 ar
    41   42   41 1
    42   43   41 ar
    43   44   43 ar
    44   45   44 1
    45   46   44 ar
    46   47   46 1
    47   48   26 ar
    48   49   31 ar
    49   50   36 ar
    50   12   14 ar
    51   17   25 ar
    52   22   24 ar
    53   24   25 ar
    54   43   50 ar
    55   46   48 ar
    56   48   49 ar
    57   49   50 ar
@<TRIPOS>SUBSTRUCTURE
     1 RES1 1

@<TRIPOS>CRYSIN
  30.4984    3.9613   16.2415  90.0000  92.4120  90.0000  14 1

