# MOL2 file generated by ConQuest
# Please check atom types

@<TRIPOS>MOLECULE
ZIWZOW
    32    35     1
SMALL
NO_CHARGES
****
Generated from CSD

@<TRIPOS>ATOM
      1 C1         2.8516    7.8699   11.0105 C.ar      1 RES1    0.0000
      2 C2         2.8390    8.7493   12.1213 C.ar      1 RES1    0.0000
      3 H1         3.4496    8.6115   12.8455 H         1 RES1    0.0000
      4 C3         1.9273    9.7778   12.2044 C.ar      1 RES1    0.0000
      5 H2         1.9362   10.3628   12.9912 H         1 RES1    0.0000
      6 C4         1.0083    9.9862   11.1823 C.ar      1 RES1    0.0000
      7 H3         0.3653   10.7220   11.2565 H         1 RES1    0.0000
      8 C5         0.9994    9.1491   10.0846 C.ar      1 RES1    0.0000
      9 H4         0.3810    9.3082    9.3641 H         1 RES1    0.0000
     10 C6         1.9111    8.0733    9.9778 C.ar      1 RES1    0.0000
     11 C7         1.8892    7.1628    8.8496 C.ar      1 RES1    0.0000
     12 C8         0.9394    7.3035    7.8010 C.ar      1 RES1    0.0000
     13 H5         0.3027    8.0128    7.8060 H         1 RES1    0.0000
     14 C9         0.8992    6.3895    6.7602 C.ar      1 RES1    0.0000
     15 H6         0.2088    6.5010    6.0611 H         1 RES1    0.0000
     16 C10        1.7937    5.3360    6.7193 C.ar      1 RES1    0.0000
     17 H7         1.7640    4.6898    5.9925 H         1 RES1    0.0000
     18 C11        2.7519    5.1922    7.7109 C.ar      1 RES1    0.0000
     19 H8         3.3505    4.4465    7.6740 H         1 RES1    0.0000
     20 C12        2.8015    6.0938    8.8048 C.ar      1 RES1    0.0000
     21 C13        3.7643    5.9054    9.8717 C.ar      1 RES1    0.0000
     22 C14        4.7053    4.7514    9.7819 C.3       1 RES1    0.0000
     23 H9         4.1646    3.8950    9.7189 H         1 RES1    0.0000
     24 H10        5.1718    4.7063    8.8688 H         1 RES1    0.0000
     25 C15        5.6906    4.6486   10.8686 C.2       1 RES1    0.0000
     26 H11        6.3565    3.9383   10.7903 H         1 RES1    0.0000
     27 C16        5.7193    5.4876   11.8983 C.2       1 RES1    0.0000
     28 H12        6.3878    5.3686   12.6072 H         1 RES1    0.0000
     29 C17        4.7611    6.5903   12.0525 C.3       1 RES1    0.0000
     30 H13        5.2345    7.4397   12.2181 H         1 RES1    0.0000
     31 H14        4.2690    6.4997   12.9157 H         1 RES1    0.0000
     32 C18        3.7899    6.7632   10.9370 C.ar      1 RES1    0.0000
@<TRIPOS>BOND
     1    1    2 ar
     2    2    3 1
     3    4    2 ar
     4    5    4 1
     5    6    4 ar
     6    7    6 1
     7    8    6 ar
     8    9    8 1
     9   10    1 ar
    10   11   10 ar
    11   12   11 ar
    12   13   12 1
    13   14   12 ar
    14   15   14 1
    15   16   14 ar
    16   17   16 1
    17   18   16 ar
    18   19   18 1
    19   20   11 ar
    20   21   20 ar
    21   22   21 1
    22   23   22 1
    23   24   22 1
    24   25   22 1
    25   26   25 1
    26   27   25 2
    27   28   27 1
    28   29   27 1
    29   30   29 1
    30   31   29 1
    31   32    1 ar
    32    8   10 ar
    33   18   20 ar
    34   21   32 ar
    35   29   32 1
@<TRIPOS>SUBSTRUCTURE
     1 RES1 1

@<TRIPOS>CRYSIN
   5.2188   12.7370   17.1410  90.0000  90.0000  90.0000  19 1

