# MOL2 file generated by ConQuest
# Please check atom types

@<TRIPOS>MOLECULE
ZUNLOL01
    44    48     1
SMALL
NO_CHARGES
****
Generated from CSD

@<TRIPOS>ATOM
      1 C1        -0.3164   -1.1207   13.8095 C.ar      1 RES1    0.0000
      2 H1        -0.2337   -0.4183   13.2052 H         1 RES1    0.0000
      3 C2        -1.5168   -1.7336   13.9602 C.ar      1 RES1    0.0000
      4 H2        -2.2417   -1.4487   13.4521 H         1 RES1    0.0000
      5 C3        -1.6833   -2.7926   14.8723 C.ar      1 RES1    0.0000
      6 H3        -2.5150   -3.1988   14.9652 H         1 RES1    0.0000
      7 C4        -0.6401   -3.2204   15.6127 C.ar      1 RES1    0.0000
      8 H4        -0.7645   -3.9156   16.2177 H         1 RES1    0.0000
      9 C5         0.6527   -2.6255   15.4863 C.ar      1 RES1    0.0000
     10 C6         4.1562   -3.0353   16.7274 C.ar      1 RES1    0.0000
     11 H5         4.0566   -3.7491   17.3163 H         1 RES1    0.0000
     12 C7         5.3750   -2.4805   16.5577 C.ar      1 RES1    0.0000
     13 H6         6.1046   -2.8174   17.0241 H         1 RES1    0.0000
     14 C8         5.5500   -1.3899   15.6753 C.ar      1 RES1    0.0000
     15 H7         6.3948   -1.0153   15.5699 H         1 RES1    0.0000
     16 C9         4.5027   -0.8850   14.9826 C.ar      1 RES1    0.0000
     17 H8         4.6377   -0.1636   14.4125 H         1 RES1    0.0000
     18 C10        3.1940   -1.4415   15.1137 C.ar      1 RES1    0.0000
     19 C11        2.0902   -0.9416   14.4048 C.ar      1 RES1    0.0000
     20 C12        0.8210   -1.5368   14.5627 C.ar      1 RES1    0.0000
     21 C13        1.7506   -3.0950   16.1908 C.ar      1 RES1    0.0000
     22 H9         1.6364   -3.7943   16.7931 H         1 RES1    0.0000
     23 C14        3.0193   -2.5478   16.0209 C.ar      1 RES1    0.0000
     24 C15        2.2286    0.2430   13.5024 C.ar      1 RES1    0.0000
     25 C16        1.7593    1.4830   13.9085 C.ar      1 RES1    0.0000
     26 H10        1.4185    1.5836   14.7681 H         1 RES1    0.0000
     27 C17        1.7890    2.5726   13.0566 C.ar      1 RES1    0.0000
     28 H11        1.4674    3.3933   13.3524 H         1 RES1    0.0000
     29 C18        2.2901    2.4623   11.7649 C.ar      1 RES1    0.0000
     30 C19        2.7932    1.2299   11.3751 C.ar      1 RES1    0.0000
     31 H12        3.1606    1.1366   10.5257 H         1 RES1    0.0000
     32 C20        2.7600    0.1354   12.2235 C.ar      1 RES1    0.0000
     33 H13        3.0974   -0.6814   11.9345 H         1 RES1    0.0000
     34 C21        2.2390    3.6196   10.8324 C.ar      1 RES1    0.0000
     35 C22        1.1413    4.4731   10.8367 C.ar      1 RES1    0.0000
     36 H14        0.4539    4.3370   11.4475 H         1 RES1    0.0000
     37 C23        1.0647    5.5248    9.9377 C.ar      1 RES1    0.0000
     38 H15        0.3227    6.0856    9.9458 H         1 RES1    0.0000
     39 C24        2.0752    5.7449    9.0355 C.ar      1 RES1    0.0000
     40 H16        2.0152    6.4489    8.4305 H         1 RES1    0.0000
     41 C25        3.1739    4.9256    9.0276 C.ar      1 RES1    0.0000
     42 H17        3.8647    5.0809    8.4237 H         1 RES1    0.0000
     43 C26        3.2582    3.8644    9.9168 C.ar      1 RES1    0.0000
     44 H18        4.0050    3.3096    9.9005 H         1 RES1    0.0000
@<TRIPOS>BOND
     1    1    2 1
     2    3    1 ar
     3    4    3 1
     4    5    3 ar
     5    6    5 1
     6    7    5 ar
     7    8    7 1
     8    9    7 ar
     9   10   11 1
    10   12   10 ar
    11   13   12 1
    12   14   12 ar
    13   15   14 1
    14   16   14 ar
    15   17   16 1
    16   18   16 ar
    17   19   18 ar
    18   20    1 ar
    19   21    9 ar
    20   22   21 1
    21   23   10 ar
    22   24   19 1
    23   25   24 ar
    24   26   25 1
    25   27   25 ar
    26   28   27 1
    27   29   27 ar
    28   30   29 ar
    29   31   30 1
    30   32   24 ar
    31   33   32 1
    32   34   29 1
    33   35   34 ar
    34   36   35 1
    35   37   35 ar
    36   38   37 1
    37   39   37 ar
    38   40   39 1
    39   41   39 ar
    40   42   41 1
    41   43   34 ar
    42   44   43 1
    43    9   20 ar
    44   18   23 ar
    45   19   20 ar
    46   21   23 ar
    47   30   32 ar
    48   41   43 ar
@<TRIPOS>SUBSTRUCTURE
     1 RES1 1

@<TRIPOS>CRYSIN
  10.5117    7.5373   22.7050  90.0000  93.9720  90.0000 231 1

