# MOL2 file generated by ConQuest
# Please check atom types

@<TRIPOS>MOLECULE
ZZZNNM01
    40    46     1
SMALL
NO_CHARGES
****
Generated from CSD

@<TRIPOS>ATOM
      1 C1         0.4303    0.3469   -0.9616 C.3       1 RES1    0.0000
      2 C2        -1.0223    0.1946   -0.3825 C.3       1 RES1    0.0000
      3 C3        -1.6862   -0.8265   -1.2650 C.ar      1 RES1    0.0000
      4 C4        -0.7572   -1.2609   -2.2320 C.ar      1 RES1    0.0000
      5 C5         0.4869   -0.5993   -2.1193 C.ar      1 RES1    0.0000
      6 C6        -1.0280   -2.2426   -3.1948 C.ar      1 RES1    0.0000
      7 C7        -2.9320   -1.4001   -1.2557 C.ar      1 RES1    0.0000
      8 C8         0.0413   -2.5647   -4.0748 C.ar      1 RES1    0.0000
      9 C9         1.4897   -0.9408   -2.9902 C.ar      1 RES1    0.0000
     10 C10       -3.2313   -2.3852   -2.2257 C.ar      1 RES1    0.0000
     11 C11       -2.3236   -2.8021   -3.1683 C.ar      1 RES1    0.0000
     12 C12        1.2435   -1.9347   -3.9611 C.ar      1 RES1    0.0000
     13 H1         0.7044    1.2794   -1.1876 H         1 RES1    0.0000
     14 H2        -1.5530    1.0265   -0.2706 H         1 RES1    0.0000
     15 H3        -3.6158   -1.1237   -0.6483 H         1 RES1    0.0000
     16 H4        -2.5528   -3.5610   -3.8294 H         1 RES1    0.0000
     17 H5        -0.0925   -3.2642   -4.6858 H         1 RES1    0.0000
     18 H6        -4.1336   -2.7777   -2.2278 H         1 RES1    0.0000
     19 H7         2.3973   -0.4670   -2.9367 H         1 RES1    0.0000
     20 H8         1.9991   -2.1940   -4.5605 H         1 RES1    0.0000
     21 C1B       -0.4303   -0.3469    0.9616 C.3       1 RES1    0.0000
     22 C2B        1.0223   -0.1946    0.3825 C.3       1 RES1    0.0000
     23 C3B        1.6862    0.8265    1.2650 C.ar      1 RES1    0.0000
     24 C4B        0.7572    1.2609    2.2320 C.ar      1 RES1    0.0000
     25 C5B       -0.4869    0.5993    2.1193 C.ar      1 RES1    0.0000
     26 C6B        1.0280    2.2426    3.1948 C.ar      1 RES1    0.0000
     27 C7B        2.9320    1.4001    1.2557 C.ar      1 RES1    0.0000
     28 C8B       -0.0413    2.5647    4.0748 C.ar      1 RES1    0.0000
     29 C9B       -1.4897    0.9408    2.9902 C.ar      1 RES1    0.0000
     30 C10B       3.2313    2.3852    2.2257 C.ar      1 RES1    0.0000
     31 C11B       2.3236    2.8021    3.1683 C.ar      1 RES1    0.0000
     32 C12B      -1.2435    1.9347    3.9611 C.ar      1 RES1    0.0000
     33 H1B       -0.7044   -1.2794    1.1876 H         1 RES1    0.0000
     34 H2B        1.5530   -1.0265    0.2706 H         1 RES1    0.0000
     35 H3B        3.6158    1.1237    0.6483 H         1 RES1    0.0000
     36 H4B        2.5528    3.5610    3.8294 H         1 RES1    0.0000
     37 H5B        0.0925    3.2642    4.6858 H         1 RES1    0.0000
     38 H6B        4.1336    2.7777    2.2278 H         1 RES1    0.0000
     39 H7B       -2.3973    0.4670    2.9367 H         1 RES1    0.0000
     40 H8B       -1.9991    2.1940    4.5605 H         1 RES1    0.0000
@<TRIPOS>BOND
     1    1    2 1
     2    2    3 1
     3    3    4 ar
     4    4    5 ar
     5    5    1 1
     6    6    4 ar
     7    7    3 ar
     8    8    6 ar
     9    9    5 ar
    10   10    7 ar
    11   11    6 ar
    12   12    8 ar
    13   13    1 1
    14   14    2 1
    15   15    7 1
    16   16   11 1
    17   17    8 1
    18   18   10 1
    19   19    9 1
    20   20   12 1
    21   21    2 1
    22   22    1 1
    23   23   22 1
    24   24   23 ar
    25   25   21 1
    26   26   24 ar
    27   27   23 ar
    28   28   26 ar
    29   29   25 ar
    30   30   27 ar
    31   31   26 ar
    32   32   28 ar
    33   33   21 1
    34   34   22 1
    35   35   27 1
    36   36   31 1
    37   37   28 1
    38   38   30 1
    39   39   29 1
    40   40   32 1
    41    9   12 ar
    42   10   11 ar
    43   21   22 1
    44   24   25 ar
    45   29   32 ar
    46   30   31 ar
@<TRIPOS>SUBSTRUCTURE
     1 RES1 1

@<TRIPOS>CRYSIN
   7.8270    4.8647   20.2212  90.0000  92.7910  90.0000 231 1

