# MOL2 file generated by ConQuest
# Please check atom types

@<TRIPOS>MOLECULE
ZZZNNM02
    40    46     1
SMALL
NO_CHARGES
****
Generated from CSD

@<TRIPOS>ATOM
      1 C1         4.4417    2.2353   10.4878 C.3       1 RES1    0.0000
      2 H1         4.9358    1.3932   10.4023 H         1 RES1    0.0000
      3 C2         2.9884    2.0849   11.0639 C.3       1 RES1    0.0000
      4 H2         2.7285    1.1649   11.2793 H         1 RES1    0.0000
      5 C3         2.9328    3.0385   12.2254 C.ar      1 RES1    0.0000
      6 C4         1.9269    3.3734   13.0930 C.ar      1 RES1    0.0000
      7 H3         1.0986    2.9538   13.0433 H         1 RES1    0.0000
      8 C5         2.1743    4.3698   14.0664 C.ar      1 RES1    0.0000
      9 H4         1.4910    4.6030   14.6518 H         1 RES1    0.0000
     10 C6         3.3826    5.0026   14.1759 C.ar      1 RES1    0.0000
     11 H5         3.5048    5.6515   14.8296 H         1 RES1    0.0000
     12 C7         4.4481    4.6780   13.3022 C.ar      1 RES1    0.0000
     13 C8         5.7443    5.2402   13.2638 C.ar      1 RES1    0.0000
     14 H6         5.9819    5.8969   13.8779 H         1 RES1    0.0000
     15 C9         6.6515    4.8255   12.3286 C.ar      1 RES1    0.0000
     16 H7         7.4980    5.2100   12.3280 H         1 RES1    0.0000
     17 C10        6.3539    3.8319   11.3595 C.ar      1 RES1    0.0000
     18 H8         6.9913    3.5710   10.7337 H         1 RES1    0.0000
     19 C11        5.1051    3.2653   11.3664 C.ar      1 RES1    0.0000
     20 C12        4.1749    3.6883   12.3363 C.ar      1 RES1    0.0000
     21 C1B        2.3962    2.6325    9.7187 C.3       1 RES1    0.0000
     22 H1B        1.9021    3.4746    9.8042 H         1 RES1    0.0000
     23 C2B        3.8494    2.7829    9.1427 C.3       1 RES1    0.0000
     24 H2B        4.1093    3.7029    8.9273 H         1 RES1    0.0000
     25 C3B        3.9051    1.8293    7.9812 C.ar      1 RES1    0.0000
     26 C4B        4.9109    1.4944    7.1135 C.ar      1 RES1    0.0000
     27 H3B        5.7392    1.9140    7.1632 H         1 RES1    0.0000
     28 C5B        4.6635    0.4980    6.1402 C.ar      1 RES1    0.0000
     29 H4B        5.3468    0.2648    5.5548 H         1 RES1    0.0000
     30 C6B        3.4552   -0.1348    6.0306 C.ar      1 RES1    0.0000
     31 H5B        3.3331   -0.7837    5.3770 H         1 RES1    0.0000
     32 C7B        2.3897    0.1898    6.9044 C.ar      1 RES1    0.0000
     33 C8B        1.0936   -0.3724    6.9428 C.ar      1 RES1    0.0000
     34 H6B        0.8559   -1.0291    6.3287 H         1 RES1    0.0000
     35 C9B        0.1863    0.0423    7.8779 C.ar      1 RES1    0.0000
     36 H7B       -0.6601   -0.3422    7.8785 H         1 RES1    0.0000
     37 C10B       0.4839    1.0359    8.8470 C.ar      1 RES1    0.0000
     38 H8B       -0.1535    1.2968    9.4728 H         1 RES1    0.0000
     39 C11B       1.7327    1.6025    8.8402 C.ar      1 RES1    0.0000
     40 C12B       2.6630    1.1795    7.8703 C.ar      1 RES1    0.0000
@<TRIPOS>BOND
     1    1    2 1
     2    3    1 1
     3    4    3 1
     4    5    3 1
     5    6    5 ar
     6    7    6 1
     7    8    6 ar
     8    9    8 1
     9   10    8 ar
    10   11   10 1
    11   12   10 ar
    12   13   12 ar
    13   14   13 1
    14   15   13 ar
    15   16   15 1
    16   17   15 ar
    17   18   17 1
    18   19    1 1
    19   20    5 ar
    20   21    3 1
    21   22   21 1
    22   23    1 1
    23   24   23 1
    24   25   23 1
    25   26   25 ar
    26   27   26 1
    27   28   26 ar
    28   29   28 1
    29   30   28 ar
    30   31   30 1
    31   32   30 ar
    32   33   32 ar
    33   34   33 1
    34   35   33 ar
    35   36   35 1
    36   37   35 ar
    37   38   37 1
    38   39   21 1
    39   40   25 ar
    40   12   20 ar
    41   17   19 ar
    42   19   20 ar
    43   21   23 1
    44   32   40 ar
    45   37   39 ar
    46   39   40 ar
@<TRIPOS>SUBSTRUCTURE
     1 RES1 1

@<TRIPOS>CRYSIN
   7.8300    4.8678   20.2309  90.0000  92.8110  90.0000 231 1

