# MOL2 file generated by ConQuest
# Please check atom types

@<TRIPOS>MOLECULE
ZZZOYC02
    36    40     1
SMALL
NO_CHARGES
****
Generated from CSD

@<TRIPOS>ATOM
      1 C1         5.2295    1.2973    4.0085 C.ar      1 RES1    0.0000
      2 C2         4.4827    0.2372    3.4553 C.ar      1 RES1    0.0000
      3 H1         4.1873   -0.4811    4.0031 H         1 RES1    0.0000
      4 C3         4.1896    0.2579    2.1201 C.ar      1 RES1    0.0000
      5 H2         3.6683   -0.4476    1.7558 H         1 RES1    0.0000
      6 C4         4.6186    1.2566    1.2897 C.ar      1 RES1    0.0000
      7 H3         4.4086    1.2310    0.3629 H         1 RES1    0.0000
      8 C5         5.3547    2.2942    1.8013 C.ar      1 RES1    0.0000
      9 H4         5.6611    2.9845    1.2254 H         1 RES1    0.0000
     10 C6         5.6584    2.3428    3.1781 C.ar      1 RES1    0.0000
     11 C7         6.3987    3.4108    3.7125 C.ar      1 RES1    0.0000
     12 H5         6.6808    4.1158    3.1406 H         1 RES1    0.0000
     13 C8         6.7153    3.4528    5.0210 C.ar      1 RES1    0.0000
     14 H6         7.2217    4.1875    5.3464 H         1 RES1    0.0000
     15 C9         6.3185    2.4359    5.9303 C.ar      1 RES1    0.0000
     16 C10        5.5840    1.3490    5.4254 C.ar      1 RES1    0.0000
     17 C11        5.2174    0.3211    6.3120 C.ar      1 RES1    0.0000
     18 H7         4.7068   -0.4093    5.9839 H         1 RES1    0.0000
     19 C12        5.5708    0.3388    7.6232 C.ar      1 RES1    0.0000
     20 H8         5.3088   -0.3795    8.1870 H         1 RES1    0.0000
     21 C13        6.3227    1.4104    8.1629 C.ar      1 RES1    0.0000
     22 C14        6.6908    2.4578    7.3071 C.ar      1 RES1    0.0000
     23 C15        7.4477    3.5264    7.8482 C.ar      1 RES1    0.0000
     24 H9         7.6947    4.2459    7.2790 H         1 RES1    0.0000
     25 C16        7.8263    3.5592    9.1312 C.ar      1 RES1    0.0000
     26 H10        8.3512    4.2867    9.4446 H         1 RES1    0.0000
     27 C17        7.4546    2.5210   10.0366 C.ar      1 RES1    0.0000
     28 C18        6.7116    1.4287    9.5625 C.ar      1 RES1    0.0000
     29 C19        6.3834    0.3959   10.4625 C.ar      1 RES1    0.0000
     30 H11        5.8877   -0.3558   10.1598 H         1 RES1    0.0000
     31 C20        6.7752    0.4726   11.7709 C.ar      1 RES1    0.0000
     32 H12        6.5406   -0.2256   12.3709 H         1 RES1    0.0000
     33 C21        7.5149    1.5582   12.2410 C.ar      1 RES1    0.0000
     34 H13        7.7826    1.6008   13.1517 H         1 RES1    0.0000
     35 C22        7.8505    2.5636   11.3692 C.ar      1 RES1    0.0000
     36 H14        8.3612    3.3014   11.6812 H         1 RES1    0.0000
@<TRIPOS>BOND
     1    1    2 ar
     2    2    3 1
     3    4    2 ar
     4    5    4 1
     5    6    4 ar
     6    7    6 1
     7    8    6 ar
     8    9    8 1
     9   10    1 ar
    10   11   10 ar
    11   12   11 1
    12   13   11 ar
    13   14   13 1
    14   15   13 ar
    15   16    1 ar
    16   17   16 ar
    17   18   17 1
    18   19   17 ar
    19   20   19 1
    20   21   19 ar
    21   22   15 ar
    22   23   22 ar
    23   24   23 1
    24   25   23 ar
    25   26   25 1
    26   27   25 ar
    27   28   21 ar
    28   29   28 ar
    29   30   29 1
    30   31   29 ar
    31   32   31 1
    32   33   31 ar
    33   34   33 1
    34   35   27 ar
    35   36   35 1
    36    8   10 ar
    37   15   16 ar
    38   21   22 ar
    39   27   28 ar
    40   33   35 ar
@<TRIPOS>SUBSTRUCTURE
     1 RES1 1

@<TRIPOS>CRYSIN
   8.3580    6.0821   13.3930  90.0000  90.3000  90.0000   4 1

