# MOL2 file generated by ConQuest
# Please check atom types

@<TRIPOS>MOLECULE
ABECAL
    46    51     1
SMALL
NO_CHARGES
****
Generated from CSD

@<TRIPOS>ATOM
      1 C1         6.2022    1.8074    0.4891 C.ar      1 RES1    0.0000
      2 C2         5.6127    2.5256    1.5195 C.ar      1 RES1    0.0000
      3 C3         5.4919    1.4968   -0.6793 C.ar      1 RES1    0.0000
      4 C4         4.1903    1.8928   -0.8356 C.ar      1 RES1    0.0000
      5 C5         3.5339    2.6173    0.1880 C.ar      1 RES1    0.0000
      6 C6         2.1907    3.0588    0.0521 C.ar      1 RES1    0.0000
      7 C7         1.5901    3.7762    1.0530 C.ar      1 RES1    0.0000
      8 C8         2.2779    4.0789    2.2260 C.ar      1 RES1    0.0000
      9 C9         3.5947    3.6829    2.4117 C.ar      1 RES1    0.0000
     10 C10        4.3156    4.0467    3.6028 C.ar      1 RES1    0.0000
     11 C11        5.6213    3.7049    3.7590 C.ar      1 RES1    0.0000
     12 C12        6.5646    3.9675    4.8097 C.ar      1 RES1    0.0000
     13 C13        7.7633    3.4085    4.4633 C.ar      1 RES1    0.0000
     14 C14        7.6055    2.7624    3.1521 C.ar      1 RES1    0.0000
     15 C15        4.2506    2.9294    1.3813 C.ar      1 RES1    0.0000
     16 C16        6.3155    2.9294    2.7264 C.ar      1 RES1    0.0000
     17 C17        9.0123    3.4383    5.2400 C.ar      1 RES1    0.0000
     18 C18        9.0874    4.0875    6.4764 C.ar      1 RES1    0.0000
     19 C19       10.2568    4.1212    7.2078 C.ar      1 RES1    0.0000
     20 C20       11.4301    3.5049    6.7572 C.ar      1 RES1    0.0000
     21 C21       11.3521    2.8651    5.5185 C.ar      1 RES1    0.0000
     22 C22       10.1776    2.8282    4.7871 C.ar      1 RES1    0.0000
     23 C23       12.6830    3.5183    7.5656 C.ar      1 RES1    0.0000
     24 C24       12.7684    4.2239    8.7680 C.ar      1 RES1    0.0000
     25 C25       13.9279    4.2185    9.5289 C.ar      1 RES1    0.0000
     26 C26       15.0349    3.5073    9.1077 C.ar      1 RES1    0.0000
     27 C27       14.9817    2.8055    7.9211 C.ar      1 RES1    0.0000
     28 C28       13.8222    2.8126    7.1602 C.ar      1 RES1    0.0000
     29 H1         7.2035    1.5212    0.5616 H         1 RES1    0.0000
     30 H2         5.9341    0.9809   -1.4108 H         1 RES1    0.0000
     31 H3         3.7049    1.7211   -1.7210 H         1 RES1    0.0000
     32 H4         1.6975    2.8659   -0.7903 H         1 RES1    0.0000
     33 H5         0.6285    4.0859    0.9420 H         1 RES1    0.0000
     34 H6         1.8482    4.6544    2.9370 H         1 RES1    0.0000
     35 H7         3.8523    4.5933    4.3048 H         1 RES1    0.0000
     36 H8         6.3553    4.4992    5.6272 H         1 RES1    0.0000
     37 H9         8.3316    2.2629    2.6789 H         1 RES1    0.0000
     38 H10        8.2908    4.5478    6.8432 H         1 RES1    0.0000
     39 H11       10.2594    4.5729    8.0615 H         1 RES1    0.0000
     40 H12       12.1674    2.4103    5.1268 H         1 RES1    0.0000
     41 H13       10.1972    2.3562    3.9334 H         1 RES1    0.0000
     42 H14       11.9719    4.7595    9.1032 H         1 RES1    0.0000
     43 H15       13.9881    4.7360   10.3464 H         1 RES1    0.0000
     44 H16       15.8990    3.5222    9.6466 H         1 RES1    0.0000
     45 H17       15.7608    2.2982    7.5905 H         1 RES1    0.0000
     46 H18       13.7945    2.2676    6.3065 H         1 RES1    0.0000
@<TRIPOS>BOND
     1    1    2 ar
     2    2   15 ar
     3    3    1 ar
     4    4    3 ar
     5    5    4 ar
     6    6    5 ar
     7    7    6 ar
     8    8    7 ar
     9    9    8 ar
    10   10    9 ar
    11   11   10 ar
    12   12   11 ar
    13   13   12 ar
    14   14   13 ar
    15   15    5 ar
    16   16    2 ar
    17   17   13 1
    18   18   17 ar
    19   19   18 ar
    20   20   19 ar
    21   21   20 ar
    22   22   17 ar
    23   23   20 1
    24   24   23 ar
    25   25   24 ar
    26   26   25 ar
    27   27   26 ar
    28   28   23 ar
    29   29    1 1
    30   30    3 1
    31   31    4 1
    32   32    6 1
    33   33    7 1
    34   34    8 1
    35   35   10 1
    36   36   12 1
    37   37   14 1
    38   38   18 1
    39   39   19 1
    40   40   21 1
    41   41   22 1
    42   42   24 1
    43   43   25 1
    44   44   26 1
    45   45   27 1
    46   46   28 1
    47    9   15 ar
    48   11   16 ar
    49   14   16 ar
    50   21   22 ar
    51   27   28 ar
@<TRIPOS>SUBSTRUCTURE
     1 RES1 1

@<TRIPOS>CRYSIN
  10.0600    7.8410   22.6930  90.0000  93.7400  90.0000 231 1

