# MOL2 file generated by ConQuest
# Please check atom types

@<TRIPOS>MOLECULE
ABEJIC
    48    52     1
SMALL
NO_CHARGES
****
Generated from CSD

@<TRIPOS>ATOM
      1 C1         2.1666   -2.1432    2.3484 C.ar      1 RES1    0.0000
      2 C2         2.7630   -2.0079    3.6309 C.ar      1 RES1    0.0000
      3 H1         2.9713   -1.1433    3.9636 H         1 RES1    0.0000
      4 C3         3.0404   -3.1127    4.3929 C.ar      1 RES1    0.0000
      5 H2         3.4361   -3.0078    5.2507 H         1 RES1    0.0000
      6 C4         2.7415   -4.4083    3.9107 C.ar      1 RES1    0.0000
      7 H3         2.9381   -5.1686    4.4452 H         1 RES1    0.0000
      8 C5         2.1700   -4.5717    2.6786 C.ar      1 RES1    0.0000
      9 H4         1.9754   -5.4467    2.3640 H         1 RES1    0.0000
     10 C6         1.8636   -3.4483    1.8623 C.ar      1 RES1    0.0000
     11 C7         1.2755   -3.5897    0.5785 C.ar      1 RES1    0.0000
     12 H5         1.0521   -4.4550    0.2572 H         1 RES1    0.0000
     13 C8         1.0257   -2.4921   -0.2043 C.ar      1 RES1    0.0000
     14 H6         0.6455   -2.6051   -1.0678 H         1 RES1    0.0000
     15 C9         1.3292   -1.1963    0.2626 C.ar      1 RES1    0.0000
     16 H7         1.1616   -0.4445   -0.2941 H         1 RES1    0.0000
     17 C10        1.8675   -1.0090    1.5206 C.ar      1 RES1    0.0000
     18 C11        2.1016    0.3142    2.0240 C.1       1 RES1    0.0000
     19 C12        2.2826    1.4001    2.5061 C.1       1 RES1    0.0000
     20 C13        2.5236    2.6911    3.0798 C.ar      1 RES1    0.0000
     21 C14        1.4633    3.5642    3.3475 C.ar      1 RES1    0.0000
     22 H8         0.5738    3.2960    3.1510 H         1 RES1    0.0000
     23 C15        1.6977    4.8173    3.8968 C.ar      1 RES1    0.0000
     24 H9         0.9701    5.4033    4.0692 H         1 RES1    0.0000
     25 C16        2.9977    5.2169    4.1952 C.ar      1 RES1    0.0000
     26 H10        3.1549    6.0739    4.5733 H         1 RES1    0.0000
     27 C17        4.0646    4.3657    3.9410 C.ar      1 RES1    0.0000
     28 H11        4.9493    4.6461    4.1429 H         1 RES1    0.0000
     29 C18        3.8472    3.0952    3.3878 C.ar      1 RES1    0.0000
     30 C19        4.9406    2.2036    3.1415 C.1       1 RES1    0.0000
     31 C20        5.8477    1.4398    2.9407 C.1       1 RES1    0.0000
     32 C21        6.9106    0.5050    2.7207 C.ar      1 RES1    0.0000
     33 C22        8.1576    0.7220    3.2843 C.ar      1 RES1    0.0000
     34 H12        8.3132    1.5112    3.7894 H         1 RES1    0.0000
     35 C23        9.1991   -0.2142    3.1180 C.ar      1 RES1    0.0000
     36 H13       10.0445   -0.0563    3.5209 H         1 RES1    0.0000
     37 C24        8.9970   -1.3508    2.3779 C.ar      1 RES1    0.0000
     38 H14        9.7030   -1.9785    2.2800 H         1 RES1    0.0000
     39 C25        7.7445   -1.6010    1.7559 C.ar      1 RES1    0.0000
     40 C26        7.5304   -2.7496    0.9504 C.ar      1 RES1    0.0000
     41 H15        8.2412   -3.3646    0.8116 H         1 RES1    0.0000
     42 C27        6.3105   -2.9816    0.3712 C.ar      1 RES1    0.0000
     43 H16        6.1846   -3.7483   -0.1752 H         1 RES1    0.0000
     44 C28        5.2400   -2.0854    0.5840 C.ar      1 RES1    0.0000
     45 H17        4.3914   -2.2625    0.1947 H         1 RES1    0.0000
     46 C29        5.4169   -0.9588    1.3500 C.ar      1 RES1    0.0000
     47 H18        4.6899   -0.3616    1.4848 H         1 RES1    0.0000
     48 C30        6.6761   -0.6797    1.9407 C.ar      1 RES1    0.0000
@<TRIPOS>BOND
     1    1    2 ar
     2    2    3 1
     3    4    2 ar
     4    5    4 1
     5    6    4 ar
     6    7    6 1
     7    8    6 ar
     8    9    8 1
     9   10    1 ar
    10   11   10 ar
    11   12   11 1
    12   13   11 ar
    13   14   13 1
    14   15   13 ar
    15   16   15 1
    16   17    1 ar
    17   18   17 1
    18   19   18 3
    19   20   19 1
    20   21   20 ar
    21   22   21 1
    22   23   21 ar
    23   24   23 1
    24   25   23 ar
    25   26   25 1
    26   27   25 ar
    27   28   27 1
    28   29   20 ar
    29   30   29 1
    30   31   30 3
    31   32   31 1
    32   33   32 ar
    33   34   33 1
    34   35   33 ar
    35   36   35 1
    36   37   35 ar
    37   38   37 1
    38   39   37 ar
    39   40   39 ar
    40   41   40 1
    41   42   40 ar
    42   43   42 1
    43   44   42 ar
    44   45   44 1
    45   46   44 ar
    46   47   46 1
    47   48   32 ar
    48    8   10 ar
    49   15   17 ar
    50   27   29 ar
    51   39   48 ar
    52   46   48 ar
@<TRIPOS>SUBSTRUCTURE
     1 RES1 1

@<TRIPOS>CRYSIN
  10.4374   10.5171   11.0370 104.2970  97.4470 117.9150   2 1

