# MOL2 file generated by ConQuest
# Please check atom types

@<TRIPOS>MOLECULE
ACENYL01
    60    66     3
SMALL
NO_CHARGES
****
Generated from CSD

@<TRIPOS>ATOM
      1 C1         2.8364   -0.6998    0.6483 C.2       1 RES1    0.0000
      2 C2         2.4046    0.6311    1.2158 C.ar      1 RES1    0.0000
      3 C3         2.1542    1.1701    2.3899 C.ar      1 RES1    0.0000
      4 C4         1.5517    2.4738    2.3482 C.ar      1 RES1    0.0000
      5 C5         1.1443    3.2717    1.2381 C.ar      1 RES1    0.0000
      6 C6         1.9979    1.4366    0.0000 C.ar      1 RES1    0.0000
      7 C7         1.4470    2.9215    0.0000 C.ar      1 RES1    0.0000
      8 H1         0.7588    4.2169    1.2353 H         1 RES1    0.0000
      9 H2         1.2581    3.0249    3.3108 H         1 RES1    0.0000
     10 H3         2.1998    0.7760    3.2746 H         1 RES1    0.0000
     11 H4         3.0830   -1.3339    1.2576 H         1 RES1    0.0000
     12 C8        -2.5367    3.2966    0.7512 C.2       2 RES2    0.0000
     13 C9        -2.0321    4.6411    1.1463 C.ar      2 RES2    0.0000
     14 C10       -1.8257    5.0933    2.3732 C.ar      2 RES2    0.0000
     15 C11       -1.4440    6.6016    2.3983 C.ar      2 RES2    0.0000
     16 C12       -1.1185    7.3240    1.2603 C.ar      2 RES2    0.0000
     17 C13       -1.4630    6.4635    0.0000 C.ar      2 RES2    0.0000
     18 C14       -1.7680    5.3047    0.0000 C.ar      2 RES2    0.0000
     19 H5        -0.9144    8.2284    1.2353 H         2 RES2    0.0000
     20 H6        -1.3271    7.0055    3.3108 H         2 RES2    0.0000
     21 H7        -2.8387    2.5342    1.2576 H         2 RES2    0.0000
     22 H8        -2.1072    4.6985    3.2746 H         2 RES2    0.0000
     23 C15       -1.7748    2.0420    7.0390 C.ar      3 RES3    0.0000
     24 C16       -0.9781    1.7227    5.7119 C.ar      3 RES3    0.0000
     25 C17       -2.6490    2.1077    9.2313 C.2       3 RES3    0.0000
     26 C18       -3.4632    2.5636    8.4412 C.2       3 RES3    0.0000
     27 C19       -1.2877    1.8540    8.2520 C.ar      3 RES3    0.0000
     28 C20       -3.0132    2.3674    6.9917 C.ar      3 RES3    0.0000
     29 C21       -0.1267    1.2645    8.4941 C.ar      3 RES3    0.0000
     30 C22       -3.6164    2.5591    5.8844 C.ar      3 RES3    0.0000
     31 C23        0.6351    1.0886    7.3339 C.ar      3 RES3    0.0000
     32 C24       -2.8721    2.4346    4.6602 C.ar      3 RES3    0.0000
     33 C25        0.5334    1.3030    6.1153 C.ar      3 RES3    0.0000
     34 C26       -1.6436    2.0299    4.6324 C.ar      3 RES3    0.0000
     35 H9         0.5334    1.1580    9.4372 H         3 RES3    0.0000
     36 H10       -2.3530    2.1454   10.2635 H         3 RES3    0.0000
     37 H11       -4.2667    2.8173    8.9476 H         3 RES3    0.0000
     38 H12       -4.7167    3.0022    5.7647 H         3 RES3    0.0000
     39 H13       -3.4730    2.5923    3.6920 H         3 RES3    0.0000
     40 H14       -1.2513    1.8261    3.7421 H         3 RES3    0.0000
     41 H15        0.7360    1.1263    5.2639 H         3 RES3    0.0000
     42 H16        1.7877    0.7443    7.4340 H         3 RES3    0.0000
     43 C1B        2.8364   -0.6998   -0.6483 C.2       1 RES1    0.0000
     44 C2B        2.4046    0.6311   -1.2158 C.ar      1 RES1    0.0000
     45 C5B        1.1443    3.2717   -1.2381 C.ar      1 RES1    0.0000
     46 H4B        3.0830   -1.3339   -1.2576 H         1 RES1    0.0000
     47 C3B        2.1542    1.1701   -2.3899 C.ar      1 RES1    0.0000
     48 C4B        1.5517    2.4738   -2.3482 C.ar      1 RES1    0.0000
     49 H1B        0.7588    4.2169   -1.2353 H         1 RES1    0.0000
     50 H3B        2.1998    0.7760   -3.2746 H         1 RES1    0.0000
     51 H2B        1.2581    3.0249   -3.3108 H         1 RES1    0.0000
     52 C8B       -2.5367    3.2966   -0.7512 C.2       2 RES2    0.0000
     53 C12B      -1.1185    7.3240   -1.2603 C.ar      2 RES2    0.0000
     54 C9B       -2.0321    4.6411   -1.1463 C.ar      2 RES2    0.0000
     55 H7B       -2.8387    2.5342   -1.2576 H         2 RES2    0.0000
     56 C11B      -1.4440    6.6016   -2.3983 C.ar      2 RES2    0.0000
     57 H5B       -0.9144    8.2284   -1.2353 H         2 RES2    0.0000
     58 C10B      -1.8257    5.0933   -2.3732 C.ar      2 RES2    0.0000
     59 H6B       -1.3271    7.0055   -3.3108 H         2 RES2    0.0000
     60 H8B       -2.1072    4.6985   -3.2746 H         2 RES2    0.0000
@<TRIPOS>BOND
     1    1    2 1
     2    2    3 ar
     3    3    4 ar
     4    4    5 ar
     5    5    7 ar
     6    6    2 ar
     7    7    6 ar
     8    8    5 1
     9    9    4 1
    10   10    3 1
    11   11    1 1
    12   12   13 1
    13   13   14 ar
    14   14   15 ar
    15   15   16 ar
    16   16   17 ar
    17   17   18 ar
    18   18   13 ar
    19   19   16 1
    20   20   15 1
    21   21   12 1
    22   22   14 1
    23   23   24 ar
    24   24   33 ar
    25   25   26 2
    26   26   28 1
    27   27   23 ar
    28   28   23 ar
    29   29   27 ar
    30   30   28 ar
    31   31   29 ar
    32   32   30 ar
    33   33   31 ar
    34   34   24 ar
    35   35   29 1
    36   36   25 1
    37   37   26 1
    38   38   30 1
    39   39   32 1
    40   40   34 1
    41   41   33 1
    42   42   31 1
    43   43    1 2
    44   44    6 ar
    45   45    7 ar
    46   46   43 1
    47   47   44 ar
    48   48   45 ar
    49   49   45 1
    50   50   47 1
    51   51   48 1
    52   52   12 2
    53   53   17 ar
    54   54   18 ar
    55   55   52 1
    56   56   53 ar
    57   57   53 1
    58   58   54 ar
    59   59   56 1
    60   60   58 1
    61   25   27 1
    62   32   34 ar
    63   43   44 1
    64   47   48 ar
    65   52   54 1
    66   56   58 ar
@<TRIPOS>SUBSTRUCTURE
     1 RES1 1
     2 RES2 12
     3 RES3 23

@<TRIPOS>CRYSIN
   7.5880    7.5490   27.8220  90.0000  90.0000  90.0000  31 6

