# MOL2 file generated by ConQuest
# Please check atom types

@<TRIPOS>MOLECULE
ACENAP03
    44    48     2
SMALL
NO_CHARGES
****
Generated from CSD

@<TRIPOS>ATOM
      1 C1         3.8167    5.8296    0.0000 C.ar      1 RES1    0.0000
      2 C2         3.1726    4.6130   -0.0014 C.ar      1 RES1    0.0000
      3 C3         1.7575    4.5794   -0.0094 C.ar      1 RES1    0.0000
      4 C4         0.9915    5.7274   -0.0043 C.ar      1 RES1    0.0000
      5 C5         1.6273    7.0000    0.0087 C.ar      1 RES1    0.0000
      6 C6         3.0159    7.0000    0.0022 C.ar      1 RES1    0.0000
      7 C7         5.2675    6.2118   -0.0029 C.3       1 RES1    0.0000
      8 H1         3.7197    3.6792   -0.0202 H         1 RES1    0.0000
      9 H2         1.2717    3.6176   -0.0441 H         1 RES1    0.0000
     10 H3        -0.1169    5.6644   -0.0145 H         1 RES1    0.0000
     11 H4         5.7781    5.8212   -0.8851 H         1 RES1    0.0000
     12 H5         5.7831    5.8394    0.8829 H         1 RES1    0.0000
     13 C8         2.3950    1.1704    4.7916 C.ar      2 RES2    0.0000
     14 C9         2.0858    2.3870    4.2375 C.ar      2 RES2    0.0000
     15 C10        1.4209    2.4178    2.9875 C.ar      2 RES2    0.0000
     16 C11        1.0487    1.2684    2.3098 C.ar      2 RES2    0.0000
     17 C12        1.3562    0.0000    2.8662 C.ar      2 RES2    0.0000
     18 C13        2.0145    0.0000    4.0951 C.ar      2 RES2    0.0000
     19 C14        3.0839    0.7756    6.0647 C.3       2 RES2    0.0000
     20 H6         2.3378    3.3208    4.7136 H         2 RES2    0.0000
     21 H7         1.1996    3.3768    2.5454 H         2 RES2    0.0000
     22 H8         0.5314    1.3356    1.3496 H         2 RES2    0.0000
     23 H9         2.5997    1.1942    6.9093 H         2 RES2    0.0000
     24 H10        4.0961    1.1634    6.1001 H         2 RES2    0.0000
     25 C4B        0.9915    8.2726   -0.0043 C.ar      1 RES1    0.0000
     26 C1B        3.8167    8.1704    0.0000 C.ar      1 RES1    0.0000
     27 C7B        5.2675    7.7882   -0.0029 C.3       1 RES1    0.0000
     28 C3B        1.7575    9.4206   -0.0094 C.ar      1 RES1    0.0000
     29 H3B       -0.1169    8.3356   -0.0145 H         1 RES1    0.0000
     30 C2B        3.1726    9.3870   -0.0014 C.ar      1 RES1    0.0000
     31 H4B        5.7781    8.1788   -0.8851 H         1 RES1    0.0000
     32 H5B        5.7831    8.1606    0.8829 H         1 RES1    0.0000
     33 H2B        1.2717   10.3824   -0.0441 H         1 RES1    0.0000
     34 H1B        3.7197   10.3208   -0.0202 H         1 RES1    0.0000
     35 C11B       1.0487   -1.2684    2.3098 C.ar      2 RES2    0.0000
     36 C8B        2.3950   -1.1704    4.7916 C.ar      2 RES2    0.0000
     37 C14B       3.0839   -0.7756    6.0647 C.3       2 RES2    0.0000
     38 C10B       1.4209   -2.4178    2.9875 C.ar      2 RES2    0.0000
     39 H8B        0.5314   -1.3356    1.3496 H         2 RES2    0.0000
     40 C9B        2.0858   -2.3870    4.2375 C.ar      2 RES2    0.0000
     41 H9B        2.5997   -1.1942    6.9093 H         2 RES2    0.0000
     42 H10B       4.0961   -1.1634    6.1001 H         2 RES2    0.0000
     43 H7B        1.1996   -3.3768    2.5454 H         2 RES2    0.0000
     44 H6B        2.3378   -3.3208    4.7136 H         2 RES2    0.0000
@<TRIPOS>BOND
     1    1    2 ar
     2    2    3 ar
     3    3    4 ar
     4    4    5 ar
     5    5    6 ar
     6    6    1 ar
     7    7    1 1
     8    8    2 1
     9    9    3 1
    10   10    4 1
    11   11    7 1
    12   12    7 1
    13   13   14 ar
    14   14   15 ar
    15   15   16 ar
    16   16   17 ar
    17   17   18 ar
    18   18   13 ar
    19   19   13 1
    20   20   14 1
    21   21   15 1
    22   22   16 1
    23   23   19 1
    24   24   19 1
    25   25    5 ar
    26   26    6 ar
    27   27    7 1
    28   28   25 ar
    29   29   25 1
    30   30   26 ar
    31   31   27 1
    32   32   27 1
    33   33   28 1
    34   34   30 1
    35   35   17 ar
    36   36   18 ar
    37   37   19 1
    38   38   35 ar
    39   39   35 1
    40   40   36 ar
    41   41   37 1
    42   42   37 1
    43   43   38 1
    44   44   40 1
    45   26   27 1
    46   28   30 ar
    47   36   37 1
    48   38   40 ar
@<TRIPOS>SUBSTRUCTURE
     1 RES1 1
     2 RES2 13

@<TRIPOS>CRYSIN
   8.2900   14.0000    7.2250  90.0000  90.0000  90.0000  26 5

