# MOL2 file generated by ConQuest
# Please check atom types

@<TRIPOS>MOLECULE
ACENAP04
    44    48     2
SMALL
NO_CHARGES
****
Generated from CSD

@<TRIPOS>ATOM
      1 C1         1.6875   12.8129    3.7956 C.ar      1 RES1    0.0000
      2 C2         1.6832   13.9800    3.0221 C.ar      1 RES1    0.0000
      3 C3         1.6911   13.9800    1.6238 C.ar      1 RES1    0.0000
      4 C4         1.6932   12.7115    1.0090 C.ar      1 RES1    0.0000
      5 H1         1.6911   12.6491    0.0810 H         1 RES1    0.0000
      6 C5         1.6983   11.5789    1.7602 C.ar      1 RES1    0.0000
      7 H2         1.7077   10.7548    1.3296 H         1 RES1    0.0000
      8 C6         1.6896   11.6118    3.1626 C.ar      1 RES1    0.0000
      9 H3         1.6860   10.8205    3.6518 H         1 RES1    0.0000
     10 C7         1.6918   13.2062    5.2492 C.3       1 RES1    0.0000
     11 H4         2.4822   12.8630    5.6954 H         1 RES1    0.0000
     12 H5         0.9043   12.8630    5.7004 H         1 RES1    0.0000
     13 C8         4.1200    5.8241    2.3800 C.ar      2 RES2    0.0000
     14 C9         4.6755    4.6222    2.0792 C.ar      2 RES2    0.0000
     15 H6         4.2454    3.8305    2.3114 H         2 RES2    0.0000
     16 C10        5.9047    4.5940    1.4148 C.ar      2 RES2    0.0000
     17 H7         6.2816    3.7690    1.2098 H         2 RES2    0.0000
     18 C11        6.5705    5.7174    1.0569 C.ar      2 RES2    0.0000
     19 H8         7.3854    5.6521    0.6132 H         2 RES2    0.0000
     20 C12        6.0301    6.9900    1.3544 C.ar      2 RES2    0.0000
     21 C13        4.8009    6.9900    2.0098 C.ar      2 RES2    0.0000
     22 C14        2.8511    6.2231    3.0791 C.3       2 RES2    0.0000
     23 H9         2.8382    5.8814    3.9865 H         2 RES2    0.0000
     24 H10        2.0766    5.8814    2.6056 H         2 RES2    0.0000
     25 C1C        1.6875   15.1471    3.7956 C.ar      1 RES1    0.0000
     26 C4C        1.6932   15.2485    1.0090 C.ar      1 RES1    0.0000
     27 H1C        1.6911   15.3109    0.0810 H         1 RES1    0.0000
     28 C5C        1.6983   16.3811    1.7602 C.ar      1 RES1    0.0000
     29 H2C        1.7077   17.2052    1.3296 H         1 RES1    0.0000
     30 C6C        1.6896   16.3482    3.1626 C.ar      1 RES1    0.0000
     31 H3C        1.6860   17.1395    3.6518 H         1 RES1    0.0000
     32 C7C        1.6918   14.7538    5.2492 C.3       1 RES1    0.0000
     33 H4C        2.4822   15.0970    5.6954 H         1 RES1    0.0000
     34 H5C        0.9043   15.0970    5.7004 H         1 RES1    0.0000
     35 C8C        4.1200    8.1559    2.3800 C.ar      2 RES2    0.0000
     36 C9C        4.6755    9.3578    2.0792 C.ar      2 RES2    0.0000
     37 H6C        4.2454   10.1495    2.3114 H         2 RES2    0.0000
     38 C10C       5.9047    9.3860    1.4148 C.ar      2 RES2    0.0000
     39 H7C        6.2816   10.2110    1.2098 H         2 RES2    0.0000
     40 C11C       6.5705    8.2626    1.0569 C.ar      2 RES2    0.0000
     41 H8C        7.3854    8.3279    0.6132 H         2 RES2    0.0000
     42 C14C       2.8511    7.7569    3.0791 C.3       2 RES2    0.0000
     43 H9C        2.8382    8.0986    3.9865 H         2 RES2    0.0000
     44 H10C       2.0766    8.0986    2.6056 H         2 RES2    0.0000
@<TRIPOS>BOND
     1    1    2 ar
     2    2    3 ar
     3    3    4 ar
     4    4    5 1
     5    6    4 ar
     6    7    6 1
     7    8    1 ar
     8    9    8 1
     9   10    1 1
    10   11   10 1
    11   12   10 1
    12   13   14 ar
    13   14   15 1
    14   16   14 ar
    15   17   16 1
    16   18   16 ar
    17   19   18 1
    18   20   18 ar
    19   21   13 ar
    20   22   13 1
    21   23   22 1
    22   24   22 1
    23   25    2 ar
    24   26    3 ar
    25   27   26 1
    26   28   26 ar
    27   29   28 1
    28   30   25 ar
    29   31   30 1
    30   32   10 1
    31   33   32 1
    32   34   32 1
    33   35   21 ar
    34   36   35 ar
    35   37   36 1
    36   38   36 ar
    37   39   38 1
    38   40   20 ar
    39   41   40 1
    40   42   22 1
    41   43   42 1
    42   44   42 1
    43    6    8 ar
    44   20   21 ar
    45   25   32 1
    46   28   30 ar
    47   35   42 1
    48   38   40 ar
@<TRIPOS>SUBSTRUCTURE
     1 RES1 1
     2 RES2 13

@<TRIPOS>CRYSIN
   7.2053   13.9800    8.2638  90.0000  90.0000  90.0000  26 2

