# MOL2 file generated by ConQuest
# Please check atom types

@<TRIPOS>MOLECULE
ACENAP
    44    48     2
SMALL
NO_CHARGES
****
Generated from CSD

@<TRIPOS>ATOM
      1 C1         3.8134    5.8310    0.0000 C.ar      1 RES1    0.0000
      2 C2         3.1751    4.6130    0.0000 C.ar      1 RES1    0.0000
      3 C3         1.7409    4.5920    0.0000 C.ar      1 RES1    0.0000
      4 C4         1.0197    5.7260    0.0000 C.ar      1 RES1    0.0000
      5 C5         1.6248    7.0000    0.0000 C.ar      1 RES1    0.0000
      6 C6         3.0259    7.0000    0.0000 C.ar      1 RES1    0.0000
      7 C7         5.2890    6.2300    0.0000 C.3       1 RES1    0.0000
      8 H1         3.6476    3.7800    0.0000 H         1 RES1    0.0000
      9 H2         1.4922    3.6400    0.0000 H         1 RES1    0.0000
     10 H3         0.0829    5.7400    0.0000 H         1 RES1    0.0000
     11 H4         5.7201    5.8800    0.7948 H         1 RES1    0.0000
     12 H5         5.7201    5.8800   -0.7225 H         1 RES1    0.0000
     13 C8         2.3875    1.1690   -2.3481 C.ar      2 RES2    0.0000
     14 C9         2.0891    2.3870   -2.8972 C.ar      2 RES2    0.0000
     15 C10        1.4176    2.4080   -4.1327 C.ar      2 RES2    0.0000
     16 C11        1.0528    1.2740   -4.8046 C.ar      2 RES2    0.0000
     17 C12        1.3679   -0.0000   -4.2266 C.ar      2 RES2    0.0000
     18 C13        2.0228   -0.0000   -3.0201 C.ar      2 RES2    0.0000
     19 C14        3.0756    0.7700   -1.0838 C.3       2 RES2    0.0000
     20 H6         2.1554    3.2200   -2.6733 H         2 RES2    0.0000
     21 H7         1.1606    3.3600   -4.4795 H         2 RES2    0.0000
     22 H8         0.6632    1.2600   -5.4188 H         2 RES2    0.0000
     23 H9         3.9792    1.1200   -1.0838 H         2 RES2    0.0000
     24 H10        2.8186    1.1200   -0.1445 H         2 RES2    0.0000
     25 C4B        1.0197    8.2740    0.0000 C.ar      1 RES1    0.0000
     26 C1B        3.8134    8.1690    0.0000 C.ar      1 RES1    0.0000
     27 C7B        5.2890    7.7700    0.0000 C.3       1 RES1    0.0000
     28 C3B        1.7409    9.4080    0.0000 C.ar      1 RES1    0.0000
     29 H3B        0.0829    8.2600    0.0000 H         1 RES1    0.0000
     30 C2B        3.1751    9.3870    0.0000 C.ar      1 RES1    0.0000
     31 H4B        5.7201    8.1200    0.7948 H         1 RES1    0.0000
     32 H5B        5.7201    8.1200   -0.7225 H         1 RES1    0.0000
     33 H2B        1.4922   10.3600    0.0000 H         1 RES1    0.0000
     34 H1B        3.6476   10.2200    0.0000 H         1 RES1    0.0000
     35 C11B       1.0528   -1.2740   -4.8046 C.ar      2 RES2    0.0000
     36 C8B        2.3875   -1.1690   -2.3481 C.ar      2 RES2    0.0000
     37 C14B       3.0756   -0.7700   -1.0838 C.3       2 RES2    0.0000
     38 C10B       1.4176   -2.4080   -4.1327 C.ar      2 RES2    0.0000
     39 H8B        0.6632   -1.2600   -5.4188 H         2 RES2    0.0000
     40 C9B        2.0891   -2.3870   -2.8972 C.ar      2 RES2    0.0000
     41 H9B        3.9792   -1.1200   -1.0838 H         2 RES2    0.0000
     42 H10B       2.8186   -1.1200   -0.1445 H         2 RES2    0.0000
     43 H7B        1.1606   -3.3600   -4.4795 H         2 RES2    0.0000
     44 H6B        2.1554   -3.2200   -2.6733 H         2 RES2    0.0000
@<TRIPOS>BOND
     1    1    2 ar
     2    2    3 ar
     3    3    4 ar
     4    4    5 ar
     5    5    6 ar
     6    6    1 ar
     7    7    1 1
     8    8    2 1
     9    9    3 1
    10   10    4 1
    11   11    7 1
    12   12    7 1
    13   13   14 ar
    14   14   15 ar
    15   15   16 ar
    16   16   17 ar
    17   17   18 ar
    18   18   13 ar
    19   19   13 1
    20   20   14 1
    21   21   15 1
    22   22   16 1
    23   23   19 1
    24   24   19 1
    25   25    5 ar
    26   26    6 ar
    27   27    7 1
    28   28   25 ar
    29   29   25 1
    30   30   26 ar
    31   31   27 1
    32   32   27 1
    33   33   28 1
    34   34   30 1
    35   35   17 ar
    36   36   18 ar
    37   37   19 1
    38   38   35 ar
    39   39   35 1
    40   40   36 ar
    41   41   37 1
    42   42   37 1
    43   43   38 1
    44   44   40 1
    45   26   27 1
    46   28   30 ar
    47   36   37 1
    48   38   40 ar
@<TRIPOS>SUBSTRUCTURE
     1 RES1 1
     2 RES2 13

@<TRIPOS>CRYSIN
   8.2900   14.0000    7.2250  90.0000  90.0000  90.0000  26 5

