# MOL2 file generated by ConQuest
# Please check atom types

@<TRIPOS>MOLECULE
ACNPCD01
    40    46     1
SMALL
NO_CHARGES
****
Generated from CSD

@<TRIPOS>ATOM
      1 C1         0.3260    9.1540    3.0140 C.3       1 RES1    0.0000
      2 H1        -0.2619    9.9380    3.0188 H         1 RES1    0.0000
      3 C2         3.5251    7.6125    6.0956 C.ar      1 RES1    0.0000
      4 H2         4.3430    7.5628    6.5354 H         1 RES1    0.0000
      5 C3         2.0769    8.5797    4.4683 C.ar      1 RES1    0.0000
      6 C4         3.3334    8.5765    5.0827 C.ar      1 RES1    0.0000
      7 C5         0.1096    8.2101    1.7736 C.3       1 RES1    0.0000
      8 H3        -0.5545    8.5444    1.1348 H         1 RES1    0.0000
      9 C6        -0.4291    7.0867    2.7103 C.3       1 RES1    0.0000
     10 H4        -1.3780    6.8862    2.5742 H         1 RES1    0.0000
     11 C7         1.3338    7.6231    1.1229 C.ar      1 RES1    0.0000
     12 C8         0.4730    5.9099    2.4754 C.ar      1 RES1    0.0000
     13 C9         2.2591    8.1246    0.2713 C.ar      1 RES1    0.0000
     14 H5         2.1925    9.0010   -0.0324 H         1 RES1    0.0000
     15 C10        0.5044    4.6471    2.9845 C.ar      1 RES1    0.0000
     16 H6        -0.1267    4.3717    3.6090 H         1 RES1    0.0000
     17 C11        3.3223    7.3050   -0.1495 C.ar      1 RES1    0.0000
     18 H7         3.9619    7.6589   -0.7245 H         1 RES1    0.0000
     19 C12       -0.1539    8.0051    3.9546 C.3       1 RES1    0.0000
     20 H8        -0.9612    8.2269    4.4629 H         1 RES1    0.0000
     21 C13        1.5124    3.7653    2.5466 C.ar      1 RES1    0.0000
     22 H9         1.5178    2.8945    2.8731 H         1 RES1    0.0000
     23 C14        3.4481    6.0097    0.2589 C.ar      1 RES1    0.0000
     24 H10        4.1600    5.4953   -0.0466 H         1 RES1    0.0000
     25 C15        2.4818    4.1369    1.6622 C.ar      1 RES1    0.0000
     26 H11        3.1302    3.5238    1.4013 H         1 RES1    0.0000
     27 C16        1.4696    6.2963    1.5620 C.ar      1 RES1    0.0000
     28 C17        2.5052    5.4467    1.1417 C.ar      1 RES1    0.0000
     29 C18        1.7352    9.4564    3.4270 C.ar      1 RES1    0.0000
     30 C19        1.0389    7.6977    4.8224 C.ar      1 RES1    0.0000
     31 C20        2.6698   10.3464    2.9855 C.ar      1 RES1    0.0000
     32 H12        2.4721   10.9335    2.2914 H         1 RES1    0.0000
     33 C21        1.2605    6.7795    5.8034 C.ar      1 RES1    0.0000
     34 H13        0.5935    6.1817    6.0528 H         1 RES1    0.0000
     35 C22        3.9403   10.3646    3.5947 C.ar      1 RES1    0.0000
     36 H14        4.5749   10.9739    3.2929 H         1 RES1    0.0000
     37 C23        2.5229    6.7536    6.4336 C.ar      1 RES1    0.0000
     38 H15        2.6767    6.1274    7.1038 H         1 RES1    0.0000
     39 C24        4.2694    9.5231    4.6057 C.ar      1 RES1    0.0000
     40 H16        5.1163    9.5691    4.9875 H         1 RES1    0.0000
@<TRIPOS>BOND
     1    1    2 1
     2    3    4 1
     3    5    6 ar
     4    6    3 ar
     5    7    1 1
     6    8    7 1
     7    9    7 1
     8   10    9 1
     9   11    7 1
    10   12    9 1
    11   13   11 ar
    12   14   13 1
    13   15   12 ar
    14   16   15 1
    15   17   13 ar
    16   18   17 1
    17   19    1 1
    18   20   19 1
    19   21   15 ar
    20   22   21 1
    21   23   17 ar
    22   24   23 1
    23   25   21 ar
    24   26   25 1
    25   27   11 ar
    26   28   23 ar
    27   29    1 1
    28   30    5 ar
    29   31   29 ar
    30   32   31 1
    31   33   30 ar
    32   34   33 1
    33   35   31 ar
    34   36   35 1
    35   37    3 ar
    36   38   37 1
    37   39    6 ar
    38   40   39 1
    39    5   29 ar
    40    9   19 1
    41   12   27 ar
    42   19   30 1
    43   25   28 ar
    44   27   28 ar
    45   33   37 ar
    46   35   39 ar
@<TRIPOS>SUBSTRUCTURE
     1 RES1 1

@<TRIPOS>CRYSIN
  11.9765   13.9227    9.9979  90.0000 107.7880  90.0000  14 1

