# MOL2 file generated by ConQuest
# Please check atom types

@<TRIPOS>MOLECULE
ACNPCD
    40    46     1
SMALL
NO_CHARGES
****
Generated from CSD

@<TRIPOS>ATOM
      1 C1         0.3089    2.1937    3.0090 C.3       1 RES1    0.0000
      2 C2         3.5359    0.6537    6.1117 C.ar      1 RES1    0.0000
      3 C3         2.0748    1.6074    4.4629 C.ar      1 RES1    0.0000
      4 C4         3.3445    1.6157    5.0876 C.ar      1 RES1    0.0000
      5 C5         0.0977    1.2654    1.7843 C.3       1 RES1    0.0000
      6 C6        -0.4263    0.1178    2.7039 C.3       1 RES1    0.0000
      7 C7         1.3274    0.6535    1.1176 C.ar      1 RES1    0.0000
      8 C8         0.4768   -1.0858    2.4932 C.ar      1 RES1    0.0000
      9 C9         2.2466    1.1814    0.2582 C.ar      1 RES1    0.0000
     10 C10        0.4929   -2.3267    2.9896 C.ar      1 RES1    0.0000
     11 C11        3.3373    0.3414   -0.1372 C.ar      1 RES1    0.0000
     12 C12       -0.1606    1.0336    3.9520 C.3       1 RES1    0.0000
     13 C13        1.5141   -3.2100    2.5608 C.ar      1 RES1    0.0000
     14 C14        3.4647   -0.9633    0.2399 C.ar      1 RES1    0.0000
     15 C15        2.4917   -2.8339    1.6447 C.ar      1 RES1    0.0000
     16 C16        1.4689   -0.6536    1.5580 C.ar      1 RES1    0.0000
     17 C17        2.4982   -1.5352    1.1524 C.ar      1 RES1    0.0000
     18 C18        1.7371    2.5010    3.4243 C.ar      1 RES1    0.0000
     19 C19        1.0331    0.7384    4.8328 C.ar      1 RES1    0.0000
     20 C20        2.6401    3.3959    2.9532 C.ar      1 RES1    0.0000
     21 C21        1.2571   -0.2078    5.8050 C.ar      1 RES1    0.0000
     22 C22        3.9311    3.4188    3.5839 C.ar      1 RES1    0.0000
     23 C23        2.5497   -0.2239    6.4513 C.ar      1 RES1    0.0000
     24 C24        4.2947    2.5686    4.6303 C.ar      1 RES1    0.0000
     25 H1        -0.2677    2.9869    3.2455 H         1 RES1    0.0000
     26 H2        -1.3882   -0.1085    2.3353 H         1 RES1    0.0000
     27 H3         2.1922    2.1401   -0.0684 H         1 RES1    0.0000
     28 H4        -0.2705   -2.6262    3.6333 H         1 RES1    0.0000
     29 H5         4.0151    0.6769   -0.8250 H         1 RES1    0.0000
     30 H6         1.5673   -4.1637    2.8953 H         1 RES1    0.0000
     31 H7         4.2184   -1.5819   -0.0765 H         1 RES1    0.0000
     32 H8         3.2466   -3.4783    1.3904 H         1 RES1    0.0000
     33 H9        -0.9013    1.3525    4.5317 H         1 RES1    0.0000
     34 H10        2.4239    4.0536    2.2364 H         1 RES1    0.0000
     35 H11        0.5165   -0.8422    6.0850 H         1 RES1    0.0000
     36 H12        4.6136    4.0837    3.2828 H         1 RES1    0.0000
     37 H13        2.7338   -0.8567    7.1887 H         1 RES1    0.0000
     38 H14        5.1843    2.5782    5.0348 H         1 RES1    0.0000
     39 H15        4.4341    0.6349    6.5658 H         1 RES1    0.0000
     40 H16       -0.5685    1.4848    1.1005 H         1 RES1    0.0000
@<TRIPOS>BOND
     1    1    5 1
     2    2    4 ar
     3    3    4 ar
     4    4   24 ar
     5    5    6 1
     6    6    8 1
     7    7    5 1
     8    8   10 ar
     9    9    7 ar
    10   10   13 ar
    11   11    9 ar
    12   12    1 1
    13   13   15 ar
    14   14   11 ar
    15   15   17 ar
    16   16    7 ar
    17   17   14 ar
    18   18    1 1
    19   19    3 ar
    20   20   18 ar
    21   21   19 ar
    22   22   20 ar
    23   23    2 ar
    24   24   22 ar
    25   25    1 1
    26   26    6 1
    27   27    9 1
    28   28   10 1
    29   29   11 1
    30   30   13 1
    31   31   14 1
    32   32   15 1
    33   33   12 1
    34   34   20 1
    35   35   21 1
    36   36   22 1
    37   37   23 1
    38   38   24 1
    39   39    2 1
    40   40    5 1
    41    3   18 ar
    42    6   12 1
    43    8   16 ar
    44   12   19 1
    45   16   17 ar
    46   21   23 ar
@<TRIPOS>SUBSTRUCTURE
     1 RES1 1

@<TRIPOS>CRYSIN
  11.9660   13.9300   10.0030  90.0000 107.7000  90.0000  14 1

