# MOL2 file generated by ConQuest
# Please check atom types

@<TRIPOS>MOLECULE
ACUDEI01
    68    77     1
SMALL
NO_CHARGES
****
Generated from CSD

@<TRIPOS>ATOM
      1 C1         1.1479    6.3628    6.5390 C.ar      1 RES1    0.0000
      2 C2         0.5774    5.1267    7.2050 C.3       1 RES1    0.0000
      3 C3         1.0122    5.4022    8.6528 C.ar      1 RES1    0.0000
      4 C4         0.7856    4.6240    9.7738 C.ar      1 RES1    0.0000
      5 H1         0.2857    3.8436    9.7091 H         1 RES1    0.0000
      6 C5         1.3136    5.0231   10.9923 C.ar      1 RES1    0.0000
      7 H2         1.1913    4.4922   11.7461 H         1 RES1    0.0000
      8 C6         2.0175    6.2027   11.0910 C.ar      1 RES1    0.0000
      9 H3         2.3829    6.4499   11.9112 H         1 RES1    0.0000
     10 C7         2.1909    7.0255    9.9945 C.ar      1 RES1    0.0000
     11 H4         2.6435    7.8331   10.0806 H         1 RES1    0.0000
     12 C8         1.6824    6.6359    8.7560 C.ar      1 RES1    0.0000
     13 C9         1.7875    7.2186    7.4035 C.ar      1 RES1    0.0000
     14 C10        2.5659    8.2993    6.8610 C.ar      1 RES1    0.0000
     15 C11        3.1698    9.2846    7.6740 C.ar      1 RES1    0.0000
     16 H5         3.0007    9.2799    8.5875 H         1 RES1    0.0000
     17 C12        3.9970   10.2475    7.1553 C.ar      1 RES1    0.0000
     18 H6         4.3853   10.8785    7.7171 H         1 RES1    0.0000
     19 C13        4.2518   10.2781    5.7914 C.ar      1 RES1    0.0000
     20 H7         4.8234   10.9232    5.4432 H         1 RES1    0.0000
     21 C14        3.6668    9.3670    4.9605 C.ar      1 RES1    0.0000
     22 H8         3.8358    9.4176    4.0470 H         1 RES1    0.0000
     23 C15        2.8128    8.3452    5.4432 C.ar      1 RES1    0.0000
     24 C16        2.2473    7.3234    4.6080 C.ar      1 RES1    0.0000
     25 C17        2.4971    6.8772    3.2125 C.ar      1 RES1    0.0000
     26 C18        3.1567    7.4682    2.1321 C.ar      1 RES1    0.0000
     27 H9         3.5990    8.2792    2.2415 H         1 RES1    0.0000
     28 C19        3.1479    6.8431    0.9045 C.ar      1 RES1    0.0000
     29 H10        3.5840    7.2410    0.1849 H         1 RES1    0.0000
     30 C20        2.5063    5.6388    0.7233 C.ar      1 RES1    0.0000
     31 H11        2.5155    5.2303   -0.1131 H         1 RES1    0.0000
     32 C21        1.8473    5.0337    1.7785 C.ar      1 RES1    0.0000
     33 H12        1.4007    4.2285    1.6511 H         1 RES1    0.0000
     34 C22        1.8588    5.6353    3.0174 C.ar      1 RES1    0.0000
     35 C23        1.0654    5.2444    4.2783 C.3       1 RES1    0.0000
     36 C24        1.3925    6.4063    5.1706 C.ar      1 RES1    0.0000
     37 C25        1.2933    3.9472    6.4938 C.ar      1 RES1    0.0000
     38 C26        1.7591    2.8547    7.1984 C.ar      1 RES1    0.0000
     39 H13        1.5939    2.8076    8.1119 H         1 RES1    0.0000
     40 C27        2.4609    1.8294    6.5954 C.ar      1 RES1    0.0000
     41 H14        2.7604    1.1042    7.0943 H         1 RES1    0.0000
     42 C28        2.7109    1.8953    5.2494 C.ar      1 RES1    0.0000
     43 H15        3.1912    1.2149    4.8348 H         1 RES1    0.0000
     44 C29        2.2560    2.9642    4.5046 C.ar      1 RES1    0.0000
     45 H16        2.4276    2.9866    3.5911 H         1 RES1    0.0000
     46 C30        1.5484    4.0060    5.0863 C.ar      1 RES1    0.0000
     47 C31       -0.9552    4.9984    7.1530 C.ar      1 RES1    0.0000
     48 C32       -1.7506    6.1191    7.1428 C.ar      1 RES1    0.0000
     49 H17       -1.3536    6.9596    7.1248 H         1 RES1    0.0000
     50 C33       -3.1225    6.0214    7.1625 C.ar      1 RES1    0.0000
     51 H18       -3.6400    6.7936    7.1392 H         1 RES1    0.0000
     52 C34       -3.7303    4.7983    7.2128 C.ar      1 RES1    0.0000
     53 H19       -4.6573    4.7323    7.2217 H         1 RES1    0.0000
     54 C35       -2.9518    3.6693    7.2505 C.ar      1 RES1    0.0000
     55 H20       -3.3524    2.8312    7.3025 H         1 RES1    0.0000
     56 C36       -1.5745    3.7741    7.2146 C.ar      1 RES1    0.0000
     57 H21       -1.0572    3.0019    7.2307 H         1 RES1    0.0000
     58 C37       -0.4138    5.1338    3.8921 C.ar      1 RES1    0.0000
     59 C38       -1.1460    6.2851    3.7078 C.ar      1 RES1    0.0000
     60 H22       -0.7373    7.1103    3.8406 H         1 RES1    0.0000
     61 C39       -2.4611    6.2415    3.3327 C.ar      1 RES1    0.0000
     62 H23       -2.9382    7.0314    3.2232 H         1 RES1    0.0000
     63 C40       -3.0752    5.0349    3.1155 C.ar      1 RES1    0.0000
     64 H24       -3.9726    5.0031    2.8733 H         1 RES1    0.0000
     65 C41       -2.3597    3.8777    3.2609 C.ar      1 RES1    0.0000
     66 H25       -2.7622    3.0572    3.0940 H         1 RES1    0.0000
     67 C42       -1.0298    3.9307    3.6575 C.ar      1 RES1    0.0000
     68 H26       -0.5508    3.1408    3.7652 H         1 RES1    0.0000
@<TRIPOS>BOND
     1    1    2 1
     2    2    3 1
     3    3    4 ar
     4    4    5 1
     5    6    4 ar
     6    7    6 1
     7    8    6 ar
     8    9    8 1
     9   10    8 ar
    10   11   10 1
    11   12    3 ar
    12   13    1 ar
    13   14   13 ar
    14   15   14 ar
    15   16   15 1
    16   17   15 ar
    17   18   17 1
    18   19   17 ar
    19   20   19 1
    20   21   19 ar
    21   22   21 1
    22   23   14 ar
    23   24   23 ar
    24   25   24 1
    25   26   25 ar
    26   27   26 1
    27   28   26 ar
    28   29   28 1
    29   30   28 ar
    30   31   30 1
    31   32   30 ar
    32   33   32 1
    33   34   25 ar
    34   35   34 1
    35   36    1 ar
    36   37    2 1
    37   38   37 ar
    38   39   38 1
    39   40   38 ar
    40   41   40 1
    41   42   40 ar
    42   43   42 1
    43   44   42 ar
    44   45   44 1
    45   46   35 1
    46   47    2 1
    47   48   47 ar
    48   49   48 1
    49   50   48 ar
    50   51   50 1
    51   52   50 ar
    52   53   52 1
    53   54   52 ar
    54   55   54 1
    55   56   47 ar
    56   57   56 1
    57   58   35 1
    58   59   58 ar
    59   60   59 1
    60   61   59 ar
    61   62   61 1
    62   63   61 ar
    63   64   63 1
    64   65   63 ar
    65   66   65 1
    66   67   58 ar
    67   68   67 1
    68   10   12 ar
    69   12   13 1
    70   21   23 ar
    71   24   36 ar
    72   32   34 ar
    73   35   36 1
    74   37   46 ar
    75   44   46 ar
    76   54   56 ar
    77   65   67 ar
@<TRIPOS>SUBSTRUCTURE
     1 RES1 1

@<TRIPOS>CRYSIN
  12.9050   11.7720   18.9180  90.0000 108.4400  90.0000  14 1

