# MOL2 file generated by ConQuest
# Please check atom types

@<TRIPOS>MOLECULE
ACUDEI
    68    77     1
SMALL
NO_CHARGES
****
Generated from CSD

@<TRIPOS>ATOM
      1 C1         2.8084    5.7330   10.6366 C.ar      1 RES1    0.0000
      2 C2         3.9562    5.1374   10.3586 C.ar      1 RES1    0.0000
      3 C3         3.9999    3.9321    9.6898 C.ar      1 RES1    0.0000
      4 C4         2.8169    3.2985    9.3191 C.ar      1 RES1    0.0000
      5 C5         1.5896    3.9111    9.6122 C.ar      1 RES1    0.0000
      6 C6         1.6129    5.1357   10.2859 C.ar      1 RES1    0.0000
      7 C7         0.2578    3.2247    9.2602 C.3       1 RES1    0.0000
      8 C8         0.4982    1.7738    9.5533 C.ar      1 RES1    0.0000
      9 C9         1.6961    1.1698    9.2577 C.ar      1 RES1    0.0000
     10 C10        2.8183    1.9247    8.6052 C.3       1 RES1    0.0000
     11 C11        3.9977    0.9518    8.9020 C.ar      1 RES1    0.0000
     12 C12        5.3095    1.0737    8.4837 C.ar      1 RES1    0.0000
     13 C13        6.1777    0.0405    8.7868 C.ar      1 RES1    0.0000
     14 C14        5.7518   -1.0787    9.4631 C.ar      1 RES1    0.0000
     15 C15        4.4671   -1.2057    9.8451 C.ar      1 RES1    0.0000
     16 C16        3.5116   -0.1846    9.5696 C.ar      1 RES1    0.0000
     17 C17        2.0960   -0.0155    9.8451 C.ar      1 RES1    0.0000
     18 C18        1.1361   -0.6964   10.6729 C.ar      1 RES1    0.0000
     19 C19        1.4203   -1.9697   11.2428 C.ar      1 RES1    0.0000
     20 C20        0.5183   -2.5594   12.1044 C.ar      1 RES1    0.0000
     21 C21       -0.6639   -1.9660   12.3674 C.ar      1 RES1    0.0000
     22 C22       -0.9799   -0.7735   11.8339 C.ar      1 RES1    0.0000
     23 C23       -0.0814   -0.0913   10.9635 C.ar      1 RES1    0.0000
     24 C24       -0.3672    1.1999   10.4513 C.ar      1 RES1    0.0000
     25 C25       -1.3123    2.2610   10.8220 C.ar      1 RES1    0.0000
     26 C26       -2.4352    2.3128   11.6460 C.ar      1 RES1    0.0000
     27 C27       -3.1180    3.5041   11.8251 C.ar      1 RES1    0.0000
     28 C28       -2.7478    4.6487   11.2102 C.ar      1 RES1    0.0000
     29 C29       -1.6565    4.6520   10.3473 C.ar      1 RES1    0.0000
     30 C30       -0.9572    3.4617   10.1858 C.ar      1 RES1    0.0000
     31 C31       -0.2009    3.4733    7.8200 C.ar      1 RES1    0.0000
     32 C32        0.1275    4.5957    7.1562 C.ar      1 RES1    0.0000
     33 C33       -0.3605    4.8299    5.7761 C.ar      1 RES1    0.0000
     34 C34       -1.0797    3.8730    5.2400 C.ar      1 RES1    0.0000
     35 C35       -1.5371    2.7883    5.8788 C.ar      1 RES1    0.0000
     36 C36       -1.0160    2.5889    7.1838 C.ar      1 RES1    0.0000
     37 C37        2.6816    2.0815    7.0760 C.ar      1 RES1    0.0000
     38 C38        3.1502    3.1929    6.4498 C.ar      1 RES1    0.0000
     39 C39        3.0127    3.3049    5.0422 C.ar      1 RES1    0.0000
     40 C40        2.4438    2.3147    4.3220 C.ar      1 RES1    0.0000
     41 C41        1.9924    1.2204    4.9495 C.ar      1 RES1    0.0000
     42 C42        2.0811    1.0871    6.3371 C.ar      1 RES1    0.0000
     43 H1         2.7736    6.6066   11.1050 H         1 RES1    0.0000
     44 H2         4.8263    5.5827   10.6153 H         1 RES1    0.0000
     45 H3         4.8744    3.4995    9.4619 H         1 RES1    0.0000
     46 H4         0.7350    5.5736   10.5189 H         1 RES1    0.0000
     47 H5         5.6098    1.8642    7.9828 H         1 RES1    0.0000
     48 H6         7.1079    0.0629    8.4775 H         1 RES1    0.0000
     49 H7         6.3557   -1.8461    9.6998 H         1 RES1    0.0000
     50 H8         4.0934   -2.0047   10.3210 H         1 RES1    0.0000
     51 H9         2.2789   -2.4356   11.0261 H         1 RES1    0.0000
     52 H10        0.7859   -3.4632   12.5127 H         1 RES1    0.0000
     53 H11       -1.2914   -2.4211   12.9936 H         1 RES1    0.0000
     54 H12       -1.8807   -0.3568   12.0255 H         1 RES1    0.0000
     55 H13       -2.7352    1.4829   12.0906 H         1 RES1    0.0000
     56 H14       -3.9009    3.5065   12.4651 H         1 RES1    0.0000
     57 H15       -3.2535    5.4933   11.3392 H         1 RES1    0.0000
     58 H16       -1.3751    5.4897    9.8576 H         1 RES1    0.0000
     59 H17        0.6443    5.3160    7.5707 H         1 RES1    0.0000
     60 H18       -0.0662    5.6354    5.2926 H         1 RES1    0.0000
     61 H19       -1.5077    4.0881    4.3308 H         1 RES1    0.0000
     62 H20       -2.0542    2.0863    5.4504 H         1 RES1    0.0000
     63 H21       -1.2996    1.7694    7.6835 H         1 RES1    0.0000
     64 H22        3.5840    3.9365    6.9295 H         1 RES1    0.0000
     65 H23        3.3338    4.1284    4.5900 H         1 RES1    0.0000
     66 H24        2.3171    2.4208    3.3276 H         1 RES1    0.0000
     67 H25        1.5755    0.4781    4.4473 H         1 RES1    0.0000
     68 H26        1.7631    0.2668    6.7955 H         1 RES1    0.0000
@<TRIPOS>BOND
     1    1    2 ar
     2    2    3 ar
     3    3    4 ar
     4    4    5 ar
     5    5    6 ar
     6    6    1 ar
     7    7    5 1
     8    8    7 1
     9    9    8 ar
    10   10    4 1
    11   11   10 1
    12   12   11 ar
    13   13   12 ar
    14   14   13 ar
    15   15   14 ar
    16   16   11 ar
    17   17    9 ar
    18   18   17 ar
    19   19   18 ar
    20   20   19 ar
    21   21   20 ar
    22   22   21 ar
    23   23   18 ar
    24   24    8 ar
    25   25   24 1
    26   26   25 ar
    27   27   26 ar
    28   28   27 ar
    29   29   28 ar
    30   30    7 1
    31   31    7 1
    32   32   31 ar
    33   33   32 ar
    34   34   33 ar
    35   35   34 ar
    36   36   31 ar
    37   37   10 1
    38   38   37 ar
    39   39   38 ar
    40   40   39 ar
    41   41   40 ar
    42   42   37 ar
    43   43    1 1
    44   44    2 1
    45   45    3 1
    46   46    6 1
    47   47   12 1
    48   48   13 1
    49   49   14 1
    50   50   15 1
    51   51   19 1
    52   52   20 1
    53   53   21 1
    54   54   22 1
    55   55   26 1
    56   56   27 1
    57   57   28 1
    58   58   29 1
    59   59   32 1
    60   60   33 1
    61   61   34 1
    62   62   35 1
    63   63   36 1
    64   64   38 1
    65   65   39 1
    66   66   40 1
    67   67   41 1
    68   68   42 1
    69    9   10 1
    70   15   16 ar
    71   16   17 1
    72   22   23 ar
    73   23   24 ar
    74   25   30 ar
    75   29   30 ar
    76   35   36 ar
    77   41   42 ar
@<TRIPOS>SUBSTRUCTURE
     1 RES1 1

@<TRIPOS>CRYSIN
  10.3150   12.0550   12.5830  92.8300  84.4600 116.9900   2 1

