# MOL2 file generated by ConQuest
# Please check atom types

@<TRIPOS>MOLECULE
ADILAC
    56    62     1
SMALL
NO_CHARGES
****
Generated from CSD

@<TRIPOS>ATOM
      1 C1         9.0399   -0.4818   14.5984 C.ar      1 RES1    0.0000
      2 H1         9.2836   -0.3278   13.7146 H         1 RES1    0.0000
      3 C2         9.9586   -1.1153   15.4749 C.ar      1 RES1    0.0000
      4 C3        11.2922   -1.4506   15.0798 C.ar      1 RES1    0.0000
      5 H2        11.5695   -1.2861   14.2075 H         1 RES1    0.0000
      6 C4        12.1668   -2.0131   15.9752 C.ar      1 RES1    0.0000
      7 H3        13.0370   -2.2081   15.7101 H         1 RES1    0.0000
      8 C5        11.7599   -2.2956   17.2829 C.ar      1 RES1    0.0000
      9 H4        12.3584   -2.6854   17.8786 H         1 RES1    0.0000
     10 C6        10.4916   -2.0039   17.6928 C.ar      1 RES1    0.0000
     11 H5        10.2310   -2.2165   18.5603 H         1 RES1    0.0000
     12 C7         9.5574   -1.3778   16.8131 C.ar      1 RES1    0.0000
     13 C8         8.2594   -0.9915   17.2274 C.ar      1 RES1    0.0000
     14 H6         7.9789   -1.1800   18.0946 H         1 RES1    0.0000
     15 C9         7.4087   -0.3418   16.3674 C.ar      1 RES1    0.0000
     16 C10        7.7993   -0.0918   15.0326 C.ar      1 RES1    0.0000
     17 C11        6.7186    0.6206   14.2393 C.3       1 RES1    0.0000
     18 C12        7.1168    2.0407   13.8424 C.ar      1 RES1    0.0000
     19 C13        8.1056    2.4216   12.9362 C.ar      1 RES1    0.0000
     20 H7         8.6301    1.7754   12.5207 H         1 RES1    0.0000
     21 C14        8.3050    3.7637   12.6553 C.ar      1 RES1    0.0000
     22 H8         8.9722    4.0197   12.0599 H         1 RES1    0.0000
     23 C15        7.5091    4.7285   13.2631 C.ar      1 RES1    0.0000
     24 H9         7.6281    5.6263   13.0536 H         1 RES1    0.0000
     25 C16        6.5460    4.3580   14.1751 C.ar      1 RES1    0.0000
     26 H10        6.0230    5.0068   14.5883 H         1 RES1    0.0000
     27 C17        6.3557    3.0124   14.4792 C.ar      1 RES1    0.0000
     28 C18        5.3893    2.4069   15.4874 C.3       1 RES1    0.0000
     29 C19        5.8648    2.6409   16.9179 C.ar      1 RES1    0.0000
     30 C20        6.0013    3.8535   17.5796 C.ar      1 RES1    0.0000
     31 H11        5.8099    4.6500   17.1376 H         1 RES1    0.0000
     32 C21        6.4237    3.8749   18.9018 C.ar      1 RES1    0.0000
     33 H12        6.5234    4.6874   19.3428 H         1 RES1    0.0000
     34 C22        6.6950    2.6975   19.5633 C.ar      1 RES1    0.0000
     35 H13        6.9572    2.7155   20.4550 H         1 RES1    0.0000
     36 C23        6.5779    1.4854   18.9000 C.ar      1 RES1    0.0000
     37 H14        6.7726    0.6930   19.3460 H         1 RES1    0.0000
     38 C24        6.1700    1.4494   17.5697 C.ar      1 RES1    0.0000
     39 C25        6.0286    0.2317   16.6754 C.3       1 RES1    0.0000
     40 C26        5.5204    0.8320   15.2809 C.3       1 RES1    0.0000
     41 C27        6.3716   -0.1895   12.9648 C.3       1 RES1    0.0000
     42 H15        5.6733    0.2579   12.4823 H         1 RES1    0.0000
     43 H16        6.0765   -1.0679   13.2153 H         1 RES1    0.0000
     44 H17        7.1506   -0.2603   12.4087 H         1 RES1    0.0000
     45 C28        3.9751    3.0126   15.3194 C.3       1 RES1    0.0000
     46 H18        4.0069    3.9546   15.4989 H         1 RES1    0.0000
     47 H19        3.3710    2.5902   15.9342 H         1 RES1    0.0000
     48 H20        3.6704    2.8686   14.4203 H         1 RES1    0.0000
     49 C29        5.1201   -0.8374   17.3205 C.3       1 RES1    0.0000
     50 H21        5.5138   -1.1390   18.1426 H         1 RES1    0.0000
     51 H22        5.0242   -1.5801   16.7199 H         1 RES1    0.0000
     52 H23        4.2572   -0.4580   17.4993 H         1 RES1    0.0000
     53 C30        4.2080    0.1933   14.8028 C.3       1 RES1    0.0000
     54 H24        4.3315   -0.7533   14.6988 H         1 RES1    0.0000
     55 H25        3.9534    0.5773   13.9610 H         1 RES1    0.0000
     56 H26        3.5185    0.3568   15.4509 H         1 RES1    0.0000
@<TRIPOS>BOND
     1    1    2 1
     2    3    1 ar
     3    4    3 ar
     4    5    4 1
     5    6    4 ar
     6    7    6 1
     7    8    6 ar
     8    9    8 1
     9   10    8 ar
    10   11   10 1
    11   12    3 ar
    12   13   12 ar
    13   14   13 1
    14   15   13 ar
    15   16    1 ar
    16   17   16 1
    17   18   17 1
    18   19   18 ar
    19   20   19 1
    20   21   19 ar
    21   22   21 1
    22   23   21 ar
    23   24   23 1
    24   25   23 ar
    25   26   25 1
    26   27   18 ar
    27   28   27 1
    28   29   28 1
    29   30   29 ar
    30   31   30 1
    31   32   30 ar
    32   33   32 1
    33   34   32 ar
    34   35   34 1
    35   36   34 ar
    36   37   36 1
    37   38   29 ar
    38   39   15 1
    39   40   17 1
    40   41   17 1
    41   42   41 1
    42   43   41 1
    43   44   41 1
    44   45   28 1
    45   46   45 1
    46   47   45 1
    47   48   45 1
    48   49   39 1
    49   50   49 1
    50   51   49 1
    51   52   49 1
    52   53   40 1
    53   54   53 1
    54   55   53 1
    55   56   53 1
    56   10   12 ar
    57   15   16 ar
    58   25   27 ar
    59   28   40 1
    60   36   38 ar
    61   38   39 1
    62   39   40 1
@<TRIPOS>SUBSTRUCTURE
     1 RES1 1

@<TRIPOS>CRYSIN
  10.9270   12.0530   16.0030  90.0000  90.0000  90.0000  19 1

