# MOL2 file generated by ConQuest
# Please check atom types

@<TRIPOS>MOLECULE
ADOLAJ
    84    92     1
SMALL
NO_CHARGES
****
Generated from CSD

@<TRIPOS>ATOM
      1 C1         2.4487    4.2489   13.9218 C.ar      1 RES1    0.0000
      2 C2         3.6722    3.7667   14.3878 C.ar      1 RES1    0.0000
      3 C3         4.0082    4.0156   15.7326 C.ar      1 RES1    0.0000
      4 C4         3.1175    4.6923   16.5907 C.ar      1 RES1    0.0000
      5 C5         1.8738    5.1486   16.1084 C.ar      1 RES1    0.0000
      6 C6         1.5655    4.9446   14.7654 C.ar      1 RES1    0.0000
      7 C7         0.3977    5.3914   13.9690 C.ar      1 RES1    0.0000
      8 C8        -0.7390    6.1404   14.2914 C.ar      1 RES1    0.0000
      9 H1        -0.8897    6.4297   15.1840 H         1 RES1    0.0000
     10 C9        -1.6437    6.4538   13.2871 C.ar      1 RES1    0.0000
     11 H2        -2.4212    6.9592   13.4964 H         1 RES1    0.0000
     12 C10       -1.4282    6.0371   11.9789 C.ar      1 RES1    0.0000
     13 H3        -2.0525    6.2713   11.3022 H         1 RES1    0.0000
     14 C11       -0.3108    5.2838   11.6531 C.ar      1 RES1    0.0000
     15 H4        -0.1616    4.9979   10.7589 H         1 RES1    0.0000
     16 C12        0.5818    4.9566   12.6560 C.ar      1 RES1    0.0000
     17 C13        1.8693    4.1516   12.5144 C.3       1 RES1    0.0000
     18 C14        1.5965    2.7232   12.0417 C.ar      1 RES1    0.0000
     19 C15        0.9517    1.7064   12.7205 C.ar      1 RES1    0.0000
     20 H5         0.6129    1.8476   13.5977 H         1 RES1    0.0000
     21 C16        0.8072    0.4649   12.0899 C.ar      1 RES1    0.0000
     22 H6         0.3793   -0.2497   12.5455 H         1 RES1    0.0000
     23 C17        1.2839    0.2729   10.8077 C.ar      1 RES1    0.0000
     24 H7         1.1589   -0.5682   10.3836 H         1 RES1    0.0000
     25 C18        1.9433    1.2880   10.1287 C.ar      1 RES1    0.0000
     26 H8         2.2752    1.1460    9.2508 H         1 RES1    0.0000
     27 C19        2.1081    2.5183   10.7589 C.ar      1 RES1    0.0000
     28 C20        2.8005    3.7452   10.3357 C.ar      1 RES1    0.0000
     29 C21        3.4989    4.0483    9.1709 C.ar      1 RES1    0.0000
     30 H9         3.5753    3.4112    8.4703 H         1 RES1    0.0000
     31 C22        4.0779    5.2958    9.0551 C.ar      1 RES1    0.0000
     32 H10        4.5574    5.5145    8.2654 H         1 RES1    0.0000
     33 C23        3.9739    6.2317   10.0663 C.ar      1 RES1    0.0000
     34 H11        4.3771    7.0849    9.9576 H         1 RES1    0.0000
     35 C24        3.2856    5.9416   11.2419 C.ar      1 RES1    0.0000
     36 H12        3.2151    6.5830   11.9377 H         1 RES1    0.0000
     37 C25        2.7074    4.6888   11.3642 C.ar      1 RES1    0.0000
     38 C26        4.5987    2.9996   13.4607 C.3       1 RES1    0.0000
     39 H13        5.5313    3.2829   13.6368 H         1 RES1    0.0000
     40 H14        4.3825    3.2407   12.5248 H         1 RES1    0.0000
     41 C27        4.5120    1.4748   13.6082 C.3       1 RES1    0.0000
     42 H15        4.7994    1.2174   14.5209 H         1 RES1    0.0000
     43 H16        3.5718    1.1881   13.4917 H         1 RES1    0.0000
     44 C28        5.3874    0.7637   12.5849 C.3       1 RES1    0.0000
     45 H17        5.0860    0.9944   11.6821 H         1 RES1    0.0000
     46 H18        5.3195   -0.2058   12.7136 H         1 RES1    0.0000
     47 H19        6.3187    1.0444   12.6997 H         1 RES1    0.0000
     48 C29        5.3870    3.6419   16.2338 C.3       1 RES1    0.0000
     49 H20        5.6989    2.8291   15.7619 H         1 RES1    0.0000
     50 H21        5.3395    3.4344   17.2008 H         1 RES1    0.0000
     51 C30        6.3920    4.7784   16.0066 C.3       1 RES1    0.0000
     52 H22        6.4718    4.9566   15.0458 H         1 RES1    0.0000
     53 H23        7.2663    4.5175   16.3651 H         1 RES1    0.0000
     54 H24        6.0802    5.5868   16.4641 H         1 RES1    0.0000
     55 C31        3.4628    4.9247   18.0456 C.3       1 RES1    0.0000
     56 H25        2.9999    5.7418   18.3589 H         1 RES1    0.0000
     57 H26        4.4367    5.0814   18.1218 H         1 RES1    0.0000
     58 C32        3.0766    3.7607   18.9527 C.3       1 RES1    0.0000
     59 H27        2.1013    3.6651   18.9644 H         1 RES1    0.0000
     60 H28        3.3983    3.9346   19.8623 H         1 RES1    0.0000
     61 H29        3.4818    2.9350   18.6145 H         1 RES1    0.0000
     62 C33        0.9014    5.8804   16.9713 C.ar      1 RES1    0.0000
     63 C34        0.8980    7.3337   16.9690 C.ar      1 RES1    0.0000
     64 C35        1.8875    8.0449   16.2783 C.ar      1 RES1    0.0000
     65 H30        2.5826    7.5705   15.8401 H         1 RES1    0.0000
     66 C36        1.8674    9.4173   16.2256 C.ar      1 RES1    0.0000
     67 H31        2.5521    9.8891   15.7665 H         1 RES1    0.0000
     68 C37        0.8363   10.1104   16.8506 C.ar      1 RES1    0.0000
     69 H32        0.8071   11.0592   16.7956 H         1 RES1    0.0000
     70 C38       -0.1392    9.4431   17.5455 C.ar      1 RES1    0.0000
     71 H33       -0.8281    9.9390   17.9721 H         1 RES1    0.0000
     72 C39       -0.1419    8.0320   17.6387 C.ar      1 RES1    0.0000
     73 C40       -1.1667    7.2941   18.3538 C.ar      1 RES1    0.0000
     74 C41       -2.2357    7.9123   19.0439 C.ar      1 RES1    0.0000
     75 H34       -2.2995    8.8602   19.0496 H         1 RES1    0.0000
     76 C42       -3.1817    7.1753   19.7051 C.ar      1 RES1    0.0000
     77 H35       -3.8888    7.6179   20.1593 H         1 RES1    0.0000
     78 C43       -3.1168    5.7780   19.7178 C.ar      1 RES1    0.0000
     79 H36       -3.7711    5.2709   20.1824 H         1 RES1    0.0000
     80 C44       -2.0993    5.1512   19.0535 C.ar      1 RES1    0.0000
     81 H37       -2.0577    4.2015   19.0542 H         1 RES1    0.0000
     82 C45       -1.1129    5.8847   18.3683 C.ar      1 RES1    0.0000
     83 C46       -0.0643    5.2183   17.6528 C.ar      1 RES1    0.0000
     84 H38       -0.0458    4.2687   17.6567 H         1 RES1    0.0000
@<TRIPOS>BOND
     1    1    2 ar
     2    2    3 ar
     3    3    4 ar
     4    4    5 ar
     5    5    6 ar
     6    6    1 ar
     7    7    6 1
     8    8    7 ar
     9    9    8 1
    10   10    8 ar
    11   11   10 1
    12   12   10 ar
    13   13   12 1
    14   14   12 ar
    15   15   14 1
    16   16    7 ar
    17   17    1 1
    18   18   17 1
    19   19   18 ar
    20   20   19 1
    21   21   19 ar
    22   22   21 1
    23   23   21 ar
    24   24   23 1
    25   25   23 ar
    26   26   25 1
    27   27   18 ar
    28   28   27 1
    29   29   28 ar
    30   30   29 1
    31   31   29 ar
    32   32   31 1
    33   33   31 ar
    34   34   33 1
    35   35   33 ar
    36   36   35 1
    37   37   17 1
    38   38    2 1
    39   39   38 1
    40   40   38 1
    41   41   38 1
    42   42   41 1
    43   43   41 1
    44   44   41 1
    45   45   44 1
    46   46   44 1
    47   47   44 1
    48   48    3 1
    49   49   48 1
    50   50   48 1
    51   51   48 1
    52   52   51 1
    53   53   51 1
    54   54   51 1
    55   55    4 1
    56   56   55 1
    57   57   55 1
    58   58   55 1
    59   59   58 1
    60   60   58 1
    61   61   58 1
    62   62    5 1
    63   63   62 ar
    64   64   63 ar
    65   65   64 1
    66   66   64 ar
    67   67   66 1
    68   68   66 ar
    69   69   68 1
    70   70   68 ar
    71   71   70 1
    72   72   63 ar
    73   73   72 ar
    74   74   73 ar
    75   75   74 1
    76   76   74 ar
    77   77   76 1
    78   78   76 ar
    79   79   78 1
    80   80   78 ar
    81   81   80 1
    82   82   73 ar
    83   83   62 ar
    84   84   83 1
    85   14   16 ar
    86   16   17 1
    87   25   27 ar
    88   28   37 ar
    89   35   37 ar
    90   70   72 ar
    91   80   82 ar
    92   82   83 ar
@<TRIPOS>SUBSTRUCTURE
     1 RES1 1

@<TRIPOS>CRYSIN
  16.8419    8.6097   23.3066  90.0000  98.9400  90.0000  14 1

