# MOL2 file generated by ConQuest
# Please check atom types

@<TRIPOS>MOLECULE
AGEWEQ
    88    92     1
SMALL
NO_CHARGES
****
Generated from CSD

@<TRIPOS>ATOM
      1 C1         2.1779    4.8481    5.3309 C.ar      1 RES1    0.0000
      2 C2         3.5872    6.0466    3.2386 C.ar      1 RES1    0.0000
      3 C3         0.3489    5.2893    8.7343 C.ar      1 RES1    0.0000
      4 C4         1.4742    5.0010    6.6442 C.ar      1 RES1    0.0000
      5 C5         1.7978    6.4025    6.6477 C.ar      1 RES1    0.0000
      6 C6         3.3006    4.6470    3.2287 C.ar      1 RES1    0.0000
      7 C7         2.3388    2.5974    4.2969 C.1       1 RES1    0.0000
      8 C8         0.6999    6.6769    8.7440 C.ar      1 RES1    0.0000
      9 C9         1.7414    8.6673    7.6233 C.1       1 RES1    0.0000
     10 C10        2.4817    6.2552    5.3362 C.ar      1 RES1    0.0000
     11 C11        2.5751    4.0085    4.3257 C.ar      1 RES1    0.0000
     12 C12        0.0566   -0.4509    6.9653 C.3       1 RES1    0.0000
     13 H1        -0.2569   -0.1201    6.0854 H         1 RES1    0.0000
     14 H2         1.0463   -0.4667    6.9500 H         1 RES1    0.0000
     15 C13        1.4480    7.2703    7.6426 C.ar      1 RES1    0.0000
     16 C14        3.1718    6.8941    4.3502 C.ar      1 RES1    0.0000
     17 C15        3.7311    9.4622    4.4411 C.1       1 RES1    0.0000
     18 C16        4.4047    4.4652    1.0678 C.ar      1 RES1    0.0000
     19 H3         4.6764    3.9346    0.3273 H         1 RES1    0.0000
     20 C17        3.4871    8.2893    4.3876 C.1       1 RES1    0.0000
     21 C18        0.7480    4.4031    7.6384 C.ar      1 RES1    0.0000
     22 C19        1.9363    9.8513    7.6034 C.1       1 RES1    0.0000
     23 C20        4.7959   11.3796    3.2497 C.3       1 RES1    0.0000
     24 H4         5.6268   10.8522    3.1400 H         1 RES1    0.0000
     25 H5         4.2302   11.2230    2.4523 H         1 RES1    0.0000
     26 C21        1.7251   11.9545    8.9322 C.3       1 RES1    0.0000
     27 H6         0.7412   11.8821    9.0131 H         1 RES1    0.0000
     28 H7         2.1290   11.4721    9.6964 H         1 RES1    0.0000
     29 C22       -0.4155    0.5051    8.0607 C.3       1 RES1    0.0000
     30 H8        -1.4039    0.4789    8.1043 H         1 RES1    0.0000
     31 H9        -0.0680    0.1890    8.9313 H         1 RES1    0.0000
     32 C23        0.3723    3.0222    7.6793 C.1       1 RES1    0.0000
     33 C24       -0.4201    6.9410   10.8810 C.ar      1 RES1    0.0000
     34 H10       -0.6748    7.4929   11.6114 H         1 RES1    0.0000
     35 C25       -0.7805    5.5891   10.8653 C.ar      1 RES1    0.0000
     36 H11       -1.2880    5.2252   11.5804 H         1 RES1    0.0000
     37 C26        4.6890    5.8341    1.0864 C.ar      1 RES1    0.0000
     38 H12        5.1607    6.2314    0.3649 H         1 RES1    0.0000
     39 C27        2.1257   -0.0487    4.0654 C.3       1 RES1    0.0000
     40 H13        1.1897   -0.3273    4.2302 H         1 RES1    0.0000
     41 H14        2.6941   -0.4762    4.7542 H         1 RES1    0.0000
     42 C28        2.2222    1.4061    4.2034 C.1       1 RES1    0.0000
     43 C29       -0.4641   -1.8631    7.1842 C.3       1 RES1    0.0000
     44 H15       -1.4540   -1.8457    7.2021 H         1 RES1    0.0000
     45 H16       -0.1509   -2.1912    8.0645 H         1 RES1    0.0000
     46 C30        0.0129    1.8913    7.8560 C.1       1 RES1    0.0000
     47 C31        2.1267   13.4208    8.9963 C.3       1 RES1    0.0000
     48 H17        3.1084   13.4908    8.8893 H         1 RES1    0.0000
     49 H18        1.7038   13.9037    8.2414 H         1 RES1    0.0000
     50 C32        5.1513   12.8574    3.3264 C.3       1 RES1    0.0000
     51 H19        5.6974   13.0210    4.1351 H         1 RES1    0.0000
     52 H20        4.3202   13.3895    3.4076 H         1 RES1    0.0000
     53 C33        3.7335    3.8875    2.1157 C.ar      1 RES1    0.0000
     54 H21        3.5553    2.9542    2.0941 H         1 RES1    0.0000
     55 C34        4.2848    6.6063    2.1520 C.ar      1 RES1    0.0000
     56 H22        4.4804    7.5358    2.1538 H         1 RES1    0.0000
     57 C35       -0.4005    4.7863    9.8132 C.ar      1 RES1    0.0000
     58 H23       -0.6510    3.8698    9.8158 H         1 RES1    0.0000
     59 C36        4.0546   10.8912    4.4909 C.3       1 RES1    0.0000
     60 H24        4.6129   11.0677    5.2894 H         1 RES1    0.0000
     61 H25        3.2160   11.4075    4.5884 H         1 RES1    0.0000
     62 C37        0.3033    7.4709    9.8375 C.ar      1 RES1    0.0000
     63 H26        0.5402    8.3912    9.8556 H         1 RES1    0.0000
     64 C38        2.1747   11.2972    7.6256 C.3       1 RES1    0.0000
     65 H27        1.6895   11.7155    6.8704 H         1 RES1    0.0000
     66 H28        3.1413   11.4667    7.4962 H         1 RES1    0.0000
     67 C39        2.5586   -0.5463    2.6794 C.3       1 RES1    0.0000
     68 H29        3.4501   -0.1726    2.4678 H         1 RES1    0.0000
     69 H30        2.6416   -1.5328    2.7022 H         1 RES1    0.0000
     70 C40        5.9258   13.3171    2.0943 C.3       1 RES1    0.0000
     71 H31        6.7495   12.7921    2.0123 H         1 RES1    0.0000
     72 H32        6.1517   14.2667    2.1847 H         1 RES1    0.0000
     73 H33        5.3744   13.1874    1.2958 H         1 RES1    0.0000
     74 C41        1.5927   -0.1604    1.5890 C.3       1 RES1    0.0000
     75 H34        1.5522    0.8268    1.5258 H         1 RES1    0.0000
     76 H35        0.6884   -0.4867    1.8265 H         1 RES1    0.0000
     77 C42        1.7236   14.0905   10.3003 C.3       1 RES1    0.0000
     78 H36        0.7470   14.0859   10.3819 H         1 RES1    0.0000
     79 H37        2.0472   15.0157   10.3067 H         1 RES1    0.0000
     80 H38        2.1163   13.6022   11.0541 H         1 RES1    0.0000
     81 C43        0.0004   -2.8278    6.0956 C.3       1 RES1    0.0000
     82 H39       -0.3163   -2.5134    5.2230 H         1 RES1    0.0000
     83 H40       -0.3640   -3.7204    6.2734 H         1 RES1    0.0000
     84 H41        0.9797   -2.8694    6.0920 H         1 RES1    0.0000
     85 C44        1.9893   -0.7332    0.2255 C.3       1 RES1    0.0000
     86 H42        2.8810   -0.4078   -0.0177 H         1 RES1    0.0000
     87 H43        1.3410   -0.4468   -0.4511 H         1 RES1    0.0000
     88 H44        2.0008   -1.7123    0.2742 H         1 RES1    0.0000
@<TRIPOS>BOND
     1    1    4 1
     2    2    6 ar
     3    3    8 ar
     4    4    5 ar
     5    5   10 1
     6    6   11 ar
     7    7   11 1
     8    8   15 ar
     9    9   15 1
    10   10    1 ar
    11   11    1 ar
    12   12   13 1
    13   14   12 1
    14   15    5 ar
    15   16    2 ar
    16   17   20 3
    17   18   19 1
    18   20   16 1
    19   21    3 ar
    20   22    9 3
    21   23   24 1
    22   25   23 1
    23   26   27 1
    24   28   26 1
    25   29   12 1
    26   30   29 1
    27   31   29 1
    28   32   21 1
    29   33   34 1
    30   35   33 ar
    31   36   35 1
    32   37   18 ar
    33   38   37 1
    34   39   40 1
    35   41   39 1
    36   42    7 3
    37   43   12 1
    38   44   43 1
    39   45   43 1
    40   46   29 1
    41   47   26 1
    42   48   47 1
    43   49   47 1
    44   50   23 1
    45   51   50 1
    46   52   50 1
    47   53    6 ar
    48   54   53 1
    49   55    2 ar
    50   56   55 1
    51   57    3 ar
    52   58   57 1
    53   59   17 1
    54   60   59 1
    55   61   59 1
    56   62    8 ar
    57   63   62 1
    58   64   22 1
    59   65   64 1
    60   66   64 1
    61   67   39 1
    62   68   67 1
    63   69   67 1
    64   70   50 1
    65   71   70 1
    66   72   70 1
    67   73   70 1
    68   74   67 1
    69   75   74 1
    70   76   74 1
    71   77   47 1
    72   78   77 1
    73   79   77 1
    74   80   77 1
    75   81   43 1
    76   82   81 1
    77   83   81 1
    78   84   81 1
    79   85   74 1
    80   86   85 1
    81   87   85 1
    82   88   85 1
    83    4   21 ar
    84   10   16 ar
    85   18   53 ar
    86   23   59 1
    87   26   64 1
    88   32   46 3
    89   33   62 ar
    90   35   57 ar
    91   37   55 ar
    92   39   42 1
@<TRIPOS>SUBSTRUCTURE
     1 RES1 1

@<TRIPOS>CRYSIN
   8.2772    9.2440   22.2287  94.9500  91.9100 103.1900   2 1

