# MOL2 file generated by ConQuest
# Please check atom types

@<TRIPOS>MOLECULE
AHEMUW
    52    56     1
SMALL
NO_CHARGES
****
Generated from CSD

@<TRIPOS>ATOM
      1 C1         5.2612    1.5105    2.3358 C.1       1 RES1    0.0000
      2 C2         5.7800    2.2382    1.5346 C.1       1 RES1    0.0000
      3 C3         6.3195    3.0570    0.5149 C.2       1 RES1    0.0000
      4 H1         6.2208    2.7371   -0.3743 H         1 RES1    0.0000
      5 C4         6.9533    4.2308    0.6542 C.2       1 RES1    0.0000
      6 H2         7.2503    4.6226   -0.1588 H         1 RES1    0.0000
      7 C5         7.2583    4.9968    1.8457 C.2       1 RES1    0.0000
      8 H3         8.0829    5.4651    1.7984 H         1 RES1    0.0000
      9 C6         6.6051    5.1728    2.9997 C.2       1 RES1    0.0000
     10 H4         7.0631    5.7382    3.6113 H         1 RES1    0.0000
     11 C7         5.3215    4.6685    3.5141 C.ar      1 RES1    0.0000
     12 C8         5.2961    4.2155    4.8117 C.ar      1 RES1    0.0000
     13 H5         6.0757    4.3111    5.3465 H         1 RES1    0.0000
     14 C9         4.1625    3.6194    5.3731 C.ar      1 RES1    0.0000
     15 H6         4.1911    3.2942    6.2651 H         1 RES1    0.0000
     16 C10        3.0054    3.5023    4.6390 C.ar      1 RES1    0.0000
     17 C11        2.9432    4.0647    3.3207 C.ar      1 RES1    0.0000
     18 C12        1.7466    4.0494    2.5681 C.ar      1 RES1    0.0000
     19 H7         0.9634    3.6630    2.9406 H         1 RES1    0.0000
     20 C13        1.7037    4.5828    1.3135 C.ar      1 RES1    0.0000
     21 H8         0.8976    4.5453    0.8117 H         1 RES1    0.0000
     22 C14        2.8380    5.1850    0.7633 C.ar      1 RES1    0.0000
     23 H9         2.7975    5.5676   -0.1053 H         1 RES1    0.0000
     24 C15        4.0065    5.2263    1.4701 C.ar      1 RES1    0.0000
     25 H10        4.7655    5.6556    1.0920 H         1 RES1    0.0000
     26 C16        4.1060    4.6402    2.7551 C.ar      1 RES1    0.0000
     27 C17        1.8968    2.7524    5.1522 C.1       1 RES1    0.0000
     28 C18        1.0426    1.9849    5.5203 C.1       1 RES1    0.0000
     29 C19       -0.0211    1.1065    5.8405 C.2       1 RES1    0.0000
     30 H11       -0.8908    1.4256    5.6268 H         1 RES1    0.0000
     31 C20        0.0213   -0.1110    6.4022 C.2       1 RES1    0.0000
     32 H12       -0.8319   -0.5196    6.4838 H         1 RES1    0.0000
     33 C21        1.1092   -0.9343    6.9130 C.2       1 RES1    0.0000
     34 H13        0.8524   -1.5013    7.6309 H         1 RES1    0.0000
     35 C22        2.3988   -1.0499    6.5713 C.2       1 RES1    0.0000
     36 H14        2.9103   -1.6276    7.1254 H         1 RES1    0.0000
     37 C23        3.1450   -0.4255    5.4764 C.ar      1 RES1    0.0000
     38 C24        2.6072   -0.2885    4.2234 C.ar      1 RES1    0.0000
     39 H15        1.7294   -0.6114    4.0601 H         1 RES1    0.0000
     40 C25        3.3163    0.3137    3.1786 C.ar      1 RES1    0.0000
     41 H16        2.9063    0.4086    2.3265 H         1 RES1    0.0000
     42 C26        4.5990    0.7698    3.3667 C.ar      1 RES1    0.0000
     43 C27        5.2306    0.5854    4.6304 C.ar      1 RES1    0.0000
     44 C28        6.5662    0.9871    4.8580 C.ar      1 RES1    0.0000
     45 H17        7.0646    1.3720    4.1460 H         1 RES1    0.0000
     46 C29        7.1553    0.8341    6.0780 C.ar      1 RES1    0.0000
     47 H18        8.0616    1.0866    6.2068 H         1 RES1    0.0000
     48 C30        6.4122    0.3000    7.1437 C.ar      1 RES1    0.0000
     49 H19        6.8158    0.2058    7.9987 H         1 RES1    0.0000
     50 C31        5.1197   -0.0834    6.9629 C.ar      1 RES1    0.0000
     51 H20        4.6269   -0.4201    7.7022 H         1 RES1    0.0000
     52 C32        4.4937    0.0092    5.6953 C.ar      1 RES1    0.0000
@<TRIPOS>BOND
     1    1    2 3
     2    2    3 1
     3    3    4 1
     4    5    3 2
     5    6    5 1
     6    7    5 1
     7    8    7 1
     8    9    7 2
     9   10    9 1
    10   11    9 1
    11   12   11 ar
    12   13   12 1
    13   14   12 ar
    14   15   14 1
    15   16   14 ar
    16   17   16 ar
    17   18   17 ar
    18   19   18 1
    19   20   18 ar
    20   21   20 1
    21   22   20 ar
    22   23   22 1
    23   24   22 ar
    24   25   24 1
    25   26   11 ar
    26   27   16 1
    27   28   27 3
    28   29   28 1
    29   30   29 1
    30   31   29 2
    31   32   31 1
    32   33   31 1
    33   34   33 1
    34   35   33 2
    35   36   35 1
    36   37   35 1
    37   38   37 ar
    38   39   38 1
    39   40   38 ar
    40   41   40 1
    41   42    1 1
    42   43   42 ar
    43   44   43 ar
    44   45   44 1
    45   46   44 ar
    46   47   46 1
    47   48   46 ar
    48   49   48 1
    49   50   48 ar
    50   51   50 1
    51   52   37 ar
    52   17   26 ar
    53   24   26 ar
    54   40   42 ar
    55   43   52 ar
    56   50   52 ar
@<TRIPOS>SUBSTRUCTURE
     1 RES1 1

@<TRIPOS>CRYSIN
  16.9340    7.6520   16.2200  90.0000  92.7400  90.0000  13 1

