# MOL2 file generated by ConQuest
# Please check atom types

@<TRIPOS>MOLECULE
AKUSEG
    60    69     1
SMALL
NO_CHARGES
****
Generated from CSD

@<TRIPOS>ATOM
      1 C1        12.6270    1.3989   -1.7847 C.3       1 RES1    0.0000
      2 H1        12.6514    0.4255   -1.8943 H         1 RES1    0.0000
      3 H2        13.3787    1.8009   -2.2665 H         1 RES1    0.0000
      4 H3        11.7843    1.7466   -2.1442 H         1 RES1    0.0000
      5 C2        12.7275    1.7422   -0.3231 C.ar      1 RES1    0.0000
      6 C3        11.6274    2.1434    0.3976 C.ar      1 RES1    0.0000
      7 H4        10.7971    2.2454   -0.0524 H         1 RES1    0.0000
      8 C4        11.6891    2.4082    1.7858 C.ar      1 RES1    0.0000
      9 C5        10.5019    2.7156    2.5438 C.ar      1 RES1    0.0000
     10 C6         9.2583    3.0347    1.9151 C.ar      1 RES1    0.0000
     11 H5         9.2103    3.0626    0.9664 H         1 RES1    0.0000
     12 C7         8.1469    3.2988    2.6443 C.ar      1 RES1    0.0000
     13 H6         7.3442    3.5452    2.1984 H         1 RES1    0.0000
     14 C8         8.1584    3.2129    4.0633 C.ar      1 RES1    0.0000
     15 C9         7.0104    3.4976    4.8262 C.ar      1 RES1    0.0000
     16 H7         6.1940    3.7198    4.3932 H         1 RES1    0.0000
     17 C10        7.0722    3.4536    6.1977 C.ar      1 RES1    0.0000
     18 H8         6.3112    3.6986    6.7104 H         1 RES1    0.0000
     19 C11        8.2420    3.0530    6.8458 C.ar      1 RES1    0.0000
     20 H9         8.2578    3.0222    7.7956 H         1 RES1    0.0000
     21 C12        9.3896    2.6958    6.1307 C.ar      1 RES1    0.0000
     22 C13       10.6339    2.2615    6.7740 C.ar      1 RES1    0.0000
     23 C14       10.6820    1.7436    8.1255 C.ar      1 RES1    0.0000
     24 C15        9.5564    1.1722    8.7791 C.ar      1 RES1    0.0000
     25 H10        8.7319    1.1099    8.3093 H         1 RES1    0.0000
     26 C16        9.6253    0.7079   10.0666 C.ar      1 RES1    0.0000
     27 H11        8.8539    0.3264   10.4693 H         1 RES1    0.0000
     28 C17       10.8251    0.7886   10.8035 C.ar      1 RES1    0.0000
     29 C18       10.8606    0.3499   12.2501 C.3       1 RES1    0.0000
     30 H12       11.7883    0.3492   12.5680 H         1 RES1    0.0000
     31 H13       10.4880   -0.5531   12.3268 H         1 RES1    0.0000
     32 H14       10.3292    0.9698   12.7917 H         1 RES1    0.0000
     33 C19       11.9399    1.2588   10.1613 C.ar      1 RES1    0.0000
     34 H15       12.7598    1.2874   10.6388 H         1 RES1    0.0000
     35 C20       11.9229    1.7033    8.8184 C.ar      1 RES1    0.0000
     36 C21       13.1356    2.0664    8.1250 C.ar      1 RES1    0.0000
     37 C22       14.3877    2.1669    8.7958 C.ar      1 RES1    0.0000
     38 H16       14.4288    2.0048    9.7318 H         1 RES1    0.0000
     39 C23       15.5223    2.4897    8.1253 C.ar      1 RES1    0.0000
     40 H17       16.3395    2.5667    8.6029 H         1 RES1    0.0000
     41 C24       15.5132    2.7149    6.7259 C.ar      1 RES1    0.0000
     42 C25       16.6765    3.1044    6.0346 C.ar      1 RES1    0.0000
     43 H18       17.5002    3.1880    6.5007 H         1 RES1    0.0000
     44 C26       16.6224    3.3633    4.6929 C.ar      1 RES1    0.0000
     45 H19       17.3995    3.6722    4.2429 H         1 RES1    0.0000
     46 C27       15.4375    3.1777    3.9768 C.ar      1 RES1    0.0000
     47 H20       15.4265    3.3589    3.0441 H         1 RES1    0.0000
     48 C28       14.2665    2.7325    4.6013 C.ar      1 RES1    0.0000
     49 C29       13.0070    2.5293    3.8861 C.ar      1 RES1    0.0000
     50 C30       12.9374    2.2967    2.4610 C.ar      1 RES1    0.0000
     51 C31       14.0491    1.8449    1.7000 C.ar      1 RES1    0.0000
     52 H21       14.8845    1.7194    2.1337 H         1 RES1    0.0000
     53 C32       13.9481    1.5859    0.3617 C.ar      1 RES1    0.0000
     54 H22       14.7151    1.2947   -0.1153 H         1 RES1    0.0000
     55 C33        9.3709    2.8564    4.7156 C.ar      1 RES1    0.0000
     56 C34       10.5585    2.6745    3.9401 C.ar      1 RES1    0.0000
     57 C35       11.8189    2.5469    4.6225 C.ar      1 RES1    0.0000
     58 C36       11.8277    2.3796    6.0552 C.ar      1 RES1    0.0000
     59 C37       13.0866    2.2931    6.7432 C.ar      1 RES1    0.0000
     60 C38       14.2887    2.5674    6.0121 C.ar      1 RES1    0.0000
@<TRIPOS>BOND
     1    1    2 1
     2    3    1 1
     3    4    1 1
     4    5    1 1
     5    6    5 ar
     6    7    6 1
     7    8    6 ar
     8    9    8 ar
     9   10    9 ar
    10   11   10 1
    11   12   10 ar
    12   13   12 1
    13   14   12 ar
    14   15   14 ar
    15   16   15 1
    16   17   15 ar
    17   18   17 1
    18   19   17 ar
    19   20   19 1
    20   21   19 ar
    21   22   21 ar
    22   23   22 ar
    23   24   23 ar
    24   25   24 1
    25   26   24 ar
    26   27   26 1
    27   28   26 ar
    28   29   28 1
    29   30   29 1
    30   31   29 1
    31   32   29 1
    32   33   28 ar
    33   34   33 1
    34   35   23 ar
    35   36   35 ar
    36   37   36 ar
    37   38   37 1
    38   39   37 ar
    39   40   39 1
    40   41   39 ar
    41   42   41 ar
    42   43   42 1
    43   44   42 ar
    44   45   44 1
    45   46   44 ar
    46   47   46 1
    47   48   46 ar
    48   49   48 ar
    49   50    8 ar
    50   51   50 ar
    51   52   51 1
    52   53    5 ar
    53   54   53 1
    54   55   14 ar
    55   56    9 ar
    56   57   49 ar
    57   58   22 ar
    58   59   36 ar
    59   60   41 ar
    60   21   55 ar
    61   33   35 ar
    62   48   60 ar
    63   49   50 ar
    64   51   53 ar
    65   55   56 ar
    66   56   57 ar
    67   57   58 ar
    68   58   59 ar
    69   59   60 ar
@<TRIPOS>SUBSTRUCTURE
     1 RES1 1

@<TRIPOS>CRYSIN
  17.4392    7.3355   17.5242  90.0000  94.2960  90.0000 231 1

