# MOL2 file generated by ConQuest
# Please check atom types

@<TRIPOS>MOLECULE
ANTCEN02
    14    16     1
SMALL
NO_CHARGES
****
Generated from CSD

@<TRIPOS>ATOM
      1 C1        -1.5786    0.1708    3.3443 C.ar      1 RES1    0.0000
      2 C2        -0.7683    0.9404    2.5697 C.ar      1 RES1    0.0000
      3 C3        -0.3723    0.4998    1.2720 C.ar      1 RES1    0.0000
      4 C4         0.4404    1.2476    0.4359 C.ar      1 RES1    0.0000
      5 C5        -0.8269   -0.7931    0.8232 C.ar      1 RES1    0.0000
      6 C6        -1.6715   -1.5476    1.6722 C.ar      1 RES1    0.0000
      7 C7        -2.0340   -1.0678    2.9065 C.ar      1 RES1    0.0000
      8 C5B        0.8269    0.7931   -0.8232 C.ar      1 RES1    0.0000
      9 C4B       -0.4404   -1.2476   -0.4359 C.ar      1 RES1    0.0000
     10 C3B        0.3723   -0.4998   -1.2720 C.ar      1 RES1    0.0000
     11 C6B        1.6715    1.5476   -1.6722 C.ar      1 RES1    0.0000
     12 C2B        0.7683   -0.9404   -2.5697 C.ar      1 RES1    0.0000
     13 C7B        2.0340    1.0678   -2.9065 C.ar      1 RES1    0.0000
     14 C1B        1.5786   -0.1708   -3.3443 C.ar      1 RES1    0.0000
@<TRIPOS>BOND
     1    1    2 ar
     2    2    3 ar
     3    3    4 ar
     4    4    8 ar
     5    5    3 ar
     6    6    5 ar
     7    7    1 ar
     8    8   10 ar
     9    9    5 ar
    10   10    9 ar
    11   11    8 ar
    12   12   10 ar
    13   13   11 ar
    14   14   12 ar
    15    6    7 ar
    16   13   14 ar
@<TRIPOS>SUBSTRUCTURE
     1 RES1 1

@<TRIPOS>CRYSIN
   8.5610    6.0360   11.1630  90.0000 124.7000  90.0000  14 2

