# MOL2 file generated by ConQuest
# Please check atom types

@<TRIPOS>MOLECULE
ANTCEN23
    24    26     1
SMALL
NO_CHARGES
****
Generated from CSD

@<TRIPOS>ATOM
      1 C1         7.0060    1.1131    2.6478 C.ar      1 RES1    0.0000
      2 H1         7.4138    1.6392    3.3254 H         1 RES1    0.0000
      3 C2         5.9046    1.5784    2.0018 C.ar      1 RES1    0.0000
      4 H2         5.5582    2.4338    2.2268 H         1 RES1    0.0000
      5 C3         5.2589    0.8029    0.9901 C.ar      1 RES1    0.0000
      6 C4         4.1228    1.2616    0.3160 C.ar      1 RES1    0.0000
      7 H3         3.7686    2.1170    0.5296 H         1 RES1    0.0000
      8 C5         3.4968    0.4879   -0.6653 C.ar      1 RES1    0.0000
      9 C6         2.3244    0.9341   -1.3555 C.ar      1 RES1    0.0000
     10 H4         1.9473    1.7794   -1.1421 H         1 RES1    0.0000
     11 C7         1.7429    0.1593   -2.3147 C.ar      1 RES1    0.0000
     12 H5         0.9664    0.4706   -2.7646 H         1 RES1    0.0000
     13 C1B        2.2889   -1.1131   -2.6478 C.ar      1 RES1    0.0000
     14 H1B        1.8811   -1.6392   -3.3254 H         1 RES1    0.0000
     15 C2B        3.3903   -1.5784   -2.0018 C.ar      1 RES1    0.0000
     16 H2B        3.7367   -2.4338   -2.2268 H         1 RES1    0.0000
     17 C3B        4.0360   -0.8029   -0.9901 C.ar      1 RES1    0.0000
     18 C4B        5.1721   -1.2616   -0.3160 C.ar      1 RES1    0.0000
     19 H3B        5.5263   -2.1170   -0.5296 H         1 RES1    0.0000
     20 C5B        5.7981   -0.4879    0.6653 C.ar      1 RES1    0.0000
     21 C6B        6.9705   -0.9341    1.3555 C.ar      1 RES1    0.0000
     22 H4B        7.3476   -1.7794    1.1421 H         1 RES1    0.0000
     23 C7B        7.5520   -0.1593    2.3147 C.ar      1 RES1    0.0000
     24 H5B        8.3285   -0.4706    2.7646 H         1 RES1    0.0000
@<TRIPOS>BOND
     1    1    2 1
     2    3    1 ar
     3    4    3 1
     4    5    3 ar
     5    6    5 ar
     6    7    6 1
     7    8    6 ar
     8    9    8 ar
     9   10    9 1
    10   11    9 ar
    11   12   11 1
    12   13   11 ar
    13   14   13 1
    14   15   13 ar
    15   16   15 1
    16   17    8 ar
    17   18   17 ar
    18   19   18 1
    19   20    5 ar
    20   21   20 ar
    21   22   21 1
    22   23    1 ar
    23   24   23 1
    24   15   17 ar
    25   18   20 ar
    26   21   23 ar
@<TRIPOS>SUBSTRUCTURE
     1 RES1 1

@<TRIPOS>CRYSIN
   9.2949    5.9651    8.4141  90.0000 102.6160  90.0000  14 1

