# MOL2 file generated by ConQuest
# Please check atom types

@<TRIPOS>MOLECULE
ANTCEN22
    24    26     1
SMALL
NO_CHARGES
****
Generated from CSD

@<TRIPOS>ATOM
      1 C1         3.1889    1.2668    4.4148 C.ar      1 RES1    0.0000
      2 H1         2.8359    2.1237    4.6233 H         1 RES1    0.0000
      3 C2         4.3219    0.8078    5.0918 C.ar      1 RES1    0.0000
      4 C3         4.9632    1.5820    6.1028 C.ar      1 RES1    0.0000
      5 H2         4.6173    2.4377    6.3285 H         1 RES1    0.0000
      6 C4         6.0646    1.1116    6.7486 C.ar      1 RES1    0.0000
      7 H3         6.4725    1.6377    7.4265 H         1 RES1    0.0000
      8 C5         2.5667    0.4896    3.4375 C.ar      1 RES1    0.0000
      9 C6         1.3990    0.9330    2.7441 C.ar      1 RES1    0.0000
     10 H4         1.0217    1.7797    2.9525 H         1 RES1    0.0000
     11 C7         0.8207    0.1534    1.7848 C.ar      1 RES1    0.0000
     12 H5         0.0446    0.4638    1.3327 H         1 RES1    0.0000
     13 C1B        4.2383   -1.2668    3.7912 C.ar      1 RES1    0.0000
     14 H1B        4.5914   -2.1237    3.5828 H         1 RES1    0.0000
     15 C2B        3.1053   -0.8078    3.1142 C.ar      1 RES1    0.0000
     16 C3B        2.4640   -1.5820    2.1032 C.ar      1 RES1    0.0000
     17 H2B        2.8099   -2.4377    1.8775 H         1 RES1    0.0000
     18 C4B        1.3626   -1.1116    1.4574 C.ar      1 RES1    0.0000
     19 H3B        0.9548   -1.6377    0.7796 H         1 RES1    0.0000
     20 C5B        4.8605   -0.4896    4.7685 C.ar      1 RES1    0.0000
     21 C6B        6.0282   -0.9330    5.4619 C.ar      1 RES1    0.0000
     22 H4B        6.4055   -1.7797    5.2535 H         1 RES1    0.0000
     23 C7B        6.6065   -0.1534    6.4212 C.ar      1 RES1    0.0000
     24 H5B        7.3826   -0.4638    6.8734 H         1 RES1    0.0000
@<TRIPOS>BOND
     1    1    2 1
     2    3    1 ar
     3    4    3 ar
     4    5    4 1
     5    6    4 ar
     6    7    6 1
     7    8    1 ar
     8    9    8 ar
     9   10    9 1
    10   11    9 ar
    11   12   11 1
    12   13   14 1
    13   15    8 ar
    14   16   15 ar
    15   17   16 1
    16   18   11 ar
    17   19   18 1
    18   20    3 ar
    19   21   20 ar
    20   22   21 1
    21   23    6 ar
    22   24   23 1
    23   13   15 ar
    24   13   20 ar
    25   16   18 ar
    26   21   23 ar
@<TRIPOS>SUBSTRUCTURE
     1 RES1 1

@<TRIPOS>CRYSIN
   9.2627    5.9923    8.4088  90.0000 102.6080  90.0000  14 1

