# MOL2 file generated by ConQuest
# Please check atom types

@<TRIPOS>MOLECULE
ANTCEN19
    24    26     1
SMALL
NO_CHARGES
****
Generated from CSD

@<TRIPOS>ATOM
      1 C1         4.8711    3.4960    4.8168 C.ar      1 RES1    0.0000
      2 C2         6.0410    3.9317    5.5042 C.ar      1 RES1    0.0000
      3 H1         6.3983    4.8140    5.2505 H         1 RES1    0.0000
      4 C3         6.6081    3.1817    6.4649 C.ar      1 RES1    0.0000
      5 H2         7.4133    3.4858    6.9374 H         1 RES1    0.0000
      6 C4         6.0651    1.9262    6.8135 C.ar      1 RES1    0.0000
      7 H3         6.4781    1.3583    7.5197 H         1 RES1    0.0000
      8 C5         4.9688    1.4604    6.1799 C.ar      1 RES1    0.0000
      9 H4         4.5471    0.5289    6.3826 H         1 RES1    0.0000
     10 C6         4.3260    2.2153    5.1546 C.ar      1 RES1    0.0000
     11 C7         4.2514    4.2485    3.8255 C.ar      1 RES1    0.0000
     12 H5         4.6518    5.1626    3.5968 H         1 RES1    0.0000
     13 C1B        2.5774    2.5140    3.5015 C.ar      1 RES1    0.0000
     14 C2B        1.4075    2.0783    2.8141 C.ar      1 RES1    0.0000
     15 H1B        1.0502    1.1960    3.0678 H         1 RES1    0.0000
     16 C3B        0.8404    2.8283    1.8533 C.ar      1 RES1    0.0000
     17 H2B        0.0352    2.5242    1.3808 H         1 RES1    0.0000
     18 C4B        1.3834    4.0838    1.5048 C.ar      1 RES1    0.0000
     19 H3B        0.9704    4.6517    0.7986 H         1 RES1    0.0000
     20 C5B        2.4797    4.5496    2.1384 C.ar      1 RES1    0.0000
     21 H4B        2.9014    5.4811    1.9357 H         1 RES1    0.0000
     22 C6B        3.1225    3.7947    3.1637 C.ar      1 RES1    0.0000
     23 C7B        3.1971    1.7615    4.4928 C.ar      1 RES1    0.0000
     24 H5B        2.7967    0.8474    4.7214 H         1 RES1    0.0000
@<TRIPOS>BOND
     1    1    2 ar
     2    2    3 1
     3    4    2 ar
     4    5    4 1
     5    6    4 ar
     6    7    6 1
     7    8    6 ar
     8    9    8 1
     9   10    1 ar
    10   11    1 ar
    11   12   11 1
    12   13   14 ar
    13   14   15 1
    14   16   14 ar
    15   17   16 1
    16   18   16 ar
    17   19   18 1
    18   20   18 ar
    19   21   20 1
    20   22   11 ar
    21   23   10 ar
    22   24   23 1
    23    8   10 ar
    24   13   22 ar
    25   13   23 ar
    26   20   22 ar
@<TRIPOS>SUBSTRUCTURE
     1 RES1 1

@<TRIPOS>CRYSIN
   9.4583    6.0100    8.5576  90.0000 103.5830  90.0000  14 1

