# MOL2 file generated by ConQuest
# Please check atom types

@<TRIPOS>MOLECULE
ANTCEN04
    14    16     1
SMALL
NO_CHARGES
****
Generated from CSD

@<TRIPOS>ATOM
      1 C1        -1.5755    0.1754    3.3576 C.ar      1 RES1    0.0000
      2 C2        -2.0436   -1.0818    2.9011 C.ar      1 RES1    0.0000
      3 C3        -0.7655    0.9385    2.5751 C.ar      1 RES1    0.0000
      4 C4        -1.6778   -1.5612    1.6736 C.ar      1 RES1    0.0000
      5 C5        -0.3727    0.4957    1.2680 C.ar      1 RES1    0.0000
      6 C6        -0.8289   -0.7899    0.8245 C.ar      1 RES1    0.0000
      7 C7         0.4480    1.2583    0.4339 C.ar      1 RES1    0.0000
      8 C7B       -0.4480   -1.2583   -0.4339 C.ar      1 RES1    0.0000
      9 C6B        0.8289    0.7899   -0.8245 C.ar      1 RES1    0.0000
     10 C5B        0.3727   -0.4957   -1.2680 C.ar      1 RES1    0.0000
     11 C4B        1.6778    1.5612   -1.6736 C.ar      1 RES1    0.0000
     12 C3B        0.7655   -0.9385   -2.5751 C.ar      1 RES1    0.0000
     13 C2B        2.0436    1.0818   -2.9011 C.ar      1 RES1    0.0000
     14 C1B        1.5755   -0.1754   -3.3576 C.ar      1 RES1    0.0000
@<TRIPOS>BOND
     1    1    2 ar
     2    2    4 ar
     3    3    1 ar
     4    4    6 ar
     5    5    3 ar
     6    6    5 ar
     7    7    5 ar
     8    8    6 ar
     9    9    7 ar
    10   10    8 ar
    11   11    9 ar
    12   12   10 ar
    13   13   11 ar
    14   14   12 ar
    15    9   10 ar
    16   13   14 ar
@<TRIPOS>SUBSTRUCTURE
     1 RES1 1

@<TRIPOS>CRYSIN
   8.5610    6.0360   11.1630  90.0000 124.7000  90.0000  14 2

