# MOL2 file generated by ConQuest
# Please check atom types

@<TRIPOS>MOLECULE
ANTCEN21
    24    26     1
SMALL
NO_CHARGES
****
Generated from CSD

@<TRIPOS>ATOM
      1 C1         3.2058    1.2681    4.4237 C.ar      1 RES1    0.0000
      2 H1         2.8524    2.1243    4.6346 H         1 RES1    0.0000
      3 C2         4.3437    0.8057    5.0998 C.ar      1 RES1    0.0000
      4 C3         4.9854    1.5868    6.1118 C.ar      1 RES1    0.0000
      5 H2         4.6371    2.4423    6.3349 H         1 RES1    0.0000
      6 C4         6.0932    1.1186    6.7630 C.ar      1 RES1    0.0000
      7 H3         6.5019    1.6462    7.4391 H         1 RES1    0.0000
      8 C5         2.5803    0.4885    3.4412 C.ar      1 RES1    0.0000
      9 C6         1.4077    0.9358    2.7509 C.ar      1 RES1    0.0000
     10 H4         1.0316    1.7818    2.9631 H         1 RES1    0.0000
     11 C7         0.8234    0.1578    1.7893 C.ar      1 RES1    0.0000
     12 H5         0.0482    0.4697    1.3377 H         1 RES1    0.0000
     13 C1B        4.2573   -1.2681    3.7981 C.ar      1 RES1    0.0000
     14 H1B        4.6106   -2.1243    3.5872 H         1 RES1    0.0000
     15 C2B        3.1193   -0.8057    3.1220 C.ar      1 RES1    0.0000
     16 C3B        2.4776   -1.5868    2.1100 C.ar      1 RES1    0.0000
     17 H2B        2.8259   -2.4423    1.8869 H         1 RES1    0.0000
     18 C4B        1.3698   -1.1186    1.4588 C.ar      1 RES1    0.0000
     19 H3B        0.9611   -1.6462    0.7827 H         1 RES1    0.0000
     20 C5B        4.8828   -0.4885    4.7806 C.ar      1 RES1    0.0000
     21 C6B        6.0553   -0.9358    5.4710 C.ar      1 RES1    0.0000
     22 H4B        6.4314   -1.7818    5.2587 H         1 RES1    0.0000
     23 C7B        6.6397   -0.1578    6.4325 C.ar      1 RES1    0.0000
     24 H5B        7.4148   -0.4697    6.8841 H         1 RES1    0.0000
@<TRIPOS>BOND
     1    1    2 1
     2    3    1 ar
     3    4    3 ar
     4    5    4 1
     5    6    4 ar
     6    7    6 1
     7    8    1 ar
     8    9    8 ar
     9   10    9 1
    10   11    9 ar
    11   12   11 1
    12   13   14 1
    13   15    8 ar
    14   16   15 ar
    15   17   16 1
    16   18   11 ar
    17   19   18 1
    18   20    3 ar
    19   21   20 ar
    20   22   21 1
    21   23    6 ar
    22   24   23 1
    23   13   15 ar
    24   13   20 ar
    25   16   18 ar
    26   21   23 ar
@<TRIPOS>SUBSTRUCTURE
     1 RES1 1

@<TRIPOS>CRYSIN
   9.2838    5.9992    8.4210  90.0000 102.4870  90.0000  14 1

