# MOL2 file generated by ConQuest
# Please check atom types

@<TRIPOS>MOLECULE
ANTCEN17
    48    52     2
SMALL
NO_CHARGES
****
Generated from CSD

@<TRIPOS>ATOM
      1 C1        -1.5167    0.3191    3.4585 C.ar      1 RES1    0.0000
      2 C2        -0.7911    0.9995    2.5534 C.ar      1 RES1    0.0000
      3 C3        -0.4837    0.4877    1.3613 C.ar      1 RES1    0.0000
      4 C4         0.4525    1.2584    0.3863 C.ar      1 RES1    0.0000
      5 C5        -0.9195   -0.7586    0.9382 C.ar      1 RES1    0.0000
      6 C6        -1.7237   -1.5474    1.7090 C.ar      1 RES1    0.0000
      7 C7        -2.0529   -1.0477    2.9453 C.ar      1 RES1    0.0000
      8 H1        -1.7909   -0.5419    4.3415 H         1 RES1    0.0000
      9 H2        -0.4188    1.6257    3.3297 H         1 RES1    0.0000
     10 H3         0.9963    2.0231   -0.0184 H         1 RES1    0.0000
     11 H4        -2.4670   -2.3482    1.4717 H         1 RES1    0.0000
     12 H5        -2.3741   -2.0471    3.6977 H         1 RES1    0.0000
     13 C8        -8.0786    3.4922   17.1546 C.ar      2 RES2    0.0000
     14 C9        -7.6181    2.1676   17.6164 C.ar      2 RES2    0.0000
     15 C10       -6.4042    1.9207   15.5173 C.ar      2 RES2    0.0000
     16 C11       -6.8134    3.1249   15.1053 C.ar      2 RES2    0.0000
     17 C12       -6.7635    1.4511   16.6855 C.ar      2 RES2    0.0000
     18 C13       -7.7079    3.9016   15.8209 C.ar      2 RES2    0.0000
     19 C14       -8.8660    4.2749   17.9383 C.ar      2 RES2    0.0000
     20 H6        -5.5555    1.3246   15.0298 H         2 RES2    0.0000
     21 H7        -6.6251    3.4259   14.0364 H         2 RES2    0.0000
     22 H8        -6.4478    0.3853   17.0718 H         2 RES2    0.0000
     23 H9        -8.0853    4.9131   15.7105 H         2 RES2    0.0000
     24 H10       -8.8773    5.4189   17.4950 H         2 RES2    0.0000
     25 C5B        0.9195    0.7586   -0.9382 C.ar      1 RES1    0.0000
     26 C3B        0.4837   -0.4877   -1.3613 C.ar      1 RES1    0.0000
     27 C2B        0.7911   -0.9995   -2.5534 C.ar      1 RES1    0.0000
     28 C1B        1.5167   -0.3191   -3.4585 C.ar      1 RES1    0.0000
     29 C7B        2.0529    1.0477   -2.9453 C.ar      1 RES1    0.0000
     30 C6B        1.7237    1.5474   -1.7090 C.ar      1 RES1    0.0000
     31 H4B        2.4670    2.3482   -1.4717 H         1 RES1    0.0000
     32 H5B        2.3741    2.0471   -3.6977 H         1 RES1    0.0000
     33 H1B        1.7909    0.5419   -4.3415 H         1 RES1    0.0000
     34 H2B        0.4188   -1.6257   -3.3297 H         1 RES1    0.0000
     35 C4B       -0.4525   -1.2584   -0.3863 C.ar      1 RES1    0.0000
     36 H3B       -0.9963   -2.0231    0.0184 H         1 RES1    0.0000
     37 C9B       -9.1537    3.8534   19.1764 C.ar      2 RES2    0.0000
     38 C8B       -8.6932    2.5288   19.6381 C.ar      2 RES2    0.0000
     39 C13B      -9.0638    2.1194   20.9719 C.ar      2 RES2    0.0000
     40 C11B      -9.9584    2.8961   21.6875 C.ar      2 RES2    0.0000
     41 C10B     -10.3676    4.1003   21.2754 C.ar      2 RES2    0.0000
     42 C12B     -10.0083    4.5699   20.1072 C.ar      2 RES2    0.0000
     43 H8B      -10.3239    5.6357   19.7209 H         2 RES2    0.0000
     44 H6B      -11.2163    4.6964   21.7629 H         2 RES2    0.0000
     45 H7B      -10.1467    2.5951   22.7563 H         2 RES2    0.0000
     46 H9B       -8.6865    1.1079   21.0822 H         2 RES2    0.0000
     47 C14B      -7.9058    1.7461   18.8544 C.ar      2 RES2    0.0000
     48 H10B      -7.8945    0.6021   19.2978 H         2 RES2    0.0000
@<TRIPOS>BOND
     1    1    2 ar
     2    2    3 ar
     3    3    4 ar
     4    4   10 1
     5    5    3 ar
     6    6    5 ar
     7    7    1 ar
     8    8    1 1
     9    9    2 1
    10   11    6 1
    11   12    7 1
    12   13   14 ar
    13   14   17 ar
    14   15   16 ar
    15   16   18 ar
    16   17   15 ar
    17   18   13 ar
    18   19   13 ar
    19   20   15 1
    20   21   16 1
    21   22   17 1
    22   23   18 1
    23   24   19 1
    24   25    4 ar
    25   26   25 ar
    26   27   26 ar
    27   28   27 ar
    28   29   28 ar
    29   30   25 ar
    30   31   30 1
    31   32   29 1
    32   33   28 1
    33   34   27 1
    34   35    5 ar
    35   36   35 1
    36   37   19 ar
    37   38   37 ar
    38   39   38 ar
    39   40   39 ar
    40   41   40 ar
    41   42   37 ar
    42   43   42 1
    43   44   41 1
    44   45   40 1
    45   46   39 1
    46   47   14 ar
    47   48   47 1
    48    6    7 ar
    49   26   35 ar
    50   29   30 ar
    51   38   47 ar
    52   41   42 ar
@<TRIPOS>SUBSTRUCTURE
     1 RES1 1
     2 RES2 13

@<TRIPOS>CRYSIN
   8.5530    6.0210   22.3330  90.0000 124.5400  90.0000 231 1

