# MOL2 file generated by ConQuest
# Please check atom types

@<TRIPOS>MOLECULE
ANTCEN20
    24    26     1
SMALL
NO_CHARGES
****
Generated from CSD

@<TRIPOS>ATOM
      1 C1         3.2030    1.2650    4.4184 C.ar      1 RES1    0.0000
      2 H1         2.8500    2.1212    4.6290 H         1 RES1    0.0000
      3 C2         4.3369    0.8064    5.0937 C.ar      1 RES1    0.0000
      4 C3         4.9781    1.5840    6.1032 C.ar      1 RES1    0.0000
      5 H2         4.6304    2.4395    6.3263 H         1 RES1    0.0000
      6 C4         6.0825    1.1181    6.7522 C.ar      1 RES1    0.0000
      7 H3         6.4918    1.6469    7.4267 H         1 RES1    0.0000
      8 C5         2.5786    0.4886    3.4391 C.ar      1 RES1    0.0000
      9 C6         1.4081    0.9299    2.7457 C.ar      1 RES1    0.0000
     10 H4         1.0307    1.7764    2.9570 H         1 RES1    0.0000
     11 C7         0.8257    0.1577    1.7883 C.ar      1 RES1    0.0000
     12 H5         0.0510    0.4706    1.3360 H         1 RES1    0.0000
     13 C1B        4.2487   -1.2650    3.7933 C.ar      1 RES1    0.0000
     14 H1B        4.6017   -2.1212    3.5828 H         1 RES1    0.0000
     15 C2B        3.1148   -0.8064    3.1181 C.ar      1 RES1    0.0000
     16 C3B        2.4736   -1.5840    2.1085 C.ar      1 RES1    0.0000
     17 H2B        2.8213   -2.4395    1.8854 H         1 RES1    0.0000
     18 C4B        1.3692   -1.1181    1.4596 C.ar      1 RES1    0.0000
     19 H3B        0.9599   -1.6469    0.7850 H         1 RES1    0.0000
     20 C5B        4.8731   -0.4886    4.7727 C.ar      1 RES1    0.0000
     21 C6B        6.0436   -0.9299    5.4661 C.ar      1 RES1    0.0000
     22 H4B        6.4210   -1.7764    5.2547 H         1 RES1    0.0000
     23 C7B        6.6260   -0.1577    6.4235 C.ar      1 RES1    0.0000
     24 H5B        7.4007   -0.4706    6.8757 H         1 RES1    0.0000
@<TRIPOS>BOND
     1    1    2 1
     2    3    1 ar
     3    4    3 ar
     4    5    4 1
     5    6    4 ar
     6    7    6 1
     7    8    1 ar
     8    9    8 ar
     9   10    9 1
    10   11    9 ar
    11   12   11 1
    12   13   14 1
    13   15    8 ar
    14   16   15 ar
    15   17   16 1
    16   18   11 ar
    17   19   18 1
    18   20    3 ar
    19   21   20 ar
    20   22   21 1
    21   23    6 ar
    22   24   23 1
    23   13   15 ar
    24   13   20 ar
    25   16   18 ar
    26   21   23 ar
@<TRIPOS>SUBSTRUCTURE
     1 RES1 1

@<TRIPOS>CRYSIN
   9.2689    5.9954    8.4104  90.0000 102.4780  90.0000  14 1

