# MOL2 file generated by ConQuest
# Please check atom types

@<TRIPOS>MOLECULE
ANTCEN12
    24    26     1
SMALL
NO_CHARGES
****
Generated from CSD

@<TRIPOS>ATOM
      1 C1        -1.5982    0.1693    3.3448 C.ar      1 RES1    0.0000
      2 C2        -0.7938    0.9317    2.5682 C.ar      1 RES1    0.0000
      3 C3        -0.3866    0.4911    1.2699 C.ar      1 RES1    0.0000
      4 C4         0.4340    1.2559    0.4422 C.ar      1 RES1    0.0000
      5 C5        -0.8312   -0.7966    0.8186 C.ar      1 RES1    0.0000
      6 C6        -1.6777   -1.5669    1.6738 C.ar      1 RES1    0.0000
      7 C7        -2.0530   -1.0980    2.8898 C.ar      1 RES1    0.0000
      8 H1        -1.8664    0.4743    4.2575 H         1 RES1    0.0000
      9 H2        -0.4534    1.8130    2.8779 H         1 RES1    0.0000
     10 H3         0.7431    2.1192    0.7492 H         1 RES1    0.0000
     11 H4        -1.9906   -2.4493    1.3430 H         1 RES1    0.0000
     12 H5        -2.6605   -1.6509    3.5083 H         1 RES1    0.0000
     13 C5B        0.8312    0.7966   -0.8186 C.ar      1 RES1    0.0000
     14 C4B       -0.4340   -1.2559   -0.4422 C.ar      1 RES1    0.0000
     15 C3B        0.3866   -0.4911   -1.2699 C.ar      1 RES1    0.0000
     16 C6B        1.6777    1.5669   -1.6738 C.ar      1 RES1    0.0000
     17 H3B       -0.7431   -2.1192   -0.7492 H         1 RES1    0.0000
     18 C2B        0.7938   -0.9317   -2.5682 C.ar      1 RES1    0.0000
     19 C7B        2.0530    1.0980   -2.8898 C.ar      1 RES1    0.0000
     20 H4B        1.9906    2.4493   -1.3430 H         1 RES1    0.0000
     21 C1B        1.5982   -0.1693   -3.3448 C.ar      1 RES1    0.0000
     22 H2B        0.4534   -1.8130   -2.8779 H         1 RES1    0.0000
     23 H5B        2.6605    1.6509   -3.5083 H         1 RES1    0.0000
     24 H1B        1.8664   -0.4743   -4.2575 H         1 RES1    0.0000
@<TRIPOS>BOND
     1    1    2 ar
     2    2    3 ar
     3    3    4 ar
     4    4   10 1
     5    5    3 ar
     6    6    5 ar
     7    7    1 ar
     8    8    1 1
     9    9    2 1
    10   11    6 1
    11   12    7 1
    12   13    4 ar
    13   14    5 ar
    14   15   13 ar
    15   16   13 ar
    16   17   14 1
    17   18   15 ar
    18   19   16 ar
    19   20   16 1
    20   21   18 ar
    21   22   18 1
    22   23   19 1
    23   24   21 1
    24    6    7 ar
    25   14   15 ar
    26   19   21 ar
@<TRIPOS>SUBSTRUCTURE
     1 RES1 1

@<TRIPOS>CRYSIN
   8.4959    6.0033   11.1407  90.0000 124.9070  90.0000  14 2

