# MOL2 file generated by ConQuest
# Please check atom types

@<TRIPOS>MOLECULE
ANTCEN07
    24    26     1
SMALL
NO_CHARGES
****
Generated from CSD

@<TRIPOS>ATOM
      1 C1         3.6545    0.6147    0.1745 C.ar      1 RES1    0.0000
      2 C2         2.5527    0.8301    0.9361 C.ar      1 RES1    0.0000
      3 C3         1.2612    0.4168    0.4927 C.ar      1 RES1    0.0000
      4 C4         0.1040    0.6154    1.2513 C.ar      1 RES1    0.0000
      5 C5         1.1487   -0.2155   -0.7929 C.ar      1 RES1    0.0000
      6 C6         2.3396   -0.4225   -1.5521 C.ar      1 RES1    0.0000
      7 C7         3.5456   -0.0261   -1.0859 C.ar      1 RES1    0.0000
      8 H1         4.5597    0.8590    0.4476 H         1 RES1    0.0000
      9 H2         2.6193    1.2892    1.7615 H         1 RES1    0.0000
     10 H3         0.1942    1.0759    2.1008 H         1 RES1    0.0000
     11 H4         2.2172   -0.8541   -2.4491 H         1 RES1    0.0000
     12 H5         4.3373   -0.1176   -1.5834 H         1 RES1    0.0000
     13 C5B       -1.1487    0.2155    0.7929 C.ar      1 RES1    0.0000
     14 C4B       -0.1040   -0.6154   -1.2513 C.ar      1 RES1    0.0000
     15 C3B       -1.2612   -0.4168   -0.4927 C.ar      1 RES1    0.0000
     16 C6B       -2.3396    0.4225    1.5521 C.ar      1 RES1    0.0000
     17 H3B       -0.1942   -1.0759   -2.1008 H         1 RES1    0.0000
     18 C2B       -2.5527   -0.8301   -0.9361 C.ar      1 RES1    0.0000
     19 C7B       -3.5456    0.0261    1.0859 C.ar      1 RES1    0.0000
     20 H4B       -2.2172    0.8541    2.4491 H         1 RES1    0.0000
     21 C1B       -3.6545   -0.6147   -0.1745 C.ar      1 RES1    0.0000
     22 H2B       -2.6193   -1.2892   -1.7615 H         1 RES1    0.0000
     23 H5B       -4.3373    0.1176    1.5834 H         1 RES1    0.0000
     24 H1B       -4.5597   -0.8590   -0.4476 H         1 RES1    0.0000
@<TRIPOS>BOND
     1    1    2 ar
     2    2    3 ar
     3    3    4 ar
     4    4   10 1
     5    5    3 ar
     6    6    5 ar
     7    7    1 ar
     8    8    1 1
     9    9    2 1
    10   11    6 1
    11   12    7 1
    12   13    4 ar
    13   14    5 ar
    14   15   13 ar
    15   16   13 ar
    16   17   14 1
    17   18   15 ar
    18   19   16 ar
    19   20   16 1
    20   21   18 ar
    21   22   18 1
    22   23   19 1
    23   24   21 1
    24    6    7 ar
    25   14   15 ar
    26   19   21 ar
@<TRIPOS>SUBSTRUCTURE
     1 RES1 1

@<TRIPOS>CRYSIN
  11.1740    8.5540    6.0160  90.0000  90.0000 124.6000  14 3

