# MOL2 file generated by ConQuest
# Please check atom types

@<TRIPOS>MOLECULE
ANTMEU03
    56    62     1
SMALL
NO_CHARGES
****
Generated from CSD

@<TRIPOS>ATOM
      1 C1         0.7026    7.2549    6.4229 C.ar      1 RES1    0.0000
      2 H1         0.8085    6.6024    7.0774 H         1 RES1    0.0000
      3 C2         1.6993    8.1314    6.2159 C.ar      1 RES1    0.0000
      4 H2         2.4571    8.1057    6.7537 H         1 RES1    0.0000
      5 C3         1.6034    9.0707    5.2065 C.ar      1 RES1    0.0000
      6 H3         2.3000    9.6717    5.0688 H         1 RES1    0.0000
      7 C4         0.5047    9.1246    4.4181 C.ar      1 RES1    0.0000
      8 H4         0.4797    9.7381    3.7201 H         1 RES1    0.0000
      9 C5        -4.2364    7.9960    3.8368 C.ar      1 RES1    0.0000
     10 H5        -4.3222    8.5911    3.1270 H         1 RES1    0.0000
     11 C6        -5.3430    7.4221    4.3551 C.ar      1 RES1    0.0000
     12 H6        -6.1808    7.6574    4.0267 H         1 RES1    0.0000
     13 C7        -5.2422    6.4721    5.3847 C.ar      1 RES1    0.0000
     14 H7        -6.0120    6.0799    5.7303 H         1 RES1    0.0000
     15 C8        -4.0321    6.1231    5.8774 C.ar      1 RES1    0.0000
     16 H8        -3.9778    5.4681    6.5350 H         1 RES1    0.0000
     17 C9        -1.5798    6.3967    5.9045 C.ar      1 RES1    0.0000
     18 C10       -1.7899    8.3160    3.8469 C.ar      1 RES1    0.0000
     19 C11       -2.9495    7.7113    4.3520 C.ar      1 RES1    0.0000
     20 C12       -2.8424    6.7401    5.4085 C.ar      1 RES1    0.0000
     21 C13       -0.5169    7.2876    5.6724 C.ar      1 RES1    0.0000
     22 C14       -0.6236    8.2648    4.6276 C.ar      1 RES1    0.0000
     23 C15       -1.7725    8.8646    2.4414 C.3       1 RES1    0.0000
     24 H9        -0.9333    9.3294    2.2966 H         1 RES1    0.0000
     25 H10       -2.4884    9.5133    2.3495 H         1 RES1    0.0000
     26 C16       -1.3419    4.9999    6.4385 C.3       1 RES1    0.0000
     27 H11       -1.9677    4.8244    7.1584 H         1 RES1    0.0000
     28 H12       -0.4452    4.9483    6.8050 H         1 RES1    0.0000
     29 C1B       -3.9837    5.5181    1.3596 C.ar      1 RES1    0.0000
     30 H1B       -4.0895    6.1706    0.7051 H         1 RES1    0.0000
     31 C2B       -4.9804    4.6416    1.5666 C.ar      1 RES1    0.0000
     32 H2B       -5.7382    4.6673    1.0289 H         1 RES1    0.0000
     33 C3B       -4.8845    3.7023    2.5760 C.ar      1 RES1    0.0000
     34 H3B       -5.5811    3.1013    2.7138 H         1 RES1    0.0000
     35 C4B       -3.7857    3.6484    3.3644 C.ar      1 RES1    0.0000
     36 H4B       -3.7608    3.0349    4.0625 H         1 RES1    0.0000
     37 C5B        0.9554    4.7770    3.9457 C.ar      1 RES1    0.0000
     38 H5B        1.0411    4.1819    4.6555 H         1 RES1    0.0000
     39 C6B        2.0619    5.3509    3.4274 C.ar      1 RES1    0.0000
     40 H6B        2.8997    5.1156    3.7559 H         1 RES1    0.0000
     41 C7B        1.9611    6.3009    2.3978 C.ar      1 RES1    0.0000
     42 H7B        2.7310    6.6931    2.0523 H         1 RES1    0.0000
     43 C8B        0.7511    6.6499    1.9052 C.ar      1 RES1    0.0000
     44 H8B        0.6967    7.3049    1.2475 H         1 RES1    0.0000
     45 C9B       -1.7013    6.3763    1.8781 C.ar      1 RES1    0.0000
     46 C10B      -1.4912    4.4570    3.9356 C.ar      1 RES1    0.0000
     47 C11B      -0.3316    5.0617    3.4305 C.ar      1 RES1    0.0000
     48 C12B      -0.4386    6.0329    2.3741 C.ar      1 RES1    0.0000
     49 C13B      -2.7642    5.4854    2.1102 C.ar      1 RES1    0.0000
     50 C14B      -2.6575    4.5082    3.1549 C.ar      1 RES1    0.0000
     51 C15B      -1.5085    3.9084    5.3412 C.3       1 RES1    0.0000
     52 H9B       -2.3477    3.4436    5.4859 H         1 RES1    0.0000
     53 H10B      -0.7927    3.2597    5.4330 H         1 RES1    0.0000
     54 C16B      -1.9392    7.7731    1.3440 C.3       1 RES1    0.0000
     55 H11B      -1.3134    7.9486    0.6242 H         1 RES1    0.0000
     56 H12B      -2.8359    7.8247    0.9775 H         1 RES1    0.0000
@<TRIPOS>BOND
     1    1    2 1
     2    3    1 ar
     3    4    3 1
     4    5    3 ar
     5    6    5 1
     6    7    5 ar
     7    8    7 1
     8    9   10 1
     9   11    9 ar
    10   12   11 1
    11   13   11 ar
    12   14   13 1
    13   15   13 ar
    14   16   15 1
    15   17   20 ar
    16   18   19 ar
    17   19    9 ar
    18   20   15 ar
    19   21    1 ar
    20   22    7 ar
    21   23   18 1
    22   24   23 1
    23   25   23 1
    24   26   17 1
    25   27   26 1
    26   28   26 1
    27   29   30 1
    28   31   29 ar
    29   32   31 1
    30   33   31 ar
    31   34   33 1
    32   35   33 ar
    33   36   35 1
    34   37   38 1
    35   39   37 ar
    36   40   39 1
    37   41   39 ar
    38   42   41 1
    39   43   41 ar
    40   44   43 1
    41   45   48 ar
    42   46   47 ar
    43   47   37 ar
    44   48   43 ar
    45   49   29 ar
    46   50   35 ar
    47   51   26 1
    48   52   51 1
    49   53   51 1
    50   54   23 1
    51   55   54 1
    52   56   54 1
    53   17   21 ar
    54   18   22 ar
    55   19   20 ar
    56   21   22 ar
    57   45   49 ar
    58   45   54 1
    59   46   50 ar
    60   46   51 1
    61   47   48 ar
    62   49   50 ar
@<TRIPOS>SUBSTRUCTURE
     1 RES1 1

@<TRIPOS>CRYSIN
  10.2660   12.7730    8.4459  90.0000 112.8600  90.0000  14 1

