# MOL2 file generated by ConQuest
# Please check atom types

@<TRIPOS>MOLECULE
ANTMEU
    56    62     1
SMALL
NO_CHARGES
****
Generated from CSD

@<TRIPOS>ATOM
      1 C1         7.2863    2.7470    0.5265 C.ar      1 RES1    0.0000
      2 C2         8.3807    2.6934    1.3138 C.ar      1 RES1    0.0000
      3 C3         8.4791    1.7450    2.3352 C.ar      1 RES1    0.0000
      4 C4         7.4783    0.8591    2.5466 C.ar      1 RES1    0.0000
      5 C5         2.7384   -0.2669    1.9879 C.ar      1 RES1    0.0000
      6 C6         1.5233    0.0916    1.4980 C.ar      1 RES1    0.0000
      7 C7         1.4156    1.0371    0.4652 C.ar      1 RES1    0.0000
      8 C8         2.5330    1.6172   -0.0614 C.ar      1 RES1    0.0000
      9 C9         4.9928    1.9333   -0.0409 C.ar      1 RES1    0.0000
     10 C10        5.2055    0.0101    2.0164 C.ar      1 RES1    0.0000
     11 C11        6.1585    1.8800    0.7384 C.ar      1 RES1    0.0000
     12 C12        6.2603    0.9015    1.7854 C.ar      1 RES1    0.0000
     13 C13        3.9304    0.3552    1.5186 C.ar      1 RES1    0.0000
     14 C14        3.8287    1.3261    0.4610 C.ar      1 RES1    0.0000
     15 C15        5.0088    2.4889   -1.4582 C.3       1 RES1    0.0000
     16 C16        5.4368   -1.3885    2.5581 C.3       1 RES1    0.0000
     17 H1         7.2502    3.3725   -0.1770 H         1 RES1    0.0000
     18 H2         9.1670    3.4173    1.1442 H         1 RES1    0.0000
     19 H3         9.3299    1.7515    2.9271 H         1 RES1    0.0000
     20 H4         7.5592    0.1689    3.2508 H         1 RES1    0.0000
     21 H5         2.7993   -0.9775    2.7071 H         1 RES1    0.0000
     22 H6         0.7127   -0.3262    1.9023 H         1 RES1    0.0000
     23 H7         0.5410    1.3536    0.1474 H         1 RES1    0.0000
     24 H8         2.4391    2.3106   -0.8041 H         1 RES1    0.0000
     25 H9         5.9586    2.9388   -1.6893 H         1 RES1    0.0000
     26 H10        4.3326    3.2011   -1.5794 H         1 RES1    0.0000
     27 H11        6.4895   -1.4931    2.9123 H         1 RES1    0.0000
     28 H12        4.9618   -1.6287    3.2882 H         1 RES1    0.0000
     29 C16B       4.8402    1.3885   -2.5581 C.3       1 RES1    0.0000
     30 C15B       5.2682   -2.4889    1.4582 C.3       1 RES1    0.0000
     31 C10B       5.0715   -0.0101   -2.0164 C.ar      1 RES1    0.0000
     32 H11B       3.7875    1.4931   -2.9123 H         1 RES1    0.0000
     33 H12B       5.3152    1.6287   -3.2882 H         1 RES1    0.0000
     34 C9B        5.2842   -1.9333    0.0409 C.ar      1 RES1    0.0000
     35 H9B        4.3184   -2.9388    1.6893 H         1 RES1    0.0000
     36 H10B       5.9444   -3.2011    1.5794 H         1 RES1    0.0000
     37 C12B       4.0167   -0.9015   -1.7854 C.ar      1 RES1    0.0000
     38 C13B       6.3466   -0.3552   -1.5186 C.ar      1 RES1    0.0000
     39 C11B       4.1185   -1.8800   -0.7384 C.ar      1 RES1    0.0000
     40 C14B       6.4483   -1.3261   -0.4610 C.ar      1 RES1    0.0000
     41 C4B        2.7987   -0.8591   -2.5466 C.ar      1 RES1    0.0000
     42 C5B        7.5386    0.2669   -1.9879 C.ar      1 RES1    0.0000
     43 C1B        2.9907   -2.7470   -0.5265 C.ar      1 RES1    0.0000
     44 C8B        7.7440   -1.6172    0.0614 C.ar      1 RES1    0.0000
     45 C3B        1.7979   -1.7450   -2.3352 C.ar      1 RES1    0.0000
     46 H4B        2.7178   -0.1689   -3.2508 H         1 RES1    0.0000
     47 C6B        8.7537   -0.0916   -1.4980 C.ar      1 RES1    0.0000
     48 H5B        7.4777    0.9775   -2.7071 H         1 RES1    0.0000
     49 C2B        1.8963   -2.6934   -1.3138 C.ar      1 RES1    0.0000
     50 H1B        3.0268   -3.3725    0.1770 H         1 RES1    0.0000
     51 C7B        8.8614   -1.0371   -0.4652 C.ar      1 RES1    0.0000
     52 H8B        7.8379   -2.3106    0.8041 H         1 RES1    0.0000
     53 H3B        0.9471   -1.7515   -2.9271 H         1 RES1    0.0000
     54 H6B        9.5643    0.3262   -1.9023 H         1 RES1    0.0000
     55 H2B        1.1100   -3.4173   -1.1442 H         1 RES1    0.0000
     56 H7B        9.7360   -1.3536   -0.1474 H         1 RES1    0.0000
@<TRIPOS>BOND
     1    1    2 ar
     2    2    3 ar
     3    3    4 ar
     4    4   12 ar
     5    5    6 ar
     6    6    7 ar
     7    7    8 ar
     8    8   14 ar
     9    9   11 ar
    10   10   12 ar
    11   11    1 ar
    12   12   11 ar
    13   13    5 ar
    14   14    9 ar
    15   15    9 1
    16   16   10 1
    17   17    1 1
    18   18    2 1
    19   19    3 1
    20   20    4 1
    21   21    5 1
    22   22    6 1
    23   23    7 1
    24   24    8 1
    25   25   15 1
    26   26   15 1
    27   27   16 1
    28   28   16 1
    29   29   15 1
    30   30   16 1
    31   31   29 1
    32   32   29 1
    33   33   29 1
    34   34   30 1
    35   35   30 1
    36   36   30 1
    37   37   31 ar
    38   38   31 ar
    39   39   34 ar
    40   40   34 ar
    41   41   37 ar
    42   42   38 ar
    43   43   39 ar
    44   44   40 ar
    45   45   41 ar
    46   46   41 1
    47   47   42 ar
    48   48   42 1
    49   49   43 ar
    50   50   43 1
    51   51   44 ar
    52   52   44 1
    53   53   45 1
    54   54   47 1
    55   55   49 1
    56   56   51 1
    57   10   13 ar
    58   13   14 ar
    59   37   39 ar
    60   38   40 ar
    61   45   49 ar
    62   47   51 ar
@<TRIPOS>SUBSTRUCTURE
     1 RES1 1

@<TRIPOS>CRYSIN
  10.2770   12.7940    8.4660  90.0000 112.8900  90.0000  14 1

