# MOL2 file generated by ConQuest
# Please check atom types

@<TRIPOS>MOLECULE
ANTMEU01
    56    62     1
SMALL
NO_CHARGES
****
Generated from CSD

@<TRIPOS>ATOM
      1 C1         1.9545    7.1459   12.5769 C.ar      1 RES1    0.0000
      2 C2         1.3932    8.0393   13.4346 C.ar      1 RES1    0.0000
      3 C3         0.4757    9.0107   12.9532 C.ar      1 RES1    0.0000
      4 C4         0.1516    9.0510   11.6328 C.ar      1 RES1    0.0000
      5 C5         1.3673    7.8832    7.0110 C.ar      1 RES1    0.0000
      6 C6         2.2624    7.3044    6.1655 C.ar      1 RES1    0.0000
      7 C7         3.1898    6.3456    6.6582 C.ar      1 RES1    0.0000
      8 C8         3.1904    6.0046    7.9701 C.ar      1 RES1    0.0000
      9 C9         2.3067    6.2877   10.2674 C.ar      1 RES1    0.0000
     10 C10        0.4727    8.2192    9.2999 C.ar      1 RES1    0.0000
     11 C11        1.3720    7.6052    8.4055 C.ar      1 RES1    0.0000
     12 C12        2.3129    6.6338    8.9048 C.ar      1 RES1    0.0000
     13 C13        1.6994    7.1824   11.1748 C.ar      1 RES1    0.0000
     14 C14        0.7660    8.1739   10.6737 C.ar      1 RES1    0.0000
     15 C15       -0.8317    8.7905    8.7781 C.3       1 RES1    0.0000
     16 C16        2.7062    4.8822   10.6756 C.3       1 RES1    0.0000
     17 H1         2.5411    6.4299   12.9034 H         1 RES1    0.0000
     18 H2         1.6243    8.0028   14.3955 H         1 RES1    0.0000
     19 H3         0.0650    9.6637   13.6260 H         1 RES1    0.0000
     20 H4        -0.4920    9.7770   11.2987 H         1 RES1    0.0000
     21 H5         0.7137    8.5187    6.6722 H         1 RES1    0.0000
     22 H6         2.2612    7.5624    5.2083 H         1 RES1    0.0000
     23 H7         3.8102    5.9014    6.0247 H         1 RES1    0.0000
     24 H8         3.8323    5.2974    8.2957 H         1 RES1    0.0000
     25 H9        -1.3527    9.2233    9.5626 H         1 RES1    0.0000
     26 H10       -0.6771    9.5505    8.0611 H         1 RES1    0.0000
     27 H11        2.6436    4.8067   11.6741 H         1 RES1    0.0000
     28 H12        3.6910    4.7060   10.4260 H         1 RES1    0.0000
     29 C15B       1.7821    3.7925    9.9905 C.3       1 RES1    0.0000
     30 C10B       0.4778    4.3638    9.4688 C.ar      1 RES1    0.0000
     31 C11B      -0.4216    4.9778   10.3631 C.ar      1 RES1    0.0000
     32 C5B       -0.4168    4.6998   11.7576 C.ar      1 RES1    0.0000
     33 C6B       -1.3119    5.2786   12.6031 C.ar      1 RES1    0.0000
     34 C7B       -2.2393    6.2374   12.1105 C.ar      1 RES1    0.0000
     35 C8B       -2.2399    6.5784   10.7985 C.ar      1 RES1    0.0000
     36 C12B      -1.3624    5.9492    9.8639 C.ar      1 RES1    0.0000
     37 C9B       -1.3562    6.2953    8.5012 C.ar      1 RES1    0.0000
     38 C13B      -0.7489    5.4006    7.5938 C.ar      1 RES1    0.0000
     39 C1B       -1.0040    5.4371    6.1918 C.ar      1 RES1    0.0000
     40 C2B       -0.4427    4.5437    5.3340 C.ar      1 RES1    0.0000
     41 C3B        0.4748    3.5723    5.8155 C.ar      1 RES1    0.0000
     42 C4B        0.7989    3.5320    7.1358 C.ar      1 RES1    0.0000
     43 C14B       0.1844    4.4091    8.0949 C.ar      1 RES1    0.0000
     44 H4B        1.4425    2.8060    7.4699 H         1 RES1    0.0000
     45 H3B        0.8854    2.9193    5.1426 H         1 RES1    0.0000
     46 H2B       -0.6738    4.5802    4.3731 H         1 RES1    0.0000
     47 H1B       -1.5907    6.1531    5.8652 H         1 RES1    0.0000
     48 C16B      -1.7557    7.7008    8.0930 C.3       1 RES1    0.0000
     49 H11B      -1.6931    7.7763    7.0945 H         1 RES1    0.0000
     50 H12B      -2.7405    7.8770    8.3427 H         1 RES1    0.0000
     51 H8B       -2.8818    7.2856   10.4729 H         1 RES1    0.0000
     52 H7B       -2.8597    6.6816   12.7439 H         1 RES1    0.0000
     53 H6B       -1.3108    5.0206   13.5603 H         1 RES1    0.0000
     54 H5B        0.2367    4.0643   12.0964 H         1 RES1    0.0000
     55 H9B        2.3032    3.3597    9.2060 H         1 RES1    0.0000
     56 H10B       1.6276    3.0325   10.7075 H         1 RES1    0.0000
@<TRIPOS>BOND
     1    1    2 ar
     2    2    3 ar
     3    3    4 ar
     4    4   14 ar
     5    5    6 ar
     6    6    7 ar
     7    7    8 ar
     8    8   12 ar
     9    9   12 ar
    10   10   11 ar
    11   11    5 ar
    12   12   11 ar
    13   13    1 ar
    14   14   10 ar
    15   15   10 1
    16   16    9 1
    17   17    1 1
    18   18    2 1
    19   19    3 1
    20   20    4 1
    21   21    5 1
    22   22    6 1
    23   23    7 1
    24   24    8 1
    25   25   15 1
    26   26   15 1
    27   27   16 1
    28   28   16 1
    29   29   16 1
    30   30   29 1
    31   31   30 ar
    32   32   31 ar
    33   33   32 ar
    34   34   33 ar
    35   35   34 ar
    36   36   31 ar
    37   37   36 ar
    38   38   37 ar
    39   39   38 ar
    40   40   39 ar
    41   41   40 ar
    42   42   41 ar
    43   43   30 ar
    44   44   42 1
    45   45   41 1
    46   46   40 1
    47   47   39 1
    48   48   15 1
    49   49   48 1
    50   50   48 1
    51   51   35 1
    52   52   34 1
    53   53   33 1
    54   54   32 1
    55   55   29 1
    56   56   29 1
    57    9   13 ar
    58   13   14 ar
    59   35   36 ar
    60   37   48 1
    61   38   43 ar
    62   42   43 ar
@<TRIPOS>SUBSTRUCTURE
     1 RES1 1

@<TRIPOS>CRYSIN
   8.4460   12.5830   10.1050  90.0000 111.7700  90.0000  14 2

