# MOL2 file generated by ConQuest
# Please check atom types

@<TRIPOS>MOLECULE
APOWIM
    54    60     1
SMALL
NO_CHARGES
****
Generated from CSD

@<TRIPOS>ATOM
      1 C1         2.6521   -1.2873    7.6796 C.ar      1 RES1    0.0000
      2 H1         1.8011   -1.7057    7.6180 H         1 RES1    0.0000
      3 C2         3.3268   -1.3201    8.8606 C.ar      1 RES1    0.0000
      4 H2         2.9435   -1.7578    9.6121 H         1 RES1    0.0000
      5 C3         4.5925   -0.7078    8.9748 C.ar      1 RES1    0.0000
      6 H3         5.0507   -0.7222    9.8070 H         1 RES1    0.0000
      7 C4         5.1598   -0.0986    7.9053 C.ar      1 RES1    0.0000
      8 H4         6.0168    0.3014    7.9991 H         1 RES1    0.0000
      9 C5         4.4976   -0.0433    6.6380 C.ar      1 RES1    0.0000
     10 C6         3.1964   -0.6356    6.5283 C.ar      1 RES1    0.0000
     11 C7         5.0935    0.5611    5.5146 C.ar      1 RES1    0.0000
     12 C8         6.4706    1.1189    5.6304 C.2       1 RES1    0.0000
     13 C9         7.6136    0.5466    5.2569 C.2       1 RES1    0.0000
     14 H5         7.6728   -0.3118    4.8542 H         1 RES1    0.0000
     15 C10        8.7998    1.4243    5.5498 C.3       1 RES1    0.0000
     16 H6         9.2771    1.6744    4.7189 H         1 RES1    0.0000
     17 H7         9.4326    0.9803    6.1685 H         1 RES1    0.0000
     18 C11        8.1518    2.6226    6.1935 C.ar      1 RES1    0.0000
     19 C12        8.7059    3.7816    6.7039 C.ar      1 RES1    0.0000
     20 H8         9.6482    3.9002    6.7184 H         1 RES1    0.0000
     21 C13        7.8656    4.7651    7.1929 C.ar      1 RES1    0.0000
     22 H9         8.2344    5.5754    7.5249 H         1 RES1    0.0000
     23 C14        6.4817    4.5807    7.2045 C.ar      1 RES1    0.0000
     24 H10        5.9176    5.2653    7.5455 H         1 RES1    0.0000
     25 C15        5.9252    3.4121    6.7240 C.ar      1 RES1    0.0000
     26 H11        4.9848    3.2799    6.7379 H         1 RES1    0.0000
     27 C16        6.7735    2.4318    6.2198 C.ar      1 RES1    0.0000
     28 C1B        4.9365    1.2873    3.1460 C.ar      1 RES1    0.0000
     29 H1B        5.7875    1.7057    3.2076 H         1 RES1    0.0000
     30 C2B        4.2619    1.3201    1.9651 C.ar      1 RES1    0.0000
     31 H2B        4.6452    1.7578    1.2136 H         1 RES1    0.0000
     32 C3B        2.9961    0.7078    1.8509 C.ar      1 RES1    0.0000
     33 H3B        2.5380    0.7222    1.0187 H         1 RES1    0.0000
     34 C4B        2.4289    0.0986    2.9203 C.ar      1 RES1    0.0000
     35 H4B        1.5719   -0.3014    2.8266 H         1 RES1    0.0000
     36 C5B        3.0910    0.0433    4.1877 C.ar      1 RES1    0.0000
     37 C6B        4.3923    0.6356    4.2974 C.ar      1 RES1    0.0000
     38 C7B        2.4952   -0.5611    5.3111 C.ar      1 RES1    0.0000
     39 C8B        1.1180   -1.1189    5.1952 C.2       1 RES1    0.0000
     40 C9B       -0.0250   -0.5466    5.5687 C.2       1 RES1    0.0000
     41 H5B       -0.0841    0.3118    5.9714 H         1 RES1    0.0000
     42 C10B      -1.2112   -1.4243    5.2759 C.3       1 RES1    0.0000
     43 H6B       -1.6885   -1.6744    6.1068 H         1 RES1    0.0000
     44 H7B       -1.8440   -0.9803    4.6572 H         1 RES1    0.0000
     45 C11B      -0.5631   -2.6226    4.6322 C.ar      1 RES1    0.0000
     46 C12B      -1.1173   -3.7816    4.1218 C.ar      1 RES1    0.0000
     47 H8B       -2.0596   -3.9002    4.1073 H         1 RES1    0.0000
     48 C13B      -0.2770   -4.7651    3.6328 C.ar      1 RES1    0.0000
     49 H9B       -0.6458   -5.5754    3.3007 H         1 RES1    0.0000
     50 C14B       1.1069   -4.5807    3.6212 C.ar      1 RES1    0.0000
     51 H10B       1.6710   -5.2653    3.2802 H         1 RES1    0.0000
     52 C15B       1.6635   -3.4121    4.1016 C.ar      1 RES1    0.0000
     53 H11B       2.6039   -3.2799    4.0878 H         1 RES1    0.0000
     54 C16B       0.8152   -2.4318    4.6059 C.ar      1 RES1    0.0000
@<TRIPOS>BOND
     1    1    2 1
     2    3    1 ar
     3    4    3 1
     4    5    3 ar
     5    6    5 1
     6    7    5 ar
     7    8    7 1
     8    9    7 ar
     9   10    1 ar
    10   11    9 ar
    11   12   11 1
    12   13   12 2
    13   14   13 1
    14   15   13 1
    15   16   15 1
    16   17   15 1
    17   18   15 1
    18   19   18 ar
    19   20   19 1
    20   21   19 ar
    21   22   21 1
    22   23   21 ar
    23   24   23 1
    24   25   23 ar
    25   26   25 1
    26   27   12 1
    27   28   29 1
    28   30   28 ar
    29   31   30 1
    30   32   30 ar
    31   33   32 1
    32   34   32 ar
    33   35   34 1
    34   36   34 ar
    35   37   11 ar
    36   38   10 ar
    37   39   38 1
    38   40   39 2
    39   41   40 1
    40   42   40 1
    41   43   42 1
    42   44   42 1
    43   45   42 1
    44   46   45 ar
    45   47   46 1
    46   48   46 ar
    47   49   48 1
    48   50   48 ar
    49   51   50 1
    50   52   50 ar
    51   53   52 1
    52   54   39 1
    53    9   10 ar
    54   18   27 ar
    55   25   27 ar
    56   28   37 ar
    57   36   37 ar
    58   36   38 ar
    59   45   54 ar
    60   52   54 ar
@<TRIPOS>SUBSTRUCTURE
     1 RES1 1

@<TRIPOS>CRYSIN
  12.2245    8.0153   11.7765  90.0000 113.1820  90.0000  14 1

