# MOL2 file generated by ConQuest
# Please check atom types

@<TRIPOS>MOLECULE
AQABOJ01
    52    57     1
SMALL
NO_CHARGES
****
Generated from CSD

@<TRIPOS>ATOM
      1 C1        -0.9267    3.2468   -0.2919 C.2       1 RES1    0.0000
      2 C2        -2.0353    3.5510    0.6597 C.ar      1 RES1    0.0000
      3 C3        -2.8368    2.7293    1.5061 C.ar      1 RES1    0.0000
      4 C4        -2.6132    1.3506    1.7193 C.ar      1 RES1    0.0000
      5 C5        -3.3880    0.6245    2.5837 C.ar      1 RES1    0.0000
      6 C6        -4.4353    1.2406    3.2851 C.ar      1 RES1    0.0000
      7 C7        -4.6742    2.5673    3.1183 C.ar      1 RES1    0.0000
      8 C8        -3.8855    3.3572    2.2501 C.ar      1 RES1    0.0000
      9 C9        -4.0909    4.7548    2.1326 C.ar      1 RES1    0.0000
     10 C10       -3.2540    5.5225    1.3809 C.ar      1 RES1    0.0000
     11 C11       -2.2094    4.9228    0.6691 C.ar      1 RES1    0.0000
     12 C12       -1.1518    5.6108   -0.1516 C.3       1 RES1    0.0000
     13 C13       -0.0757    4.5136   -0.2891 C.3       1 RES1    0.0000
     14 C14        0.8739    4.5797    0.9137 C.3       1 RES1    0.0000
     15 C15       -0.8896    2.2718   -1.2255 C.2       1 RES1    0.0000
     16 C16       -0.0673    2.2460   -2.4671 C.ar      1 RES1    0.0000
     17 C17        1.2997    2.5682   -2.7287 C.ar      1 RES1    0.0000
     18 C18        2.2620    2.8178   -1.7222 C.ar      1 RES1    0.0000
     19 C19        3.5615    3.1065   -2.0330 C.ar      1 RES1    0.0000
     20 C20        3.9789    3.1637   -3.3732 C.ar      1 RES1    0.0000
     21 C21        3.0941    2.8854   -4.3656 C.ar      1 RES1    0.0000
     22 C22        1.7412    2.5604   -4.0860 C.ar      1 RES1    0.0000
     23 C23        0.8447    2.1917   -5.1124 C.ar      1 RES1    0.0000
     24 C24       -0.4224    1.7902   -4.8328 C.ar      1 RES1    0.0000
     25 C25       -0.8732    1.8024   -3.5002 C.ar      1 RES1    0.0000
     26 C26       -2.2274    1.3907   -2.9903 C.3       1 RES1    0.0000
     27 C27       -1.9782    1.2249   -1.4748 C.3       1 RES1    0.0000
     28 C28       -1.4844   -0.1989   -1.1990 C.3       1 RES1    0.0000
     29 H1        -2.8093    1.4277   -0.9288 H         1 RES1    0.0000
     30 H2         0.4396    4.6069   -1.1563 H         1 RES1    0.0000
     31 H3         1.9684    2.7779   -0.7867 H         1 RES1    0.0000
     32 H4        -0.7836    6.4515    0.2843 H         1 RES1    0.0000
     33 H5        -0.6307   -0.4190   -1.7440 H         1 RES1    0.0000
     34 H6        -2.9049    2.1283   -3.1846 H         1 RES1    0.0000
     35 H7        -3.1915   -0.3547    2.7297 H         1 RES1    0.0000
     36 H8        -1.8347    0.9178    1.2701 H         1 RES1    0.0000
     37 H9        -1.0511    1.5519   -5.5352 H         1 RES1    0.0000
     38 H10       -5.3893    3.0373    3.6016 H         1 RES1    0.0000
     39 H11       -1.2040   -0.3436   -0.1896 H         1 RES1    0.0000
     40 H12       -1.5289    5.8751   -1.0805 H         1 RES1    0.0000
     41 H13        0.3631    4.6114    1.7534 H         1 RES1    0.0000
     42 H14        3.3826    2.8821   -5.3077 H         1 RES1    0.0000
     43 H15       -2.5800    0.5321   -3.4121 H         1 RES1    0.0000
     44 H16       -4.9880    0.6873    3.9049 H         1 RES1    0.0000
     45 H17       -3.3635    6.4958    1.3459 H         1 RES1    0.0000
     46 H18        4.2235    3.2812   -1.2985 H         1 RES1    0.0000
     47 H19        1.4524    5.3873    0.8720 H         1 RES1    0.0000
     48 H20        4.9497    3.4142   -3.5542 H         1 RES1    0.0000
     49 H21        1.1849    2.2392   -6.0659 H         1 RES1    0.0000
     50 H22       -2.1787   -0.8425   -1.4596 H         1 RES1    0.0000
     51 H23        1.5098    3.7467    0.9478 H         1 RES1    0.0000
     52 H24       -4.8542    5.1878    2.6349 H         1 RES1    0.0000
@<TRIPOS>BOND
     1    1    2 1
     2    2    3 ar
     3    3    4 ar
     4    4    5 ar
     5    5    6 ar
     6    6    7 ar
     7    7    8 ar
     8    8    3 ar
     9    9    8 ar
    10   10    9 ar
    11   11    2 ar
    12   12   11 1
    13   13    1 1
    14   14   13 1
    15   15    1 2
    16   16   15 1
    17   17   16 ar
    18   18   17 ar
    19   19   18 ar
    20   20   19 ar
    21   21   20 ar
    22   22   17 ar
    23   23   22 ar
    24   24   23 ar
    25   25   16 ar
    26   26   25 1
    27   27   15 1
    28   28   27 1
    29   29   27 1
    30   30   13 1
    31   31   18 1
    32   32   12 1
    33   33   28 1
    34   34   26 1
    35   35    5 1
    36   36    4 1
    37   37   24 1
    38   38    7 1
    39   39   28 1
    40   40   12 1
    41   41   14 1
    42   42   21 1
    43   43   26 1
    44   44    6 1
    45   45   10 1
    46   46   19 1
    47   47   14 1
    48   48   20 1
    49   49   23 1
    50   50   28 1
    51   51   14 1
    52   52    9 1
    53   10   11 ar
    54   12   13 1
    55   21   22 ar
    56   24   25 ar
    57   26   27 1
@<TRIPOS>SUBSTRUCTURE
     1 RES1 1

@<TRIPOS>CRYSIN
  19.1110   22.1700    9.4780  90.0000  90.0000  90.0000  61 1

