# MOL2 file generated by ConQuest
# Please check atom types

@<TRIPOS>MOLECULE
AQABOJ
    52    57     1
SMALL
NO_CHARGES
****
Generated from CSD

@<TRIPOS>ATOM
      1 C1         3.5398    8.0156   -0.2383 C.3       1 RES1    0.0000
      2 C2         3.2614    7.5129    1.1821 C.3       1 RES1    0.0000
      3 C3         1.7451    7.2514    1.3332 C.3       1 RES1    0.0000
      4 C4         1.2243    8.6030    1.7515 C.ar      1 RES1    0.0000
      5 C5        -0.1131    9.0384    1.7322 C.ar      1 RES1    0.0000
      6 C6        -0.4083   10.3030    2.1450 C.ar      1 RES1    0.0000
      7 C7         0.6153   11.2096    2.5153 C.ar      1 RES1    0.0000
      8 C8         0.3140   12.5567    2.8396 C.ar      1 RES1    0.0000
      9 C9         1.3016   13.4552    3.1231 C.ar      1 RES1    0.0000
     10 C10        2.6530   13.0469    3.0722 C.ar      1 RES1    0.0000
     11 C11        2.9801   11.7479    2.7813 C.ar      1 RES1    0.0000
     12 C12        1.9796   10.7780    2.5278 C.ar      1 RES1    0.0000
     13 C13        2.2515    9.4163    2.1992 C.ar      1 RES1    0.0000
     14 C14        3.5003    8.5993    2.2308 C.2       1 RES1    0.0000
     15 C15        4.4360    8.5746    3.2031 C.2       1 RES1    0.0000
     16 C16        5.3918    7.4733    3.5181 C.ar      1 RES1    0.0000
     17 C17        6.2327    6.6554    2.7050 C.ar      1 RES1    0.0000
     18 C18        6.4337    6.8563    1.3170 C.ar      1 RES1    0.0000
     19 C19        7.2976    6.0707    0.5952 C.ar      1 RES1    0.0000
     20 C20        8.0172    5.0382    1.2295 C.ar      1 RES1    0.0000
     21 C21        7.8599    4.8213    2.5682 C.ar      1 RES1    0.0000
     22 C22        6.9878    5.6247    3.3471 C.ar      1 RES1    0.0000
     23 C23        6.8912    5.4406    4.7483 C.ar      1 RES1    0.0000
     24 C24        6.1405    6.2877    5.5119 C.ar      1 RES1    0.0000
     25 C25        5.4128    7.3194    4.8937 C.ar      1 RES1    0.0000
     26 C26        4.5912    8.3820    5.5764 C.3       1 RES1    0.0000
     27 C27        4.4400    9.4422    4.4622 C.3       1 RES1    0.0000
     28 C28        5.6457   10.3915    4.5095 C.3       1 RES1    0.0000
     29 H1         2.9816    8.8407   -0.4341 H         1 RES1    0.0000
     30 H2         4.4874    8.2669   -0.3771 H         1 RES1    0.0000
     31 H3         3.3470    7.3048   -0.9077 H         1 RES1    0.0000
     32 H4         3.8064    6.6968    1.3746 H         1 RES1    0.0000
     33 H5         1.5594    6.5737    2.0367 H         1 RES1    0.0000
     34 H6         1.3433    6.9260    0.4933 H         1 RES1    0.0000
     35 H7        -0.8107    8.4051    1.4448 H         1 RES1    0.0000
     36 H8        -1.3414   10.6342    2.1573 H         1 RES1    0.0000
     37 H9        -0.6115   12.8274    2.8435 H         1 RES1    0.0000
     38 H10        1.0643   14.3955    3.3434 H         1 RES1    0.0000
     39 H11        3.3658   13.6929    3.2426 H         1 RES1    0.0000
     40 H12        3.9191   11.4619    2.7295 H         1 RES1    0.0000
     41 H13        5.9726    7.6040    0.8792 H         1 RES1    0.0000
     42 H14        7.4164    6.2442   -0.3574 H         1 RES1    0.0000
     43 H15        8.6385    4.5037    0.7125 H         1 RES1    0.0000
     44 H16        8.3426    4.0946    3.0189 H         1 RES1    0.0000
     45 H17        7.4098    4.7196    5.1478 H         1 RES1    0.0000
     46 H18        6.1257    6.1968    6.4895 H         1 RES1    0.0000
     47 H19        5.0276    8.7517    6.4106 H         1 RES1    0.0000
     48 H20        3.7059    7.9942    5.8625 H         1 RES1    0.0000
     49 H21        3.5875    9.9581    4.5470 H         1 RES1    0.0000
     50 H22        5.5809   10.9524    5.3166 H         1 RES1    0.0000
     51 H23        5.6795   11.0036    3.7293 H         1 RES1    0.0000
     52 H24        6.4883    9.8691    4.5405 H         1 RES1    0.0000
@<TRIPOS>BOND
     1    1    2 1
     2    2    3 1
     3    3    4 1
     4    4    5 ar
     5    5    6 ar
     6    6    7 ar
     7    7    8 ar
     8    8    9 ar
     9    9   10 ar
    10   10   11 ar
    11   11   12 ar
    12   12    7 ar
    13   13    4 ar
    14   14    2 1
    15   15   14 2
    16   16   15 1
    17   17   16 ar
    18   18   17 ar
    19   19   18 ar
    20   20   19 ar
    21   21   20 ar
    22   22   17 ar
    23   23   22 ar
    24   24   23 ar
    25   25   16 ar
    26   26   25 1
    27   27   15 1
    28   28   27 1
    29   29    1 1
    30   30    1 1
    31   31    1 1
    32   32    2 1
    33   33    3 1
    34   34    3 1
    35   35    5 1
    36   36    6 1
    37   37    8 1
    38   38    9 1
    39   39   10 1
    40   40   11 1
    41   41   18 1
    42   42   19 1
    43   43   20 1
    44   44   21 1
    45   45   23 1
    46   46   24 1
    47   47   26 1
    48   48   26 1
    49   49   27 1
    50   50   28 1
    51   51   28 1
    52   52   28 1
    53   12   13 ar
    54   13   14 1
    55   21   22 ar
    56   24   25 ar
    57   26   27 1
@<TRIPOS>SUBSTRUCTURE
     1 RES1 1

@<TRIPOS>CRYSIN
   9.3938   18.9390   21.9240  90.0000  90.0000  90.0000  61 1

