# MOL2 file generated by ConQuest
# Please check atom types

@<TRIPOS>MOLECULE
AQABID
   104   114     2
SMALL
NO_CHARGES
****
Generated from CSD

@<TRIPOS>ATOM
      1 C1         3.3302    0.6045    2.0465 C.2       1 RES1    0.0000
      2 C2         4.8250    0.8506    1.8136 C.3       1 RES1    0.0000
      3 C3         4.8888    1.3290    0.3415 C.3       1 RES1    0.0000
      4 C4         3.0673    2.6580   -1.0064 C.ar      1 RES1    0.0000
      5 C5         1.7625    3.1149   -1.0439 C.ar      1 RES1    0.0000
      6 C6        -0.4317    3.4302    0.0686 C.ar      1 RES1    0.0000
      7 C7        -1.2467    3.2764    1.1681 C.ar      1 RES1    0.0000
      8 C8        -0.7700    2.5996    2.3052 C.ar      1 RES1    0.0000
      9 C9         0.4950    2.0381    2.3052 C.ar      1 RES1    0.0000
     10 C10        1.3241    2.1181    1.1811 C.ar      1 RES1    0.0000
     11 C11        0.8806    2.8780    0.0453 C.ar      1 RES1    0.0000
     12 C12        3.4980    1.8797    0.0931 C.ar      1 RES1    0.0000
     13 C13        2.6353    1.5290    1.1125 C.ar      1 RES1    0.0000
     14 C14        5.3643    1.9397    2.7696 C.3       1 RES1    0.0000
     15 C15        2.8959   -0.3769    2.8899 C.2       1 RES1    0.0000
     16 C16        3.8522   -1.1167    3.8316 C.3       1 RES1    0.0000
     17 C17        2.9858   -1.3059    5.1123 C.3       1 RES1    0.0000
     18 C18        0.3931   -1.7105    5.2274 C.ar      1 RES1    0.0000
     19 C19       -0.8098   -1.6490    4.5586 C.ar      1 RES1    0.0000
     20 C20       -2.0990   -1.2521    2.4630 C.ar      1 RES1    0.0000
     21 C21       -2.1401   -0.9875    1.1254 C.ar      1 RES1    0.0000
     22 C22       -0.9308   -0.7660    0.4114 C.ar      1 RES1    0.0000
     23 C23        0.2755   -0.7399    1.0789 C.ar      1 RES1    0.0000
     24 C24        0.3336   -0.9460    2.4837 C.ar      1 RES1    0.0000
     25 C25       -0.8624   -1.2813    3.1835 C.ar      1 RES1    0.0000
     26 C26        1.5696   -1.3198    4.5496 C.ar      1 RES1    0.0000
     27 C27        1.5475   -0.8722    3.2547 C.ar      1 RES1    0.0000
     28 C28        4.2660   -2.4827    3.2547 C.3       1 RES1    0.0000
     29 H1         5.3403    0.0005    1.9264 H         1 RES1    0.0000
     30 H2         5.5760    2.0317    0.2253 H         1 RES1    0.0000
     31 H3         5.0885    0.5764   -0.2693 H         1 RES1    0.0000
     32 H4         3.6679    2.8651   -1.7121 H         1 RES1    0.0000
     33 H5         1.4529    3.5906   -1.8047 H         1 RES1    0.0000
     34 H6        -0.7499    3.9109   -0.6866 H         1 RES1    0.0000
     35 H7        -2.1286    3.6286    1.1583 H         1 RES1    0.0000
     36 H8        -1.3199    2.5274    3.0762 H         1 RES1    0.0000
     37 H9         0.8054    1.5894    3.0830 H         1 RES1    0.0000
     38 H10        4.8507    2.7648    2.6477 H         1 RES1    0.0000
     39 H11        6.3087    2.1096    2.5719 H         1 RES1    0.0000
     40 H12        5.2750    1.6334    3.6970 H         1 RES1    0.0000
     41 H13        4.6577   -0.5570    4.0290 H         1 RES1    0.0000
     42 H14        3.2000   -2.1584    5.5682 H         1 RES1    0.0000
     43 H15        3.1137   -0.5568    5.7471 H         1 RES1    0.0000
     44 H16        0.4331   -2.0150    6.1316 H         1 RES1    0.0000
     45 H17       -1.6179   -1.8458    5.0192 H         1 RES1    0.0000
     46 H18       -2.9071   -1.4151    2.9235 H         1 RES1    0.0000
     47 H19       -2.9745   -0.9537    0.6727 H         1 RES1    0.0000
     48 H20       -0.9519   -0.6307   -0.5304 H         1 RES1    0.0000
     49 H21        1.0751   -0.5845    0.5951 H         1 RES1    0.0000
     50 H22        3.4662   -3.0247    3.0942 H         1 RES1    0.0000
     51 H23        4.8506   -2.9427    3.8927 H         1 RES1    0.0000
     52 H24        4.7454   -2.3485    2.4105 H         1 RES1    0.0000
     53 C29       -0.0146    0.9921    8.0811 C.2       2 RES2    0.0000
     54 C30       -0.9864    1.6813    7.1018 C.3       2 RES2    0.0000
     55 C31       -0.1087    1.8951    5.8419 C.3       2 RES2    0.0000
     56 C32        2.4485    2.4765    5.7371 C.ar      2 RES2    0.0000
     57 C33        3.6290    2.5303    6.4447 C.ar      2 RES2    0.0000
     58 C34        4.9128    2.2919    8.5377 C.ar      2 RES2    0.0000
     59 C35        4.9665    1.9997    9.8740 C.ar      2 RES2    0.0000
     60 C36        3.7888    1.6351   10.5700 C.ar      2 RES2    0.0000
     61 C37        2.5938    1.4905    9.8883 C.ar      2 RES2    0.0000
     62 C38        2.5220    1.6936    8.4847 C.ar      2 RES2    0.0000
     63 C39        3.6990    2.1612    7.8017 C.ar      2 RES2    0.0000
     64 C40        1.2873    1.9797    6.4007 C.ar      2 RES2    0.0000
     65 C41        1.3331    1.5259    7.7085 C.ar      2 RES2    0.0000
     66 C42       -1.4507    3.0272    7.6568 C.3       2 RES2    0.0000
     67 C43       -0.4304    0.0446    8.9517 C.2       2 RES2    0.0000
     68 C44       -1.9290   -0.2384    9.2014 C.3       2 RES2    0.0000
     69 C45       -1.9475   -0.5845   10.7200 C.3       2 RES2    0.0000
     70 C46       -0.1053   -1.8474   12.1016 C.ar      2 RES2    0.0000
     71 C47        1.1748   -2.2981   12.1158 C.ar      2 RES2    0.0000
     72 C48        3.3703   -2.6426   11.0163 C.ar      2 RES2    0.0000
     73 C49        4.1806   -2.5303    9.9115 C.ar      2 RES2    0.0000
     74 C50        3.6816   -1.9258    8.7292 C.ar      2 RES2    0.0000
     75 C51        2.4330   -1.3828    8.7007 C.ar      2 RES2    0.0000
     76 C52        1.5860   -1.4121    9.8585 C.ar      2 RES2    0.0000
     77 C53        2.0517   -2.1089   11.0124 C.ar      2 RES2    0.0000
     78 C54       -0.5684   -1.1290   10.9736 C.ar      2 RES2    0.0000
     79 C55        0.2800   -0.8306    9.9089 C.ar      2 RES2    0.0000
     80 C56       -2.4234   -1.4136    8.3528 C.3       2 RES2    0.0000
     81 H25       -1.7670    1.0903    6.8975 H         2 RES2    0.0000
     82 H26       -0.1950    1.1353    5.2129 H         2 RES2    0.0000
     83 H27       -0.3551    2.7320    5.3728 H         2 RES2    0.0000
     84 H28        2.4086    2.7629    4.8324 H         2 RES2    0.0000
     85 H29        4.4175    2.8252    6.0053 H         2 RES2    0.0000
     86 H30        5.6983    2.5868    8.0931 H         2 RES2    0.0000
     87 H31        5.7958    2.0418   10.3357 H         2 RES2    0.0000
     88 H32        3.8191    1.4890   11.5082 H         2 RES2    0.0000
     89 H33        1.8087    1.2527   10.3662 H         2 RES2    0.0000
     90 H34       -1.9194    2.8867    8.5067 H         2 RES2    0.0000
     91 H35       -2.0580    3.4537    7.0166 H         2 RES2    0.0000
     92 H36       -0.6738    3.6058    7.8052 H         2 RES2    0.0000
     93 H37       -2.4755    0.5790    9.0213 H         2 RES2    0.0000
     94 H38       -2.1173    0.2223   11.2666 H         2 RES2    0.0000
     95 H39       -2.6396   -1.2635   10.9213 H         2 RES2    0.0000
     96 H40       -0.6784   -2.0150   12.8325 H         2 RES2    0.0000
     97 H41        1.4977   -2.7534   12.8842 H         2 RES2    0.0000
     98 H42        3.6895   -3.0764   11.7976 H         2 RES2    0.0000
     99 H43        5.0716   -2.8611    9.9348 H         2 RES2    0.0000
    100 H44        4.2255   -1.9074    7.9556 H         2 RES2    0.0000
    101 H45        2.1204   -0.9844    7.9039 H         2 RES2    0.0000
    102 H46       -2.3230   -1.1964    7.4026 H         2 RES2    0.0000
    103 H47       -3.3684   -1.5851    8.5504 H         2 RES2    0.0000
    104 H48       -1.8965   -2.2133    8.5624 H         2 RES2    0.0000
@<TRIPOS>BOND
     1    1    2 1
     2    2    3 1
     3    3   12 1
     4    4    5 ar
     5    5   11 ar
     6    6    7 ar
     7    7    8 ar
     8    8    9 ar
     9    9   10 ar
    10   10   11 ar
    11   11    6 ar
    12   12    4 ar
    13   13    1 1
    14   14    2 1
    15   15    1 2
    16   16   15 1
    17   17   16 1
    18   18   19 ar
    19   19   25 ar
    20   20   21 ar
    21   21   22 ar
    22   22   23 ar
    23   23   24 ar
    24   24   25 ar
    25   25   20 ar
    26   26   17 1
    27   27   15 1
    28   28   16 1
    29   29    2 1
    30   30    3 1
    31   31    3 1
    32   32    4 1
    33   33    5 1
    34   34    6 1
    35   35    7 1
    36   36    8 1
    37   37    9 1
    38   38   14 1
    39   39   14 1
    40   40   14 1
    41   41   16 1
    42   42   17 1
    43   43   17 1
    44   44   18 1
    45   45   19 1
    46   46   20 1
    47   47   21 1
    48   48   22 1
    49   49   23 1
    50   50   28 1
    51   51   28 1
    52   52   28 1
    53   53   54 1
    54   54   55 1
    55   55   64 1
    56   56   57 ar
    57   57   63 ar
    58   58   59 ar
    59   59   60 ar
    60   60   61 ar
    61   61   62 ar
    62   62   63 ar
    63   63   58 ar
    64   64   56 ar
    65   65   53 1
    66   66   54 1
    67   67   53 2
    68   68   67 1
    69   69   68 1
    70   70   71 ar
    71   71   77 ar
    72   72   73 ar
    73   73   74 ar
    74   74   75 ar
    75   75   76 ar
    76   76   77 ar
    77   77   72 ar
    78   78   69 1
    79   79   67 1
    80   80   68 1
    81   81   54 1
    82   82   55 1
    83   83   55 1
    84   84   56 1
    85   85   57 1
    86   86   58 1
    87   87   59 1
    88   88   60 1
    89   89   61 1
    90   90   66 1
    91   91   66 1
    92   92   66 1
    93   93   68 1
    94   94   69 1
    95   95   69 1
    96   96   70 1
    97   97   71 1
    98   98   72 1
    99   99   73 1
   100  100   74 1
   101  101   75 1
   102  102   80 1
   103  103   80 1
   104  104   80 1
   105   10   13 ar
   106   12   13 ar
   107   18   26 ar
   108   24   27 ar
   109   26   27 ar
   110   62   65 ar
   111   64   65 ar
   112   70   78 ar
   113   76   79 ar
   114   78   79 ar
@<TRIPOS>SUBSTRUCTURE
     1 RES1 1
     2 RES2 53

@<TRIPOS>CRYSIN
  10.1440   15.3820   13.4690  90.0000 106.1730  90.0000   4 1

