# MOL2 file generated by ConQuest
# Please check atom types

@<TRIPOS>MOLECULE
AQOTAC
    60    66     1
SMALL
NO_CHARGES
****
Generated from CSD

@<TRIPOS>ATOM
      1 C1         4.7400    4.5292    3.0611 C.2       1 RES1    0.0000
      2 C2         5.1168    3.5056    2.2667 C.2       1 RES1    0.0000
      3 C3         3.4406    4.5942    3.8036 C.ar      1 RES1    0.0000
      4 C4         2.9493    3.5132    4.5434 C.ar      1 RES1    0.0000
      5 H1         3.4588    2.7135    4.6047 H         1 RES1    0.0000
      6 C5         1.7225    3.6011    5.1889 C.ar      1 RES1    0.0000
      7 H2         1.3976    2.8603    5.6874 H         1 RES1    0.0000
      8 C6         0.9725    4.7560    5.1114 C.ar      1 RES1    0.0000
      9 H3         0.1257    4.8034    5.5384 H         1 RES1    0.0000
     10 C7         1.4569    5.8474    4.4090 C.ar      1 RES1    0.0000
     11 H4         0.9500    6.6494    4.3653 H         1 RES1    0.0000
     12 C8         2.6869    5.7645    3.7682 C.ar      1 RES1    0.0000
     13 H5         3.0199    6.5196    3.2972 H         1 RES1    0.0000
     14 C9         4.2767    2.3016    1.9580 C.ar      1 RES1    0.0000
     15 C10        2.9231    2.4003    1.6426 C.ar      1 RES1    0.0000
     16 H6         2.5102    3.2541    1.5961 H         1 RES1    0.0000
     17 C11        2.1768    1.2585    1.3964 C.ar      1 RES1    0.0000
     18 H7         1.2509    1.3373    1.1984 H         1 RES1    0.0000
     19 C12        2.7609    0.0113    1.4357 C.ar      1 RES1    0.0000
     20 H8         2.2371   -0.7669    1.2848 H         1 RES1    0.0000
     21 C13        4.1104   -0.1003    1.6945 C.ar      1 RES1    0.0000
     22 H9         4.5252   -0.9550    1.6958 H         1 RES1    0.0000
     23 C14        4.8629    1.0389    1.9524 C.ar      1 RES1    0.0000
     24 H10        5.7931    0.9549    2.1281 H         1 RES1    0.0000
     25 C15        6.4746    3.4706    1.6351 C.ar      1 RES1    0.0000
     26 C16        7.6323    3.4817    2.3992 C.ar      1 RES1    0.0000
     27 H11        7.5704    3.5600    3.3438 H         1 RES1    0.0000
     28 C17        8.8796    3.3793    1.8018 C.ar      1 RES1    0.0000
     29 H12        9.6641    3.3763    2.3369 H         1 RES1    0.0000
     30 C18        8.9809    3.2814    0.4215 C.ar      1 RES1    0.0000
     31 H13        9.8341    3.2150    0.0106 H         1 RES1    0.0000
     32 C19        7.8403    3.2815   -0.3521 C.ar      1 RES1    0.0000
     33 H14        7.9095    3.2236   -1.2981 H         1 RES1    0.0000
     34 C20        6.5908    3.3664    0.2455 C.ar      1 RES1    0.0000
     35 H15        5.8086    3.3541   -0.2939 H         1 RES1    0.0000
     36 C21        5.6155    5.7463    3.1777 C.ar      1 RES1    0.0000
     37 C22        6.2779    6.0658    4.3847 C.ar      1 RES1    0.0000
     38 C23        6.1571    5.2653    5.5699 C.ar      1 RES1    0.0000
     39 H16        5.5801    4.5112    5.5623 H         1 RES1    0.0000
     40 C24        6.8468    5.5587    6.6987 C.ar      1 RES1    0.0000
     41 H17        6.7301    5.0139    7.4683 H         1 RES1    0.0000
     42 C25        7.7504    6.6734    6.7605 C.ar      1 RES1    0.0000
     43 C26        7.8856    7.4974    5.6122 C.ar      1 RES1    0.0000
     44 C27        7.1429    7.2050    4.4282 C.ar      1 RES1    0.0000
     45 C28        7.2964    8.0288    3.2782 C.ar      1 RES1    0.0000
     46 C29        6.5976    7.7008    2.1217 C.ar      1 RES1    0.0000
     47 H18        6.6710    8.2587    1.3567 H         1 RES1    0.0000
     48 C30        5.7941    6.5683    2.0688 C.ar      1 RES1    0.0000
     49 H19        5.3561    6.3495    1.2543 H         1 RES1    0.0000
     50 C31        8.5199    6.9550    7.8942 C.ar      1 RES1    0.0000
     51 H20        8.4397    6.4041    8.6641 H         1 RES1    0.0000
     52 C32        9.3970    8.0266    7.9075 C.ar      1 RES1    0.0000
     53 H21        9.9146    8.2010    8.6853 H         1 RES1    0.0000
     54 C33        9.5268    8.8441    6.8008 C.ar      1 RES1    0.0000
     55 H22       10.1309    9.5761    6.8286 H         1 RES1    0.0000
     56 C34        8.7821    8.6097    5.6407 C.ar      1 RES1    0.0000
     57 C35        8.8931    9.4281    4.4686 C.ar      1 RES1    0.0000
     58 H23        9.4817   10.1740    4.4757 H         1 RES1    0.0000
     59 C36        8.1789    9.1610    3.3539 C.ar      1 RES1    0.0000
     60 H24        8.2616    9.7354    2.6016 H         1 RES1    0.0000
@<TRIPOS>BOND
     1    1    2 2
     2    2   14 1
     3    3    1 1
     4    4    3 ar
     5    5    4 1
     6    6    4 ar
     7    7    6 1
     8    8    6 ar
     9    9    8 1
    10   10    8 ar
    11   11   10 1
    12   12    3 ar
    13   13   12 1
    14   14   15 ar
    15   15   16 1
    16   17   15 ar
    17   18   17 1
    18   19   17 ar
    19   20   19 1
    20   21   19 ar
    21   22   21 1
    22   23   14 ar
    23   24   23 1
    24   25    2 1
    25   26   25 ar
    26   27   26 1
    27   28   26 ar
    28   29   28 1
    29   30   28 ar
    30   31   30 1
    31   32   30 ar
    32   33   32 1
    33   34   25 ar
    34   35   34 1
    35   36    1 1
    36   37   36 ar
    37   38   37 ar
    38   39   38 1
    39   40   38 ar
    40   41   40 1
    41   42   40 ar
    42   43   42 ar
    43   44   37 ar
    44   45   44 ar
    45   46   45 ar
    46   47   46 1
    47   48   36 ar
    48   49   48 1
    49   50   42 ar
    50   51   50 1
    51   52   50 ar
    52   53   52 1
    53   54   52 ar
    54   55   54 1
    55   56   43 ar
    56   57   56 ar
    57   58   57 1
    58   59   45 ar
    59   60   59 1
    60   10   12 ar
    61   21   23 ar
    62   32   34 ar
    63   43   44 ar
    64   46   48 ar
    65   54   56 ar
    66   57   59 ar
@<TRIPOS>SUBSTRUCTURE
     1 RES1 1

@<TRIPOS>CRYSIN
   9.5346    9.5932   13.9476  96.6740 105.4790  94.8410   2 1

