# MOL2 file generated by ConQuest
# Please check atom types

@<TRIPOS>MOLECULE
ARAGIK
   140   152     1
SMALL
NO_CHARGES
****
Generated from CSD

@<TRIPOS>ATOM
      1 C1         1.6538   14.5901   -2.6354 C.ar      1 RES1    0.0000
      2 H1         1.7115   15.5170   -2.6009 H         1 RES1    0.0000
      3 C2         1.0366   13.9619   -3.7434 C.ar      1 RES1    0.0000
      4 C3         1.0366   12.5714   -3.7434 C.ar      1 RES1    0.0000
      5 C4         1.5612   11.7830   -2.6926 C.ar      1 RES1    0.0000
      6 C5         2.1213   12.4269   -1.6237 C.ar      1 RES1    0.0000
      7 H2         2.4692   11.9420   -0.9104 H         1 RES1    0.0000
      8 C6         2.1628   13.8439   -1.6187 C.ar      1 RES1    0.0000
      9 H3         2.5527   14.2778   -0.8954 H         1 RES1    0.0000
     10 C7         1.3458   10.3699   -3.0804 C.ar      1 RES1    0.0000
     11 C8         1.5965    9.2008   -2.4070 C.ar      1 RES1    0.0000
     12 C9         1.2901    7.9503   -3.0707 C.ar      1 RES1    0.0000
     13 C10        1.5116    6.7258   -2.4442 C.ar      1 RES1    0.0000
     14 H4         1.8449    6.7241   -1.5767 H         1 RES1    0.0000
     15 C11        1.2567    5.5065   -3.0585 C.ar      1 RES1    0.0000
     16 C12        1.4134    4.2601   -2.3449 C.ar      1 RES1    0.0000
     17 C13        1.1952    3.0863   -3.0343 C.ar      1 RES1    0.0000
     18 C14        1.2182    1.6734   -2.5834 C.ar      1 RES1    0.0000
     19 C15        1.3292    1.0432   -1.3758 C.ar      1 RES1    0.0000
     20 H5         1.4342    1.5307   -0.5915 H         1 RES1    0.0000
     21 C16        1.2806   -0.3797   -1.3491 C.ar      1 RES1    0.0000
     22 H6         1.3399   -0.8153   -0.5286 H         1 RES1    0.0000
     23 C17        1.1509   -1.1249   -2.4781 C.ar      1 RES1    0.0000
     24 H7         1.1376   -2.0525   -2.4153 H         1 RES1    0.0000
     25 C18        1.0366   -0.5116   -3.7434 C.ar      1 RES1    0.0000
     26 C19        1.0366    0.8815   -3.7434 C.ar      1 RES1    0.0000
     27 C20        2.1546    9.2000   -1.0273 C.ar      1 RES1    0.0000
     28 C21        3.4846    9.4621   -0.7686 C.ar      1 RES1    0.0000
     29 H8         4.0626    9.6123   -1.4824 H         1 RES1    0.0000
     30 C22        3.9835    9.5081    0.5164 C.ar      1 RES1    0.0000
     31 H9         4.8858    9.6897    0.6499 H         1 RES1    0.0000
     32 C23        3.1613    9.2872    1.6149 C.ar      1 RES1    0.0000
     33 C24        1.8436    8.9965    1.3487 C.ar      1 RES1    0.0000
     34 H10        1.2721    8.8235    2.0619 H         1 RES1    0.0000
     35 C25        1.3346    8.9507    0.0677 C.ar      1 RES1    0.0000
     36 H11        0.4365    8.7522   -0.0644 H         1 RES1    0.0000
     37 C26        3.6991    9.3775    3.0292 C.3       1 RES1    0.0000
     38 H12        4.6000    9.7366    2.9873 H         1 RES1    0.0000
     39 H13        3.1559   10.0159    3.5173 H         1 RES1    0.0000
     40 C27        3.7397    8.1252    3.8026 C.3       1 RES1    0.0000
     41 H14        4.3074    7.4925    3.3331 H         1 RES1    0.0000
     42 H15        2.8460    7.7514    3.8288 H         1 RES1    0.0000
     43 C28        4.2443    8.2591    5.2243 C.3       1 RES1    0.0000
     44 H16        5.1105    8.6971    5.2019 H         1 RES1    0.0000
     45 H17        3.6382    8.8378    5.7110 H         1 RES1    0.0000
     46 C29        4.3807    6.9932    5.9700 C.3       1 RES1    0.0000
     47 H18        3.5122    6.6079    6.1078 H         1 RES1    0.0000
     48 H19        4.7951    7.1664    6.8190 H         1 RES1    0.0000
     49 H20        4.9262    6.3837    5.4669 H         1 RES1    0.0000
     50 C30        1.8448    4.2552   -0.9297 C.ar      1 RES1    0.0000
     51 C31        3.1053    3.7909   -0.5720 C.ar      1 RES1    0.0000
     52 H21        3.6763    3.4670   -1.2308 H         1 RES1    0.0000
     53 C32        3.5249    3.7997    0.7334 C.ar      1 RES1    0.0000
     54 H22        4.3674    3.4630    0.9389 H         1 RES1    0.0000
     55 C33        2.7339    4.2925    1.7495 C.ar      1 RES1    0.0000
     56 C34        1.4903    4.7680    1.3960 C.ar      1 RES1    0.0000
     57 H23        0.9320    5.1119    2.0559 H         1 RES1    0.0000
     58 C35        1.0536    4.7458    0.0871 C.ar      1 RES1    0.0000
     59 H24        0.2051    5.0691   -0.1138 H         1 RES1    0.0000
     60 C36        3.2015    4.2805    3.1827 C.3       1 RES1    0.0000
     61 H25        2.7783    5.0120    3.6596 H         1 RES1    0.0000
     62 H26        4.1605    4.4291    3.2044 H         1 RES1    0.0000
     63 C37        2.8854    2.9738    3.8932 C.3       1 RES1    0.0000
     64 H27        3.3106    2.2482    3.4110 H         1 RES1    0.0000
     65 H28        1.9273    2.8270    3.8572 H         1 RES1    0.0000
     66 C38        3.3330    2.9147    5.3591 C.3       1 RES1    0.0000
     67 H29        3.0649    3.7238    5.8233 H         1 RES1    0.0000
     68 H30        2.9272    2.1544    5.8038 H         1 RES1    0.0000
     69 C39        4.7957    2.7863    5.3696 C.3       1 RES1    0.0000
     70 H31        5.0520    2.0158    4.8575 H         1 RES1    0.0000
     71 H32        5.1017    2.6864    6.2740 H         1 RES1    0.0000
     72 H33        5.1889    3.5710    4.9833 H         1 RES1    0.0000
     73 C1A        0.4194   14.5901   -4.8515 C.ar      1 RES1    0.0000
     74 H1A        0.3616   15.5170   -4.8859 H         1 RES1    0.0000
     75 C4A        0.5120   11.7830   -4.7943 C.ar      1 RES1    0.0000
     76 C5A       -0.0481   12.4269   -5.8631 C.ar      1 RES1    0.0000
     77 H2A       -0.3960   11.9420   -6.5765 H         1 RES1    0.0000
     78 C6A       -0.0896   13.8439   -5.8682 C.ar      1 RES1    0.0000
     79 H3A       -0.4795   14.2778   -6.5914 H         1 RES1    0.0000
     80 C7A        0.7274   10.3699   -4.4065 C.ar      1 RES1    0.0000
     81 C8A        0.4767    9.2008   -5.0798 C.ar      1 RES1    0.0000
     82 C9A        0.7831    7.9503   -4.4162 C.ar      1 RES1    0.0000
     83 C10A       0.5616    6.7258   -5.0427 C.ar      1 RES1    0.0000
     84 H4A        0.2283    6.7241   -5.9101 H         1 RES1    0.0000
     85 C11A       0.8165    5.5065   -4.4283 C.ar      1 RES1    0.0000
     86 C12A       0.6598    4.2601   -5.1420 C.ar      1 RES1    0.0000
     87 C13A       0.8780    3.0863   -4.4526 C.ar      1 RES1    0.0000
     88 C14A       0.8550    1.6734   -4.9034 C.ar      1 RES1    0.0000
     89 C15A       0.7440    1.0432   -6.1111 C.ar      1 RES1    0.0000
     90 H5A        0.6389    1.5307   -6.8954 H         1 RES1    0.0000
     91 C16A       0.7926   -0.3797   -6.1377 C.ar      1 RES1    0.0000
     92 H6A        0.7333   -0.8153   -6.9583 H         1 RES1    0.0000
     93 C17A       0.9223   -1.1249   -5.0087 C.ar      1 RES1    0.0000
     94 H7A        0.9356   -2.0525   -5.0716 H         1 RES1    0.0000
     95 C20A      -0.0814    9.2000   -6.4595 C.ar      1 RES1    0.0000
     96 C21A      -1.4114    9.4621   -6.7183 C.ar      1 RES1    0.0000
     97 H8A       -1.9894    9.6123   -6.0045 H         1 RES1    0.0000
     98 C22A      -1.9103    9.5081   -8.0033 C.ar      1 RES1    0.0000
     99 H9A       -2.8126    9.6897   -8.1367 H         1 RES1    0.0000
    100 C23A      -1.0881    9.2872   -9.1018 C.ar      1 RES1    0.0000
    101 C24A       0.2296    8.9965   -8.8355 C.ar      1 RES1    0.0000
    102 H10A       0.8011    8.8235   -9.5487 H         1 RES1    0.0000
    103 C25A       0.7386    8.9507   -7.5545 C.ar      1 RES1    0.0000
    104 H11A       1.6366    8.7522   -7.4225 H         1 RES1    0.0000
    105 C26A      -1.6259    9.3775  -10.5160 C.3       1 RES1    0.0000
    106 H12A      -2.5268    9.7366  -10.4741 H         1 RES1    0.0000
    107 H13A      -1.0827   10.0159  -11.0042 H         1 RES1    0.0000
    108 C27A      -1.6665    8.1252  -11.2894 C.3       1 RES1    0.0000
    109 H14A      -2.2342    7.4925  -10.8200 H         1 RES1    0.0000
    110 H15A      -0.7728    7.7514  -11.3156 H         1 RES1    0.0000
    111 C28A      -2.1711    8.2591  -12.7112 C.3       1 RES1    0.0000
    112 H16A      -3.0373    8.6971  -12.6887 H         1 RES1    0.0000
    113 H17A      -1.5650    8.8378  -13.1978 H         1 RES1    0.0000
    114 C29A      -2.3075    6.9932  -13.4569 C.3       1 RES1    0.0000
    115 H18A      -1.4390    6.6079  -13.5946 H         1 RES1    0.0000
    116 H19A      -2.7219    7.1664  -14.3059 H         1 RES1    0.0000
    117 H20A      -2.8530    6.3837  -12.9538 H         1 RES1    0.0000
    118 C30A       0.2284    4.2552   -6.5571 C.ar      1 RES1    0.0000
    119 C31A      -1.0321    3.7909   -6.9149 C.ar      1 RES1    0.0000
    120 H21A      -1.6031    3.4670   -6.2560 H         1 RES1    0.0000
    121 C32A      -1.4517    3.7997   -8.2203 C.ar      1 RES1    0.0000
    122 H22A      -2.2942    3.4630   -8.4257 H         1 RES1    0.0000
    123 C33A      -0.6607    4.2925   -9.2364 C.ar      1 RES1    0.0000
    124 C34A       0.5829    4.7680   -8.8829 C.ar      1 RES1    0.0000
    125 H23A       1.1412    5.1119   -9.5427 H         1 RES1    0.0000
    126 C35A       1.0196    4.7458   -7.5740 C.ar      1 RES1    0.0000
    127 H24A       1.8681    5.0691   -7.3731 H         1 RES1    0.0000
    128 C36A      -1.1283    4.2805  -10.6695 C.3       1 RES1    0.0000
    129 H25A      -0.7051    5.0120  -11.1464 H         1 RES1    0.0000
    130 H26A      -2.0873    4.4291  -10.6912 H         1 RES1    0.0000
    131 C37A      -0.8122    2.9738  -11.3800 C.3       1 RES1    0.0000
    132 H27A      -1.2374    2.2482  -10.8979 H         1 RES1    0.0000
    133 H28A       0.1459    2.8270  -11.3441 H         1 RES1    0.0000
    134 C38A      -1.2599    2.9147  -12.8459 C.3       1 RES1    0.0000
    135 H29A      -0.9917    3.7238  -13.3101 H         1 RES1    0.0000
    136 H30A      -0.8540    2.1544  -13.2907 H         1 RES1    0.0000
    137 C39A      -2.7225    2.7863  -12.8564 C.3       1 RES1    0.0000
    138 H31A      -2.9788    2.0158  -12.3443 H         1 RES1    0.0000
    139 H32A      -3.0285    2.6864  -13.7608 H         1 RES1    0.0000
    140 H33A      -3.1157    3.5710  -12.4701 H         1 RES1    0.0000
@<TRIPOS>BOND
     1    1    2 1
     2    3    1 ar
     3    4    3 ar
     4    5    4 ar
     5    6    5 ar
     6    7    6 1
     7    8    1 ar
     8    9    8 1
     9   10    5 1
    10   11   10 ar
    11   12   11 ar
    12   13   12 ar
    13   14   13 1
    14   15   13 ar
    15   16   15 ar
    16   17   16 ar
    17   18   17 1
    18   19   18 ar
    19   20   19 1
    20   21   19 ar
    21   22   21 1
    22   23   21 ar
    23   24   23 1
    24   25   23 ar
    25   26   18 ar
    26   27   11 1
    27   28   27 ar
    28   29   28 1
    29   30   28 ar
    30   31   30 1
    31   32   30 ar
    32   33   32 ar
    33   34   33 1
    34   35   27 ar
    35   36   35 1
    36   37   32 1
    37   38   37 1
    38   39   37 1
    39   40   37 1
    40   41   40 1
    41   42   40 1
    42   43   40 1
    43   44   43 1
    44   45   43 1
    45   46   43 1
    46   47   46 1
    47   48   46 1
    48   49   46 1
    49   50   16 1
    50   51   50 ar
    51   52   51 1
    52   53   51 ar
    53   54   53 1
    54   55   53 ar
    55   56   55 ar
    56   57   56 1
    57   58   50 ar
    58   59   58 1
    59   60   55 1
    60   61   60 1
    61   62   60 1
    62   63   60 1
    63   64   63 1
    64   65   63 1
    65   66   63 1
    66   67   66 1
    67   68   66 1
    68   69   66 1
    69   70   69 1
    70   71   69 1
    71   72   69 1
    72   73    3 ar
    73   74   73 1
    74   75    4 ar
    75   76   75 ar
    76   77   76 1
    77   78   73 ar
    78   79   78 1
    79   80   10 ar
    80   81   80 ar
    81   82   12 ar
    82   83   82 ar
    83   84   83 1
    84   85   15 ar
    85   86   85 ar
    86   87   17 ar
    87   88   26 ar
    88   89   88 ar
    89   90   89 1
    90   91   89 ar
    91   92   91 1
    92   93   25 ar
    93   94   93 1
    94   95   81 1
    95   96   95 ar
    96   97   96 1
    97   98   96 ar
    98   99   98 1
    99  100   98 ar
   100  101  100 ar
   101  102  101 1
   102  103   95 ar
   103  104  103 1
   104  105  100 1
   105  106  105 1
   106  107  105 1
   107  108  105 1
   108  109  108 1
   109  110  108 1
   110  111  108 1
   111  112  111 1
   112  113  111 1
   113  114  111 1
   114  115  114 1
   115  116  114 1
   116  117  114 1
   117  118   86 1
   118  119  118 ar
   119  120  119 1
   120  121  119 ar
   121  122  121 1
   122  123  121 ar
   123  124  123 ar
   124  125  124 1
   125  126  118 ar
   126  127  126 1
   127  128  123 1
   128  129  128 1
   129  130  128 1
   130  131  128 1
   131  132  131 1
   132  133  131 1
   133  134  131 1
   134  135  134 1
   135  136  134 1
   136  137  134 1
   137  138  137 1
   138  139  137 1
   139  140  137 1
   140    6    8 ar
   141   25   26 ar
   142   33   35 ar
   143   56   58 ar
   144   75   80 1
   145   76   78 ar
   146   81   82 ar
   147   83   85 ar
   148   86   87 ar
   149   87   88 1
   150   91   93 ar
   151  101  103 ar
   152  124  126 ar
@<TRIPOS>SUBSTRUCTURE
     1 RES1 1

@<TRIPOS>CRYSIN
  17.8939   20.3823   15.5372  90.0000 105.4780  90.0000  15 1

