# MOL2 file generated by ConQuest
# Please check atom types

@<TRIPOS>MOLECULE
ARUGEB
    92   104     1
SMALL
NO_CHARGES
****
Generated from CSD

@<TRIPOS>ATOM
      1 C1         3.3525    2.8763    8.9613 C.ar      1 RES1    0.0000
      2 C2         2.0248    2.7936    9.6341 C.ar      1 RES1    0.0000
      3 C3         3.8612    4.1451    8.7125 C.ar      1 RES1    0.0000
      4 C4         3.6776    6.4082    8.4872 C.ar      1 RES1    0.0000
      5 C5         3.0656    8.4019    7.2626 C.ar      1 RES1    0.0000
      6 C6         3.2068    5.3018    9.1745 C.ar      1 RES1    0.0000
      7 C7         2.0555    9.3538    6.9359 C.ar      1 RES1    0.0000
      8 C8         1.6639    7.5234    9.0450 C.ar      1 RES1    0.0000
      9 C9         0.7249    9.2580    7.6080 C.ar      1 RES1    0.0000
     10 C10        8.3924    6.1526    3.9710 C.ar      1 RES1    0.0000
     11 C11        1.1928    6.4169    9.7362 C.ar      1 RES1    0.0000
     12 C12        1.3026    4.0031    9.9185 C.ar      1 RES1    0.0000
     13 C13        1.9449    5.2489    9.7546 C.ar      1 RES1    0.0000
     14 C14       -6.6524    5.4799   11.0871 C.3       1 RES1    0.0000
     15 C15        2.8690    7.5257    8.3554 C.ar      1 RES1    0.0000
     16 C16       -5.1475    5.4246   10.8146 C.ar      1 RES1    0.0000
     17 C17        8.4771    6.0358    5.3531 C.ar      1 RES1    0.0000
     18 H1         9.3093    5.7973    5.7457 H         1 RES1    0.0000
     19 C18        0.5810    8.3270    8.6393 C.ar      1 RES1    0.0000
     20 C19        4.8601    4.5010    7.7556 C.ar      1 RES1    0.0000
     21 C20        4.0766    1.8348    8.3420 C.ar      1 RES1    0.0000
     22 H2         3.8385    0.9287    8.5001 H         1 RES1    0.0000
     23 C21        4.7011    6.0174    7.5578 C.ar      1 RES1    0.0000
     24 C22       -4.5937    4.5010    9.9146 C.ar      1 RES1    0.0000
     25 H3        -5.1691    3.9102    9.4444 H         1 RES1    0.0000
     26 C23        7.3856    6.2570    6.1747 C.ar      1 RES1    0.0000
     27 H4         7.4796    6.1567    7.1147 H         1 RES1    0.0000
     28 C24       -0.2311    6.4351    9.8515 C.ar      1 RES1    0.0000
     29 C25       -0.6324    7.7744    9.1657 C.ar      1 RES1    0.0000
     30 C26        9.6269    5.9785    3.0883 C.3       1 RES1    0.0000
     31 C27       -2.8914    6.1925   11.2745 C.ar      1 RES1    0.0000
     32 H5        -2.3218    6.8007   11.7316 H         1 RES1    0.0000
     33 C28        4.2191    8.1573    6.4521 C.ar      1 RES1    0.0000
     34 C29        3.5697   10.1478    5.2394 C.ar      1 RES1    0.0000
     35 H6         3.7934   10.8215    4.6087 H         1 RES1    0.0000
     36 C30        7.1321    6.4689    3.4422 C.ar      1 RES1    0.0000
     37 H7         7.0307    6.5283    2.4996 H         1 RES1    0.0000
     38 C31       -0.0999    4.0177   10.2054 C.ar      1 RES1    0.0000
     39 C32        5.5223    3.4474    7.1574 C.ar      1 RES1    0.0000
     40 H8         6.2199    3.6031    6.5315 H         1 RES1    0.0000
     41 C33       -0.4898    9.8345    7.1976 C.ar      1 RES1    0.0000
     42 H9        -0.4965   10.5061    6.5266 H         1 RES1    0.0000
     43 C34       -3.2210    4.4293    9.6953 C.ar      1 RES1    0.0000
     44 H10       -2.8782    3.7945    9.0768 H         1 RES1    0.0000
     45 C35        5.0265    6.9225    6.5750 C.ar      1 RES1    0.0000
     46 C36        5.1389    2.1410    7.4992 C.ar      1 RES1    0.0000
     47 H11        5.6377    1.4212    7.1311 H         1 RES1    0.0000
     48 C37       -0.8716    5.2689   10.1497 C.ar      1 RES1    0.0000
     49 C38        6.0270    6.6983    4.2530 C.ar      1 RES1    0.0000
     50 H12        5.1875    6.9041    3.8588 H         1 RES1    0.0000
     51 C39       -4.2525    6.2191   11.5064 C.ar      1 RES1    0.0000
     52 H13       -4.5896    6.8099   12.1710 H         1 RES1    0.0000
     53 C40       -2.3436    5.2710   10.3656 C.ar      1 RES1    0.0000
     54 C41        2.3576   10.2379    5.9016 C.ar      1 RES1    0.0000
     55 H14        1.7286   10.9044    5.6493 H         1 RES1    0.0000
     56 C42        4.4653    9.1229    5.4547 C.ar      1 RES1    0.0000
     57 H15        5.2537    9.0665    4.9272 H         1 RES1    0.0000
     58 C43        6.1391    6.6287    5.6402 C.ar      1 RES1    0.0000
     59 C44       -1.7897    8.3836    8.7396 C.ar      1 RES1    0.0000
     60 H16       -2.6341    8.1143    9.0817 H         1 RES1    0.0000
     61 C45        0.0457    1.5881   10.2936 C.ar      1 RES1    0.0000
     62 H17       -0.3706    0.7587   10.4981 H         1 RES1    0.0000
     63 C46        1.3660    1.5860    9.8607 C.ar      1 RES1    0.0000
     64 H18        1.8192    0.7628    9.7189 H         1 RES1    0.0000
     65 C47       -6.8833    5.1266   12.5654 C.3       1 RES1    0.0000
     66 H19       -7.8449    5.0775   12.7428 H         1 RES1    0.0000
     67 H20       -6.4811    5.8167   13.1333 H         1 RES1    0.0000
     68 H21       -6.4704    4.2594   12.7624 H         1 RES1    0.0000
     69 C48       -1.6971    9.4106    7.7893 C.ar      1 RES1    0.0000
     70 H22       -2.4997    9.8478    7.5281 H         1 RES1    0.0000
     71 C49       -0.6799    2.7410   10.4367 C.ar      1 RES1    0.0000
     72 H23       -1.5920    2.6867   10.6974 H         1 RES1    0.0000
     73 C50       10.8458    6.6543    3.7309 C.3       1 RES1    0.0000
     74 H24       11.6330    6.5191    3.1612 H         1 RES1    0.0000
     75 H25       11.0105    6.2601    4.6136 H         1 RES1    0.0000
     76 H26       10.6732    7.6136    3.8277 H         1 RES1    0.0000
     77 C51        9.9276    4.4908    2.9129 C.3       1 RES1    0.0000
     78 H27        9.1457    4.0423    2.5290 H         1 RES1    0.0000
     79 H28       10.1352    4.0945    3.7853 H         1 RES1    0.0000
     80 H29       10.6938    4.3812    2.3133 H         1 RES1    0.0000
     81 C52        9.4327    6.5887    1.7079 C.3       1 RES1    0.0000
     82 H30       10.2573    6.4863    1.1861 H         1 RES1    0.0000
     83 H31        9.2192    7.5409    1.7987 H         1 RES1    0.0000
     84 H32        8.6967    6.1311    1.2498 H         1 RES1    0.0000
     85 C53       -7.1831    6.8764   10.8249 C.3       1 RES1    0.0000
     86 H33       -7.0114    7.1222    9.8920 H         1 RES1    0.0000
     87 H34       -6.7347    7.5133   11.4195 H         1 RES1    0.0000
     88 H35       -8.1484    6.8969   10.9964 H         1 RES1    0.0000
     89 C54       -7.4302    4.4724   10.2498 C.3       1 RES1    0.0000
     90 H36       -7.3244    4.6863    9.2990 H         1 RES1    0.0000
     91 H37       -8.3788    4.5113   10.4900 H         1 RES1    0.0000
     92 H38       -7.0862    3.5703   10.4213 H         1 RES1    0.0000
@<TRIPOS>BOND
     1    1    2 ar
     2    2   12 ar
     3    3    1 ar
     4    4    6 ar
     5    5    7 ar
     6    6    3 ar
     7    7    9 ar
     8    8   11 ar
     9    9   19 ar
    10   10   17 ar
    11   11   13 ar
    12   12   13 ar
    13   13    6 ar
    14   14   16 1
    15   15    4 ar
    16   16   24 ar
    17   17   18 1
    18   19    8 ar
    19   20    3 ar
    20   21    1 ar
    21   22   21 1
    22   23    4 ar
    23   24   25 1
    24   26   17 ar
    25   27   26 1
    26   28   11 ar
    27   29   19 ar
    28   30   10 1
    29   31   32 1
    30   33    5 ar
    31   34   35 1
    32   36   10 ar
    33   37   36 1
    34   38   12 ar
    35   39   20 ar
    36   40   39 1
    37   41    9 ar
    38   42   41 1
    39   43   24 ar
    40   44   43 1
    41   45   23 ar
    42   46   21 ar
    43   47   46 1
    44   48   28 ar
    45   49   36 ar
    46   50   49 1
    47   51   16 ar
    48   52   51 1
    49   53   31 ar
    50   54    7 ar
    51   55   54 1
    52   56   33 ar
    53   57   56 1
    54   58   26 ar
    55   59   29 ar
    56   60   59 1
    57   61   62 1
    58   63    2 ar
    59   64   63 1
    60   65   14 1
    61   66   65 1
    62   67   65 1
    63   68   65 1
    64   69   41 ar
    65   70   69 1
    66   71   38 ar
    67   72   71 1
    68   73   30 1
    69   74   73 1
    70   75   73 1
    71   76   73 1
    72   77   30 1
    73   78   77 1
    74   79   77 1
    75   80   77 1
    76   81   30 1
    77   82   81 1
    78   83   81 1
    79   84   81 1
    80   85   14 1
    81   86   85 1
    82   87   85 1
    83   88   85 1
    84   89   14 1
    85   90   89 1
    86   91   89 1
    87   92   89 1
    88    5   15 ar
    89    8   15 ar
    90   20   23 1
    91   28   29 1
    92   31   51 ar
    93   33   45 ar
    94   34   54 ar
    95   34   56 ar
    96   38   48 ar
    97   39   46 ar
    98   43   53 ar
    99   45   58 1
   100   48   53 1
   101   49   58 ar
   102   59   69 ar
   103   61   63 ar
   104   61   71 ar
@<TRIPOS>SUBSTRUCTURE
     1 RES1 1

@<TRIPOS>CRYSIN
  21.7706   10.2389   17.6237  90.0000 112.0300  90.0000  14 1

