# MOL2 file generated by ConQuest
# Please check atom types

@<TRIPOS>MOLECULE
AVIMAT
    51    55     1
SMALL
NO_CHARGES
****
Generated from CSD

@<TRIPOS>ATOM
      1 C1         3.1416    4.9204    6.4877 C.3       1 RES1    0.0000
      2 H1         2.8240    5.6502    7.0417 H         1 RES1    0.0000
      3 H2         3.4400    4.2092    7.0751 H         1 RES1    0.0000
      4 C2         1.9899    4.4088    5.6375 C.3       1 RES1    0.0000
      5 H3         1.4376    3.8240    6.1788 H         1 RES1    0.0000
      6 H4         1.4431    5.1629    5.3653 H         1 RES1    0.0000
      7 C3         2.4294    3.6535    4.3962 C.ar      1 RES1    0.0000
      8 C4         3.2654    2.5571    4.4626 C.ar      1 RES1    0.0000
      9 H5         3.4862    2.2055    5.2952 H         1 RES1    0.0000
     10 C5         3.7849    1.9654    3.3258 C.ar      1 RES1    0.0000
     11 H6         4.3500    1.2310    3.4070 H         1 RES1    0.0000
     12 C6         3.4750    2.4492    2.0776 C.ar      1 RES1    0.0000
     13 C7         2.6011    3.4980    1.9996 C.ar      1 RES1    0.0000
     14 H7         2.3337    3.8089    1.1638 H         1 RES1    0.0000
     15 C8         2.1043    4.1083    3.1427 C.ar      1 RES1    0.0000
     16 H8         1.5388    4.8415    3.0568 H         1 RES1    0.0000
     17 C9         4.1398    1.8749    0.8406 C.3       1 RES1    0.0000
     18 H9         4.1999    0.9096    0.9202 H         1 RES1    0.0000
     19 H10        3.6056    2.0802    0.0573 H         1 RES1    0.0000
     20 C10        5.5270    2.4550    0.6734 C.ar      1 RES1    0.0000
     21 C11        6.6150    1.8447    1.2418 C.ar      1 RES1    0.0000
     22 H11        6.5095    1.0105    1.6414 H         1 RES1    0.0000
     23 C12        7.8594    2.4318    1.2386 C.ar      1 RES1    0.0000
     24 H12        8.5705    1.9932    1.6462 H         1 RES1    0.0000
     25 C13        8.0759    3.6558    0.6435 C.ar      1 RES1    0.0000
     26 C14        7.0025    4.2452    0.0048 C.ar      1 RES1    0.0000
     27 H13        7.1267    5.0469   -0.4490 H         1 RES1    0.0000
     28 C15        5.7436    3.6662    0.0271 C.ar      1 RES1    0.0000
     29 H14        5.0334    4.0943   -0.3948 H         1 RES1    0.0000
     30 C16        9.4087    4.3484    0.7610 C.3       1 RES1    0.0000
     31 H15        9.7240    4.5665   -0.1290 H         1 RES1    0.0000
     32 H16       10.0448    3.7312    1.1542 H         1 RES1    0.0000
     33 C17        9.3838    5.6235    1.5968 C.3       1 RES1    0.0000
     34 H17       10.2824    5.8138    1.9089 H         1 RES1    0.0000
     35 H18        9.1018    6.3625    1.0364 H         1 RES1    0.0000
     36 C18        8.4645    5.5260    2.7812 C.ar      1 RES1    0.0000
     37 C19        7.3203    6.2767    2.8165 C.ar      1 RES1    0.0000
     38 H19        7.1870    6.9392    2.1764 H         1 RES1    0.0000
     39 C20        6.3251    6.0586    3.8241 C.ar      1 RES1    0.0000
     40 C21        5.1086    6.7512    3.8417 C.ar      1 RES1    0.0000
     41 H20        4.9618    7.4404    3.2351 H         1 RES1    0.0000
     42 C22        4.1426    6.4240    4.7380 C.ar      1 RES1    0.0000
     43 H21        3.3435    6.8997    4.7268 H         1 RES1    0.0000
     44 C23        4.3043    5.3984    5.6743 C.ar      1 RES1    0.0000
     45 C24        5.5208    4.7533    5.7155 C.ar      1 RES1    0.0000
     46 H22        5.6628    4.0990    6.3619 H         1 RES1    0.0000
     47 C25        6.5647    5.0573    4.7990 C.ar      1 RES1    0.0000
     48 C26        7.7907    4.3751    4.7682 C.ar      1 RES1    0.0000
     49 H23        7.9829    3.7509    5.4305 H         1 RES1    0.0000
     50 C27        8.6986    4.6095    3.7939 C.ar      1 RES1    0.0000
     51 H24        9.5024    4.1431    3.8019 H         1 RES1    0.0000
@<TRIPOS>BOND
     1    1    2 1
     2    3    1 1
     3    4    1 1
     4    5    4 1
     5    6    4 1
     6    7    4 1
     7    8    7 ar
     8    9    8 1
     9   10    8 ar
    10   11   10 1
    11   12   10 ar
    12   13   12 ar
    13   14   13 1
    14   15    7 ar
    15   16   15 1
    16   17   12 1
    17   18   17 1
    18   19   17 1
    19   20   17 1
    20   21   20 ar
    21   22   21 1
    22   23   21 ar
    23   24   23 1
    24   25   23 ar
    25   26   25 ar
    26   27   26 1
    27   28   20 ar
    28   29   28 1
    29   30   25 1
    30   31   30 1
    31   32   30 1
    32   33   30 1
    33   34   33 1
    34   35   33 1
    35   36   33 1
    36   37   36 ar
    37   38   37 1
    38   39   37 ar
    39   40   39 ar
    40   41   40 1
    41   42   40 ar
    42   43   42 1
    43   44    1 1
    44   45   44 ar
    45   46   45 1
    46   47   39 ar
    47   48   47 ar
    48   49   48 1
    49   50   36 ar
    50   51   50 1
    51   13   15 ar
    52   26   28 ar
    53   42   44 ar
    54   45   47 ar
    55   48   50 ar
@<TRIPOS>SUBSTRUCTURE
     1 RES1 1

@<TRIPOS>CRYSIN
  10.7050   11.6020   16.0900  90.0000  98.3200  90.0000 231 1

