# MOL2 file generated by ConQuest
# Please check atom types

@<TRIPOS>MOLECULE
AWIRIJ
    96   107     1
SMALL
NO_CHARGES
****
Generated from CSD

@<TRIPOS>ATOM
      1 C1         9.0015   13.5042    0.1631 C.ar      1 RES1    0.0000
      2 C2         8.3166   14.0179   -0.9355 C.ar      1 RES1    0.0000
      3 H1         8.7469   14.0665   -1.7582 H         1 RES1    0.0000
      4 C3         7.0196   14.4538   -0.8287 C.ar      1 RES1    0.0000
      5 H2         6.5866   14.8072   -1.5721 H         1 RES1    0.0000
      6 C4         6.3558   14.3693    0.3769 C.ar      1 RES1    0.0000
      7 H3         5.4785   14.6728    0.4390 H         1 RES1    0.0000
      8 C5         6.9779   13.8374    1.5033 C.ar      1 RES1    0.0000
      9 C6         8.3212   13.4041    1.4109 C.ar      1 RES1    0.0000
     10 C7        10.3579   13.0768    0.0893 C.ar      1 RES1    0.0000
     11 H4        10.8082   13.1270   -0.7233 H         1 RES1    0.0000
     12 C8        10.9977   12.6047    1.1636 C.ar      1 RES1    0.0000
     13 H5        11.8868   12.3449    1.0829 H         1 RES1    0.0000
     14 C9        10.3482   12.4881    2.4347 C.ar      1 RES1    0.0000
     15 C10        8.9923   12.8784    2.5530 C.ar      1 RES1    0.0000
     16 C11        8.3052   12.7263    3.8027 C.ar      1 RES1    0.0000
     17 C12        6.9291   13.1441    3.8253 C.ar      1 RES1    0.0000
     18 H6         6.4422   13.0368    4.6097 H         1 RES1    0.0000
     19 C13        6.3209   13.6827    2.7570 C.ar      1 RES1    0.0000
     20 H7         5.4388   13.9645    2.8390 H         1 RES1    0.0000
     21 C14        8.9982   12.2144    4.9149 C.ar      1 RES1    0.0000
     22 C15       10.3381   11.8807    4.7627 C.ar      1 RES1    0.0000
     23 H8        10.8072   11.5632    5.5002 H         1 RES1    0.0000
     24 C16       10.9957   12.0035    3.5602 C.ar      1 RES1    0.0000
     25 H9        11.8903   11.7569    3.5017 H         1 RES1    0.0000
     26 C17        8.3444   11.9977    6.2844 C.3       1 RES1    0.0000
     27 H10        7.4067   12.2696    6.2027 H         1 RES1    0.0000
     28 C18        8.3523   10.4888    6.6534 C.3       1 RES1    0.0000
     29 H11        9.2897   10.2064    6.6919 H         1 RES1    0.0000
     30 C19        7.6780    9.6642    5.5517 C.ar      1 RES1    0.0000
     31 C20        6.3388    9.9007    5.2680 C.ar      1 RES1    0.0000
     32 H12        5.8837   10.5435    5.7637 H         1 RES1    0.0000
     33 C21        5.6615    9.2215    4.2833 C.ar      1 RES1    0.0000
     34 H13        4.7738    9.4357    4.1058 H         1 RES1    0.0000
     35 C22        6.2845    8.2189    3.5473 C.ar      1 RES1    0.0000
     36 C23        7.6337    7.9146    3.8353 C.ar      1 RES1    0.0000
     37 C24        8.3520    8.6631    4.8179 C.ar      1 RES1    0.0000
     38 C25        9.7370    8.3271    5.0031 C.ar      1 RES1    0.0000
     39 H14       10.2393    8.8179    5.6131 H         1 RES1    0.0000
     40 C26       10.3320    7.3321    4.3300 C.ar      1 RES1    0.0000
     41 H15       11.2282    7.1485    4.4968 H         1 RES1    0.0000
     42 C27        9.6323    6.5451    3.3631 C.ar      1 RES1    0.0000
     43 C28        8.2748    6.8656    3.1112 C.ar      1 RES1    0.0000
     44 C29        7.5628    6.1263    2.1288 C.ar      1 RES1    0.0000
     45 C30        6.2146    6.4940    1.8455 C.ar      1 RES1    0.0000
     46 H16        5.7452    6.0356    1.1874 H         1 RES1    0.0000
     47 C31        5.6112    7.4922    2.5139 C.ar      1 RES1    0.0000
     48 H17        4.7339    7.7164    2.2996 H         1 RES1    0.0000
     49 C32        8.2058    5.0837    1.4686 C.ar      1 RES1    0.0000
     50 H18        7.7369    4.5848    0.8383 H         1 RES1    0.0000
     51 C33        9.5173    4.7782    1.7285 C.ar      1 RES1    0.0000
     52 H19        9.9262    4.0761    1.2773 H         1 RES1    0.0000
     53 C34       10.2290    5.5022    2.6510 C.ar      1 RES1    0.0000
     54 H20       11.1227    5.2958    2.8055 H         1 RES1    0.0000
     55 C35        7.7272   10.1601    8.0141 C.ar      1 RES1    0.0000
     56 C36        6.6625   10.8956    8.5209 C.ar      1 RES1    0.0000
     57 H21        6.3541   11.6303    8.0403 H         1 RES1    0.0000
     58 C37        6.0469   10.5707    9.7150 C.ar      1 RES1    0.0000
     59 H22        5.3513   11.0954   10.0388 H         1 RES1    0.0000
     60 C38        6.4622    9.4807   10.4174 C.ar      1 RES1    0.0000
     61 H23        6.0406    9.2476   11.2137 H         1 RES1    0.0000
     62 C39        7.5077    8.7287    9.9420 C.ar      1 RES1    0.0000
     63 H24        7.7804    7.9778   10.4193 H         1 RES1    0.0000
     64 C40        8.1708    9.0624    8.7626 C.ar      1 RES1    0.0000
     65 C41        9.3376    8.2168    8.3754 C.ar      1 RES1    0.0000
     66 C42       10.6411    8.6807    8.5226 C.ar      1 RES1    0.0000
     67 H25       10.7882    9.5332    8.8660 H         1 RES1    0.0000
     68 C43       11.7153    7.8998    8.1695 C.ar      1 RES1    0.0000
     69 H26       12.5790    8.2325    8.2556 H         1 RES1    0.0000
     70 C44       11.5166    6.6299    7.6888 C.ar      1 RES1    0.0000
     71 H27       12.2440    6.1022    7.4465 H         1 RES1    0.0000
     72 C45       10.2440    6.1436    7.5684 C.ar      1 RES1    0.0000
     73 H28       10.1078    5.2779    7.2542 H         1 RES1    0.0000
     74 C46        9.1582    6.9279    7.9090 C.ar      1 RES1    0.0000
     75 H29        8.2978    6.5852    7.8228 H         1 RES1    0.0000
     76 C47        8.9835   12.8972    7.3475 C.ar      1 RES1    0.0000
     77 C48       10.0942   12.4716    8.0695 C.ar      1 RES1    0.0000
     78 H30       10.4314   11.6184    7.9169 H         1 RES1    0.0000
     79 C49       10.7106   13.2756    9.0051 C.ar      1 RES1    0.0000
     80 H31       11.4515   12.9626    9.4702 H         1 RES1    0.0000
     81 C50       10.2343   14.5314    9.2480 C.ar      1 RES1    0.0000
     82 H32       10.6464   15.0757    9.8800 H         1 RES1    0.0000
     83 C51        9.1400   14.9819    8.5489 C.ar      1 RES1    0.0000
     84 H33        8.8162   15.8372    8.7197 H         1 RES1    0.0000
     85 C52        8.4991   14.1909    7.5870 C.ar      1 RES1    0.0000
     86 C53        7.3447   14.7727    6.8510 C.ar      1 RES1    0.0000
     87 C54        6.0359   14.4271    7.1486 C.ar      1 RES1    0.0000
     88 H34        5.8716   13.8268    7.8396 H         1 RES1    0.0000
     89 C55        4.9760   14.9501    6.4475 C.ar      1 RES1    0.0000
     90 H35        4.1082   14.6824    6.6480 H         1 RES1    0.0000
     91 C56        5.1974   15.8627    5.4559 C.ar      1 RES1    0.0000
     92 H36        4.4813   16.2147    4.9776 H         1 RES1    0.0000
     93 C57        6.4764   16.2591    5.1674 C.ar      1 RES1    0.0000
     94 H37        6.6250   16.8955    4.5051 H         1 RES1    0.0000
     95 C58        7.5470   15.7195    5.8519 C.ar      1 RES1    0.0000
     96 H38        8.4115   15.9908    5.6424 H         1 RES1    0.0000
@<TRIPOS>BOND
     1    1    2 ar
     2    2    3 1
     3    4    2 ar
     4    5    4 1
     5    6    4 ar
     6    7    6 1
     7    8    6 ar
     8    9    1 ar
     9   10    1 ar
    10   11   10 1
    11   12   10 ar
    12   13   12 1
    13   14   12 ar
    14   15    9 ar
    15   16   15 ar
    16   17   16 ar
    17   18   17 1
    18   19    8 ar
    19   20   19 1
    20   21   16 ar
    21   22   21 ar
    22   23   22 1
    23   24   14 ar
    24   25   24 1
    25   26   21 1
    26   27   26 1
    27   28   26 1
    28   29   28 1
    29   30   28 1
    30   31   30 ar
    31   32   31 1
    32   33   31 ar
    33   34   33 1
    34   35   33 ar
    35   36   35 ar
    36   37   30 ar
    37   38   37 ar
    38   39   38 1
    39   40   38 ar
    40   41   40 1
    41   42   40 ar
    42   43   36 ar
    43   44   43 ar
    44   45   44 ar
    45   46   45 1
    46   47   35 ar
    47   48   47 1
    48   49   44 ar
    49   50   49 1
    50   51   49 ar
    51   52   51 1
    52   53   42 ar
    53   54   53 1
    54   55   28 1
    55   56   55 ar
    56   57   56 1
    57   58   56 ar
    58   59   58 1
    59   60   58 ar
    60   61   60 1
    61   62   60 ar
    62   63   62 1
    63   64   55 ar
    64   65   64 1
    65   66   65 ar
    66   67   66 1
    67   68   66 ar
    68   69   68 1
    69   70   68 ar
    70   71   70 1
    71   72   70 ar
    72   73   72 1
    73   74   65 ar
    74   75   74 1
    75   76   26 1
    76   77   76 ar
    77   78   77 1
    78   79   77 ar
    79   80   79 1
    80   81   79 ar
    81   82   81 1
    82   83   81 ar
    83   84   83 1
    84   85   76 ar
    85   86   85 1
    86   87   86 ar
    87   88   87 1
    88   89   87 ar
    89   90   89 1
    90   91   89 ar
    91   92   91 1
    92   93   91 ar
    93   94   93 1
    94   95   86 ar
    95   96   95 1
    96    8    9 ar
    97   14   15 ar
    98   17   19 ar
    99   22   24 ar
   100   36   37 ar
   101   42   43 ar
   102   45   47 ar
   103   51   53 ar
   104   62   64 ar
   105   72   74 ar
   106   83   85 ar
   107   93   95 ar
@<TRIPOS>SUBSTRUCTURE
     1 RES1 1

@<TRIPOS>CRYSIN
   7.7741   11.8714   21.2066  84.0730  82.0430  86.5160   2 1

