# MOL2 file generated by ConQuest
# Please check atom types

@<TRIPOS>MOLECULE
AZIWAJ
   124   137     1
SMALL
NO_CHARGES
****
Generated from CSD

@<TRIPOS>ATOM
      1 C1         6.5026    8.5886    9.3254 C.3       1 RES1    0.0000
      2 H1         7.3496    8.1446    9.6133 H         1 RES1    0.0000
      3 C2         4.3031    9.7240    8.6021 C.3       1 RES1    0.0000
      4 H2         3.4489   10.1633    8.3226 H         1 RES1    0.0000
      5 C3         7.9854    8.5958    3.3359 C.ar      1 RES1    0.0000
      6 C4         8.8638    7.8709    2.4494 C.ar      1 RES1    0.0000
      7 C5         8.3850    7.4892    1.1744 C.ar      1 RES1    0.0000
      8 C6         7.0846    7.9117    0.7162 C.ar      1 RES1    0.0000
      9 C7         6.2688    8.7279    1.5233 C.ar      1 RES1    0.0000
     10 C8         6.6892    9.0231    2.8792 C.ar      1 RES1    0.0000
     11 C9         6.1715    9.8176   10.1466 C.ar      1 RES1    0.0000
     12 C10        6.8573   10.2953   11.2316 C.ar      1 RES1    0.0000
     13 H3         7.6526    9.8560   11.5096 H         1 RES1    0.0000
     14 C11        6.4170   11.4019   11.9280 C.ar      1 RES1    0.0000
     15 H4         6.8938   11.7188   12.6868 H         1 RES1    0.0000
     16 C12        5.2509   12.0452   11.4926 C.ar      1 RES1    0.0000
     17 H5         4.9482   12.8253   11.9408 H         1 RES1    0.0000
     18 C13        4.5356   11.5531   10.4161 C.ar      1 RES1    0.0000
     19 H6         3.7360   11.9852   10.1409 H         1 RES1    0.0000
     20 C14        4.9812   10.4441    9.7424 C.ar      1 RES1    0.0000
     21 C15        5.2879    7.6717    9.4162 C.ar      1 RES1    0.0000
     22 C16        5.2787    6.3515    9.8218 C.ar      1 RES1    0.0000
     23 H7         6.0945    5.9074   10.0232 H         1 RES1    0.0000
     24 C17        4.0693    5.6769    9.9324 C.ar      1 RES1    0.0000
     25 H8         4.0476    4.7720   10.2147 H         1 RES1    0.0000
     26 C18        2.9142    6.3323    9.6303 C.ar      1 RES1    0.0000
     27 H9         2.0887    5.8786    9.7523 H         1 RES1    0.0000
     28 C19        2.8921    7.6333    9.1538 C.ar      1 RES1    0.0000
     29 H10        2.0769    8.0509    8.8971 H         1 RES1    0.0000
     30 C20        4.1012    8.3054    9.0644 C.ar      1 RES1    0.0000
     31 C21        6.5430    9.0663    7.8787 C.ar      1 RES1    0.0000
     32 C22        7.5407    8.8767    6.9823 C.ar      1 RES1    0.0000
     33 H11        8.3763    8.5406    7.2830 H         1 RES1    0.0000
     34 C23        7.3671    9.1671    5.6108 C.ar      1 RES1    0.0000
     35 C24        8.3868    8.8599    4.6393 C.ar      1 RES1    0.0000
     36 C25        9.8129    8.8743    4.9003 C.ar      1 RES1    0.0000
     37 C26       10.3648    9.6544    5.9300 C.ar      1 RES1    0.0000
     38 H12        9.7835   10.0169    6.5895 H         1 RES1    0.0000
     39 C27       11.7020    9.9113    6.0193 C.ar      1 RES1    0.0000
     40 H13       12.0364   10.4345    6.7384 H         1 RES1    0.0000
     41 C28       12.5885    9.4024    5.0478 C.ar      1 RES1    0.0000
     42 C29       12.0558    8.6150    4.0507 C.ar      1 RES1    0.0000
     43 H14       12.6387    8.2838    3.3784 H         1 RES1    0.0000
     44 C30       10.6847    8.2742    3.9784 C.ar      1 RES1    0.0000
     45 C31       10.1731    7.5109    2.8607 C.ar      1 RES1    0.0000
     46 C32       10.8748    6.5051    2.1019 C.ar      1 RES1    0.0000
     47 C33       10.3929    6.1954    0.8510 C.ar      1 RES1    0.0000
     48 H15       10.9027    5.6073    0.3078 H         1 RES1    0.0000
     49 C34        9.1872    6.7043    0.3333 C.ar      1 RES1    0.0000
     50 C35        8.7283    6.3731   -0.9673 C.ar      1 RES1    0.0000
     51 H16        9.2820    5.8618   -1.5460 H         1 RES1    0.0000
     52 C36        7.5102    6.7787   -1.3914 C.ar      1 RES1    0.0000
     53 H17        7.2198    6.5459   -2.2650 H         1 RES1    0.0000
     54 C37        6.6605    7.5469   -0.5602 C.ar      1 RES1    0.0000
     55 C38        5.3223    7.8349   -0.9035 C.ar      1 RES1    0.0000
     56 H18        5.0019    7.5037   -1.7346 H         1 RES1    0.0000
     57 C39        4.4452    8.5574   -0.1262 C.ar      1 RES1    0.0000
     58 C40        5.0008    9.1575    1.0566 C.ar      1 RES1    0.0000
     59 C41        4.4201   10.2713    1.7814 C.ar      1 RES1    0.0000
     60 C42        3.6437   11.2387    1.1120 C.ar      1 RES1    0.0000
     61 H19        3.4449   11.0970    0.1929 H         1 RES1    0.0000
     62 C43        3.1669   12.3573    1.7034 C.ar      1 RES1    0.0000
     63 C44        3.4933   12.5757    3.0650 C.ar      1 RES1    0.0000
     64 H20        3.1443   13.3342    3.5146 H         1 RES1    0.0000
     65 C45        4.2991   11.7068    3.7330 C.ar      1 RES1    0.0000
     66 H21        4.5247   11.8916    4.6365 H         1 RES1    0.0000
     67 C46        4.8140   10.5330    3.1260 C.ar      1 RES1    0.0000
     68 C47        5.8559    9.7264    3.7429 C.ar      1 RES1    0.0000
     69 C48        6.1004    9.6496    5.1556 C.ar      1 RES1    0.0000
     70 C49        5.1101    9.8992    6.1370 C.ar      1 RES1    0.0000
     71 H22        4.2754   10.2665    5.8661 H         1 RES1    0.0000
     72 C50        5.3136    9.6328    7.4617 C.ar      1 RES1    0.0000
     73 C51       14.0596    9.8128    5.0690 C.3       1 RES1    0.0000
     74 C52       14.8429    9.2751    3.9443 C.3       1 RES1    0.0000
     75 H23       14.4274    9.5440    3.0990 H         1 RES1    0.0000
     76 H24       15.7575    9.6256    3.9855 H         1 RES1    0.0000
     77 H25       14.8660    8.2958    4.0011 H         1 RES1    0.0000
     78 C53       14.6612    9.4264    6.3881 C.3       1 RES1    0.0000
     79 H26       14.1197    9.7984    7.1157 H         1 RES1    0.0000
     80 H27       14.6827    8.4494    6.4632 H         1 RES1    0.0000
     81 H28       15.5727    9.7792    6.4476 H         1 RES1    0.0000
     82 C54       14.1819   11.3323    5.0350 C.3       1 RES1    0.0000
     83 H29       13.6683   11.7188    5.7754 H         1 RES1    0.0000
     84 H30       15.1239   11.5843    5.1244 H         1 RES1    0.0000
     85 H31       13.8324   11.6683    4.1840 H         1 RES1    0.0000
     86 C55       12.0219    5.5905    2.6026 C.3       1 RES1    0.0000
     87 C56       11.6338    4.1287    2.2622 C.3       1 RES1    0.0000
     88 H32       11.4495    4.0543    1.3034 H         1 RES1    0.0000
     89 H33       12.3735    3.5310    2.5005 H         1 RES1    0.0000
     90 H34       10.8343    3.8766    2.7700 H         1 RES1    0.0000
     91 C57       13.3234    5.9146    1.8395 C.3       1 RES1    0.0000
     92 H35       13.1462    5.9050    0.8765 H         1 RES1    0.0000
     93 H36       13.6452    6.8003    2.1048 H         1 RES1    0.0000
     94 H37       14.0032    5.2425    2.0537 H         1 RES1    0.0000
     95 C58       12.2876    5.6049    4.1088 C.3       1 RES1    0.0000
     96 H38       11.4577    5.3985    4.5882 H         1 RES1    0.0000
     97 H39       12.9660    4.9304    4.3258 H         1 RES1    0.0000
     98 H40       12.6094    6.4907    4.3769 H         1 RES1    0.0000
     99 C59        2.9368    8.4446   -0.5290 C.3       1 RES1    0.0000
    100 C60        2.6511    6.9660   -0.8879 C.3       1 RES1    0.0000
    101 H41        2.8222    6.3995   -0.1064 H         1 RES1    0.0000
    102 H42        1.7157    6.8699   -1.1616 H         1 RES1    0.0000
    103 H43        3.2362    6.6899   -1.6240 H         1 RES1    0.0000
    104 C61        2.6593    9.2823   -1.7686 C.3       1 RES1    0.0000
    105 H44        3.2958    9.0399   -2.4735 H         1 RES1    0.0000
    106 H45        1.7453    9.1095   -2.0807 H         1 RES1    0.0000
    107 H46        2.7575   10.2329   -1.5502 H         1 RES1    0.0000
    108 C62        1.9669    8.7855    0.6056 C.3       1 RES1    0.0000
    109 H47        2.1716    8.2310    1.3885 H         1 RES1    0.0000
    110 H48        2.0593    9.7312    0.8425 H         1 RES1    0.0000
    111 H49        1.0485    8.6102    0.3134 H         1 RES1    0.0000
    112 C63        2.3606   13.4182    0.9559 C.3       1 RES1    0.0000
    113 C64        2.0265   12.9934   -0.4666 C.3       1 RES1    0.0000
    114 H50        1.5050   12.1628   -0.4468 H         1 RES1    0.0000
    115 H51        1.5037   13.6967   -0.9049 H         1 RES1    0.0000
    116 H52        2.8567   12.8445   -0.9673 H         1 RES1    0.0000
    117 C65        1.0664   13.6919    1.6906 C.3       1 RES1    0.0000
    118 H53        0.5375   12.8661    1.7388 H         1 RES1    0.0000
    119 H54        1.2654   14.0039    2.5969 H         1 RES1    0.0000
    120 H55        0.5581   14.3784    1.2112 H         1 RES1    0.0000
    121 C66        3.1629   14.6952    0.8907 C.3       1 RES1    0.0000
    122 H56        4.0040   14.5296    0.4170 H         1 RES1    0.0000
    123 H57        2.6490   15.3818    0.4141 H         1 RES1    0.0000
    124 H58        3.3562   15.0073    1.7998 H         1 RES1    0.0000
@<TRIPOS>BOND
     1    1    2 1
     2    3    4 1
     3    5    6 ar
     4    6    7 ar
     5    7    8 ar
     6    8    9 ar
     7    9   10 ar
     8   10    5 ar
     9   11    1 1
    10   12   11 ar
    11   13   12 1
    12   14   12 ar
    13   15   14 1
    14   16   14 ar
    15   17   16 1
    16   18   16 ar
    17   19   18 1
    18   20    3 1
    19   21    1 1
    20   22   21 ar
    21   23   22 1
    22   24   22 ar
    23   25   24 1
    24   26   24 ar
    25   27   26 1
    26   28   26 ar
    27   29   28 1
    28   30    3 1
    29   31    1 1
    30   32   31 ar
    31   33   32 1
    32   34   32 ar
    33   35    5 ar
    34   36   35 ar
    35   37   36 ar
    36   38   37 1
    37   39   37 ar
    38   40   39 1
    39   41   39 ar
    40   42   41 ar
    41   43   42 1
    42   44   36 ar
    43   45    6 ar
    44   46   45 ar
    45   47   46 ar
    46   48   47 1
    47   49    7 ar
    48   50   49 ar
    49   51   50 1
    50   52   50 ar
    51   53   52 1
    52   54    8 ar
    53   55   54 ar
    54   56   55 1
    55   57   55 ar
    56   58    9 ar
    57   59   58 ar
    58   60   59 ar
    59   61   60 1
    60   62   60 ar
    61   63   62 ar
    62   64   63 1
    63   65   63 ar
    64   66   65 1
    65   67   59 ar
    66   68   10 ar
    67   69   34 ar
    68   70   69 ar
    69   71   70 1
    70   72    3 1
    71   73   41 1
    72   74   73 1
    73   75   74 1
    74   76   74 1
    75   77   74 1
    76   78   73 1
    77   79   78 1
    78   80   78 1
    79   81   78 1
    80   82   73 1
    81   83   82 1
    82   84   82 1
    83   85   82 1
    84   86   46 1
    85   87   86 1
    86   88   87 1
    87   89   87 1
    88   90   87 1
    89   91   86 1
    90   92   91 1
    91   93   91 1
    92   94   91 1
    93   95   86 1
    94   96   95 1
    95   97   95 1
    96   98   95 1
    97   99   57 1
    98  100   99 1
    99  101  100 1
   100  102  100 1
   101  103  100 1
   102  104   99 1
   103  105  104 1
   104  106  104 1
   105  107  104 1
   106  108   99 1
   107  109  108 1
   108  110  108 1
   109  111  108 1
   110  112   62 1
   111  113  112 1
   112  114  113 1
   113  115  113 1
   114  116  113 1
   115  117  112 1
   116  118  117 1
   117  119  117 1
   118  120  117 1
   119  121  112 1
   120  122  121 1
   121  123  121 1
   122  124  121 1
   123   11   20 ar
   124   18   20 ar
   125   21   30 ar
   126   28   30 ar
   127   31   72 ar
   128   34   35 ar
   129   42   44 ar
   130   44   45 ar
   131   47   49 ar
   132   52   54 ar
   133   57   58 ar
   134   65   67 ar
   135   67   68 ar
   136   68   69 ar
   137   70   72 ar
@<TRIPOS>SUBSTRUCTURE
     1 RES1 1

@<TRIPOS>CRYSIN
  14.0133   24.0040   14.1842  90.0000  90.7120  90.0000  14 1

