# MOL2 file generated by ConQuest
# Please check atom types

@<TRIPOS>MOLECULE
AZOYIY
    60    63     1
SMALL
NO_CHARGES
****
Generated from CSD

@<TRIPOS>ATOM
      1 C1         3.2840    4.6221   -0.8118 C.ar      1 RES1    0.0000
      2 C2         4.4862    4.5139   -0.1890 C.ar      1 RES1    0.0000
      3 H1         5.1925    5.0707   -0.4651 H         1 RES1    0.0000
      4 C3         4.7141    3.5874    0.8656 C.ar      1 RES1    0.0000
      5 H2         5.5729    3.5424    1.2457 H         1 RES1    0.0000
      6 C4         3.7453    2.7631    1.3516 C.ar      1 RES1    0.0000
      7 C5         2.4391    2.8334    0.7307 C.ar      1 RES1    0.0000
      8 C6         2.2027    3.7740   -0.3443 C.ar      1 RES1    0.0000
      9 C7         0.9519    3.8236   -0.9370 C.ar      1 RES1    0.0000
     10 H3         0.8085    4.4325   -1.6393 H         1 RES1    0.0000
     11 C8        -0.1148    2.9953   -0.5295 C.ar      1 RES1    0.0000
     12 C9        -1.3847    3.0423   -1.1320 C.ar      1 RES1    0.0000
     13 H4        -1.5281    3.6512   -1.8344 H         1 RES1    0.0000
     14 C10        3.0429    5.5561   -1.9697 C.3       1 RES1    0.0000
     15 H5         2.3122    6.1635   -1.7287 H         1 RES1    0.0000
     16 H6         2.7427    5.0251   -2.7370 H         1 RES1    0.0000
     17 C11        4.2366    6.3941   -2.4060 C.3       1 RES1    0.0000
     18 H7         4.9535    5.8085   -2.6963 H         1 RES1    0.0000
     19 H8         4.5432    6.9342   -1.6604 H         1 RES1    0.0000
     20 H9         3.9751    6.9731   -3.1386 H         1 RES1    0.0000
     21 C12        4.0051    1.8291    2.5169 C.3       1 RES1    0.0000
     22 H10        3.5245    0.9826    2.3369 H         1 RES1    0.0000
     23 C13        5.4749    1.4923    2.7253 C.3       1 RES1    0.0000
     24 H11        5.9509    2.2858    3.0167 H         1 RES1    0.0000
     25 H12        5.8563    1.1752    1.8913 H         1 RES1    0.0000
     26 H13        5.5559    0.8005    3.4005 H         1 RES1    0.0000
     27 C14        3.4313    2.4243    3.8090 C.3       1 RES1    0.0000
     28 H14        2.4789    2.5740    3.7013 H         1 RES1    0.0000
     29 H15        3.8712    3.2678    4.0006 H         1 RES1    0.0000
     30 H16        3.5799    1.8084    4.5437 H         1 RES1    0.0000
     31 C1B       -3.2840    0.4349    0.8118 C.ar      1 RES1    0.0000
     32 C2B       -4.4862    0.5431    0.1890 C.ar      1 RES1    0.0000
     33 H1B       -5.1925   -0.0137    0.4651 H         1 RES1    0.0000
     34 C3B       -4.7141    1.4696   -0.8656 C.ar      1 RES1    0.0000
     35 H2B       -5.5729    1.5146   -1.2457 H         1 RES1    0.0000
     36 C4B       -3.7453    2.2939   -1.3516 C.ar      1 RES1    0.0000
     37 C5B       -2.4391    2.2236   -0.7307 C.ar      1 RES1    0.0000
     38 C6B       -2.2027    1.2830    0.3443 C.ar      1 RES1    0.0000
     39 C7B       -0.9519    1.2334    0.9370 C.ar      1 RES1    0.0000
     40 H3B       -0.8085    0.6245    1.6393 H         1 RES1    0.0000
     41 C8B        0.1148    2.0617    0.5295 C.ar      1 RES1    0.0000
     42 C9B        1.3847    2.0147    1.1320 C.ar      1 RES1    0.0000
     43 H4B        1.5281    1.4058    1.8344 H         1 RES1    0.0000
     44 C10B      -3.0429   -0.4991    1.9697 C.3       1 RES1    0.0000
     45 H5B       -2.3122   -1.1065    1.7287 H         1 RES1    0.0000
     46 H6B       -2.7427    0.0319    2.7370 H         1 RES1    0.0000
     47 C11B      -4.2366   -1.3371    2.4060 C.3       1 RES1    0.0000
     48 H7B       -4.9535   -0.7515    2.6963 H         1 RES1    0.0000
     49 H8B       -4.5432   -1.8772    1.6604 H         1 RES1    0.0000
     50 H9B       -3.9751   -1.9161    3.1386 H         1 RES1    0.0000
     51 C12B      -4.0051    3.2279   -2.5169 C.3       1 RES1    0.0000
     52 H10B      -3.5245    4.0744   -2.3369 H         1 RES1    0.0000
     53 C13B      -5.4749    3.5647   -2.7253 C.3       1 RES1    0.0000
     54 H11B      -5.9509    2.7712   -3.0167 H         1 RES1    0.0000
     55 H12B      -5.8563    3.8818   -1.8913 H         1 RES1    0.0000
     56 H13B      -5.5559    4.2565   -3.4005 H         1 RES1    0.0000
     57 C14B      -3.4313    2.6327   -3.8090 C.3       1 RES1    0.0000
     58 H14B      -2.4789    2.4830   -3.7013 H         1 RES1    0.0000
     59 H15B      -3.8712    1.7892   -4.0006 H         1 RES1    0.0000
     60 H16B      -3.5799    3.2486   -4.5437 H         1 RES1    0.0000
@<TRIPOS>BOND
     1    1    2 ar
     2    2    3 1
     3    4    2 ar
     4    5    4 1
     5    6    4 ar
     6    7    6 ar
     7    8    1 ar
     8    9    8 ar
     9   10    9 1
    10   11    9 ar
    11   12   11 ar
    12   13   12 1
    13   14    1 1
    14   15   14 1
    15   16   14 1
    16   17   14 1
    17   18   17 1
    18   19   17 1
    19   20   17 1
    20   21    6 1
    21   22   21 1
    22   23   21 1
    23   24   23 1
    24   25   23 1
    25   26   23 1
    26   27   21 1
    27   28   27 1
    28   29   27 1
    29   30   27 1
    30   31   32 ar
    31   32   33 1
    32   34   32 ar
    33   35   34 1
    34   36   34 ar
    35   37   12 ar
    36   38   31 ar
    37   39   38 ar
    38   40   39 1
    39   41   11 ar
    40   42    7 ar
    41   43   42 1
    42   44   31 1
    43   45   44 1
    44   46   44 1
    45   47   44 1
    46   48   47 1
    47   49   47 1
    48   50   47 1
    49   51   36 1
    50   52   51 1
    51   53   51 1
    52   54   53 1
    53   55   53 1
    54   56   53 1
    55   57   51 1
    56   58   57 1
    57   59   57 1
    58   60   57 1
    59    7    8 ar
    60   36   37 ar
    61   37   38 ar
    62   39   41 ar
    63   41   42 ar
@<TRIPOS>SUBSTRUCTURE
     1 RES1 1

@<TRIPOS>CRYSIN
  12.9010    5.0570   16.9620  90.0000 106.5130  90.0000 231 1

