# MOL2 file generated by ConQuest
# Please check atom types

@<TRIPOS>MOLECULE
BACXOS01
   165   180     3
SMALL
NO_CHARGES
****
Generated from CSD

@<TRIPOS>ATOM
      1 C1         3.5595    9.8030    3.8770 C.ar      1 RES1    0.0000
      2 H1         2.6996    9.5316    3.6551 H         1 RES1    0.0000
      3 C2         3.9329   11.0609    3.5954 C.ar      1 RES1    0.0000
      4 H2         3.3277   11.6421    3.1897 H         1 RES1    0.0000
      5 C3         5.2133   11.5063    3.9043 C.ar      1 RES1    0.0000
      6 H3         5.4586   12.3781    3.6931 H         1 RES1    0.0000
      7 C4         6.1096   10.6862    4.5091 C.ar      1 RES1    0.0000
      8 H4         6.9600   10.9997    4.7175 H         1 RES1    0.0000
      9 C5         5.7416    9.3328    4.8278 C.ar      1 RES1    0.0000
     10 C6         6.6258    8.4706    5.4435 C.ar      1 RES1    0.0000
     11 H5         7.4870    8.7669    5.6282 H         1 RES1    0.0000
     12 C7         6.2754    7.1821    5.7966 C.ar      1 RES1    0.0000
     13 C8         7.1622    6.3066    6.4576 C.ar      1 RES1    0.0000
     14 H6         8.0235    6.5972    6.6551 H         1 RES1    0.0000
     15 C9         6.7956    5.0697    6.8069 C.ar      1 RES1    0.0000
     16 H7         7.4089    4.5077    7.2268 H         1 RES1    0.0000
     17 C10        5.5071    4.6148    6.5514 C.ar      1 RES1    0.0000
     18 H8         5.2591    3.7622    6.8271 H         1 RES1    0.0000
     19 C11        4.6027    5.4024    5.9021 C.ar      1 RES1    0.0000
     20 H9         3.7482    5.0774    5.7293 H         1 RES1    0.0000
     21 C12        4.9559    6.7182    5.4863 C.ar      1 RES1    0.0000
     22 C13        4.0555    7.5528    4.8099 C.ar      1 RES1    0.0000
     23 C14        4.4316    8.8650    4.5040 C.ar      1 RES1    0.0000
     24 C15        2.6579    7.1024    4.4406 C.3       1 RES1    0.0000
     25 H10        2.6471    6.1365    4.3634 H         1 RES1    0.0000
     26 H11        2.4247    7.4727    3.5742 H         1 RES1    0.0000
     27 C16        1.6052    7.5339    5.4716 C.3       1 RES1    0.0000
     28 H12        1.6848    6.9757    6.2605 H         1 RES1    0.0000
     29 H13        1.7777    8.4515    5.7369 H         1 RES1    0.0000
     30 C17        0.2022    7.4287    4.9285 C.3       1 RES1    0.0000
     31 H14        0.0189    6.4997    4.7175 H         1 RES1    0.0000
     32 H15        0.1510    7.9334    4.1003 H         1 RES1    0.0000
     33 C18       -0.8707    7.9315    5.8654 C.ar      1 RES1    0.0000
     34 C19       -1.5338    7.0464    6.7255 C.ar      1 RES1    0.0000
     35 C20       -1.2346    5.6471    6.7986 C.ar      1 RES1    0.0000
     36 H16       -0.5553    5.3011    6.2681 H         1 RES1    0.0000
     37 C21       -1.9233    4.8117    7.6282 C.ar      1 RES1    0.0000
     38 H17       -1.7279    3.9036    7.6366 H         1 RES1    0.0000
     39 C22       -2.9234    5.3183    8.4680 C.ar      1 RES1    0.0000
     40 H18       -3.3789    4.7448    9.0405 H         1 RES1    0.0000
     41 C23       -3.2307    6.6201    8.4531 C.ar      1 RES1    0.0000
     42 H19       -3.8898    6.9375    9.0278 H         1 RES1    0.0000
     43 C24       -2.5730    7.5262    7.5812 C.ar      1 RES1    0.0000
     44 C25       -2.9315    8.8587    7.5364 C.ar      1 RES1    0.0000
     45 H20       -3.6256    9.1626    8.0767 H         1 RES1    0.0000
     46 C26       -2.2791    9.7553    6.7057 C.ar      1 RES1    0.0000
     47 C27       -2.6484   11.1412    6.6630 C.ar      1 RES1    0.0000
     48 H21       -3.3412   11.4452    7.2040 H         1 RES1    0.0000
     49 C28       -2.0096   12.0091    5.8533 C.ar      1 RES1    0.0000
     50 H22       -2.2657   12.9019    5.8356 H         1 RES1    0.0000
     51 C29       -0.9569   11.5599    5.0363 C.ar      1 RES1    0.0000
     52 H23       -0.5108   12.1620    4.4874 H         1 RES1    0.0000
     53 C30       -0.5890   10.2638    5.0413 C.ar      1 RES1    0.0000
     54 H24        0.1105    9.9980    4.4899 H         1 RES1    0.0000
     55 C31       -1.2278    9.2831    5.8583 C.ar      1 RES1    0.0000
     56 C32       -5.5691   12.5234    9.5572 C.ar      2 RES2    0.0000
     57 H25       -6.2322   12.6056    8.9115 H         2 RES2    0.0000
     58 C33       -4.8777   13.6359    9.9460 C.ar      2 RES2    0.0000
     59 H26       -5.0893   14.4618    9.5767 H         2 RES2    0.0000
     60 C34       -3.8695   13.5480   10.8820 C.ar      2 RES2    0.0000
     61 H27       -3.4045   14.3146   11.1273 H         2 RES2    0.0000
     62 C35       -3.5501   12.3704   11.4425 C.ar      2 RES2    0.0000
     63 H28       -2.8668   12.3303   12.0708 H         2 RES2    0.0000
     64 C36       -4.2496   11.1737   11.0846 C.ar      2 RES2    0.0000
     65 C37       -3.9450    9.9655   11.6540 C.ar      2 RES2    0.0000
     66 H29       -3.2442    9.9177   12.2631 H         2 RES2    0.0000
     67 C38       -4.6459    8.8204   11.3507 C.ar      2 RES2    0.0000
     68 C39       -4.3480    7.5817   11.9570 C.ar      2 RES2    0.0000
     69 H30       -3.6539    7.5377   12.5742 H         2 RES2    0.0000
     70 C40       -5.0313    6.4634   11.6762 C.ar      2 RES2    0.0000
     71 H31       -4.8170    5.6662   12.1037 H         2 RES2    0.0000
     72 C41       -6.0718    6.4978   10.7327 C.ar      2 RES2    0.0000
     73 H32       -6.5409    5.7178   10.5405 H         2 RES2    0.0000
     74 C42       -6.4047    7.6562   10.0933 C.ar      2 RES2    0.0000
     75 H33       -7.0948    7.6601    9.4705 H         2 RES2    0.0000
     76 C43       -5.6985    8.8644   10.3783 C.ar      2 RES2    0.0000
     77 C44       -6.0058   10.0841    9.7434 C.ar      2 RES2    0.0000
     78 C45       -5.2995   11.2368   10.1185 C.ar      2 RES2    0.0000
     79 C46       -7.0692   10.1108    8.6828 C.3       2 RES2    0.0000
     80 H34       -6.9749    9.3194    8.1298 H         2 RES2    0.0000
     81 H35       -6.9210   10.8831    8.1147 H         2 RES2    0.0000
     82 C47       -8.5019   10.1649    9.2148 C.3       2 RES2    0.0000
     83 H36       -8.6205    9.4761    9.8879 H         2 RES2    0.0000
     84 H37       -8.6542   11.0246    9.6374 H         2 RES2    0.0000
     85 C48       -9.5276    9.9640    8.0987 C.3       2 RES2    0.0000
     86 H38       -9.5599   10.7646    7.5531 H         2 RES2    0.0000
     87 H39       -9.2365    9.2315    7.5329 H         2 RES2    0.0000
     88 C49      -10.9185    9.6635    8.6153 C.ar      2 RES2    0.0000
     89 C50      -11.2663    8.3469    8.9269 C.ar      2 RES2    0.0000
     90 C51      -10.3578    7.2414    8.7931 C.ar      2 RES2    0.0000
     91 H40       -9.4939    7.3963    8.4840 H         2 RES2    0.0000
     92 C52      -10.7325    5.9835    9.1085 C.ar      2 RES2    0.0000
     93 H41      -10.1260    5.2877    9.0076 H         2 RES2    0.0000
     94 C53      -12.0170    5.7121    9.5848 C.ar      2 RES2    0.0000
     95 H42      -12.2569    4.8384    9.7993 H         2 RES2    0.0000
     96 C54      -12.9079    6.7100    9.7361 C.ar      2 RES2    0.0000
     97 H43      -13.7570    6.5169   10.0624 H         2 RES2    0.0000
     98 C55      -12.5777    8.0577    9.4067 C.ar      2 RES2    0.0000
     99 C56      -13.4915    9.0881    9.5459 C.ar      2 RES2    0.0000
    100 H44      -14.3541    8.8912    9.8297 H         2 RES2    0.0000
    101 C57      -13.1599   10.3995    9.2767 C.ar      2 RES2    0.0000
    102 C58      -14.0926   11.4719    9.4705 C.ar      2 RES2    0.0000
    103 H45      -14.9619   11.2750    9.7310 H         2 RES2    0.0000
    104 C59      -13.7449   12.7470    9.2861 C.ar      2 RES2    0.0000
    105 H46      -14.3622   13.4257    9.4351 H         2 RES2    0.0000
    106 C60      -12.4442   13.0529    8.8664 C.ar      2 RES2    0.0000
    107 H47      -12.1962   13.9437    8.7572 H         2 RES2    0.0000
    108 C61      -11.5426   12.0760    8.6185 C.ar      2 RES2    0.0000
    109 H48      -10.6975   12.3112    8.3094 H         2 RES2    0.0000
    110 C62      -11.8458   10.7029    8.8146 C.ar      2 RES2    0.0000
    111 C63        7.1528   11.1469    0.6794 C.ar      3 RES3    0.0000
    112 H49        6.5045   10.9290    0.0481 H         3 RES3    0.0000
    113 C64        7.4911   12.4450    0.8648 C.ar      3 RES3    0.0000
    114 H50        7.0611   13.1045    0.3693 H         3 RES3    0.0000
    115 C65        8.4736   12.8063    1.7866 C.ar      3 RES3    0.0000
    116 H51        8.6906   13.7029    1.9047 H         3 RES3    0.0000
    117 C66        9.1084   11.8600    2.5078 C.ar      3 RES3    0.0000
    118 H52        9.7662   12.1123    3.1138 H         3 RES3    0.0000
    119 C67        8.7863   10.4863    2.3530 C.ar      3 RES3    0.0000
    120 C68        9.4117    9.5010    3.0974 C.ar      3 RES3    0.0000
    121 H53       10.0856    9.7438    3.6906 H         3 RES3    0.0000
    122 C69        9.0707    8.1688    2.9871 C.ar      3 RES3    0.0000
    123 C70        9.7082    7.1841    3.7806 C.ar      3 RES3    0.0000
    124 H54       10.3794    7.4421    4.3710 H         3 RES3    0.0000
    125 C71        9.3672    5.8899    3.7029 C.ar      3 RES3    0.0000
    126 H55        9.7958    5.2628    4.2420 H         3 RES3    0.0000
    127 C72        8.3604    5.4750    2.8060 C.ar      3 RES3    0.0000
    128 H56        8.1394    4.5727    2.7395 H         3 RES3    0.0000
    129 C73        7.7121    6.3945    2.0360 C.ar      3 RES3    0.0000
    130 H57        7.0315    6.1097    1.4696 H         3 RES3    0.0000
    131 C74        8.0464    7.7707    2.0752 C.ar      3 RES3    0.0000
    132 C75        7.4116    8.7440    1.2726 C.ar      3 RES3    0.0000
    133 C76        7.7701   10.1060    1.4297 C.ar      3 RES3    0.0000
    134 C77        6.3333    8.3674    0.2788 C.3       3 RES3    0.0000
    135 H58        6.4465    7.4364    0.0329 H         3 RES3    0.0000
    136 H59        6.4506    8.9007   -0.5236 H         3 RES3    0.0000
    137 C78        4.9127    8.5702    0.7998 C.3       3 RES3    0.0000
    138 H60        4.7065    7.8684    1.4368 H         3 RES3    0.0000
    139 H61        4.8669    9.4169    1.2698 H         3 RES3    0.0000
    140 C79        3.8668    8.5585   -0.3078 C.3       3 RES3    0.0000
    141 H62        4.1580    9.1416   -1.0270 H         3 RES3    0.0000
    142 H63        3.7900    7.6601   -0.6653 H         3 RES3    0.0000
    143 C80        2.5123    9.0151    0.1847 C.ar      3 RES3    0.0000
    144 C81        1.5014    8.1026    0.5231 C.ar      3 RES3    0.0000
    145 C82        1.6147    6.6966    0.3124 C.ar      3 RES3    0.0000
    146 H64        2.3910    6.3544   -0.0683 H         3 RES3    0.0000
    147 C83        0.6132    5.8516    0.6551 C.ar      3 RES3    0.0000
    148 H65        0.7238    4.9398    0.5135 H         3 RES3    0.0000
    149 C84       -0.5782    6.3123    1.2091 C.ar      3 RES3    0.0000
    150 H66       -1.2535    5.7121    1.4342 H         3 RES3    0.0000
    151 C85       -0.7413    7.6218    1.4175 C.ar      3 RES3    0.0000
    152 H67       -1.5419    7.9277    1.7808 H         3 RES3    0.0000
    153 C86        0.2803    8.5624    1.0955 C.ar      3 RES3    0.0000
    154 C87        0.1226    9.9197    1.3447 C.ar      3 RES3    0.0000
    155 H68       -0.6618   10.2179    1.7454 H         3 RES3    0.0000
    156 C88        1.0971   10.8373    1.0121 C.ar      3 RES3    0.0000
    157 C89        0.9232   12.2366    1.2731 C.ar      3 RES3    0.0000
    158 H69        0.1483   12.5348    1.6897 H         3 RES3    0.0000
    159 C90        1.8815   13.1255    0.9182 C.ar      3 RES3    0.0000
    160 H70        1.7845   14.0259    1.1307 H         3 RES3    0.0000
    161 C91        3.0231   12.6858    0.2277 C.ar      3 RES3    0.0000
    162 H71        3.6471   13.3090   -0.0683 H         3 RES3    0.0000
    163 C92        3.2266   11.3897   -0.0124 C.ar      3 RES3    0.0000
    164 H72        4.0043   11.1278   -0.4528 H         3 RES3    0.0000
    165 C93        2.2913   10.3930    0.3852 C.ar      3 RES3    0.0000
@<TRIPOS>BOND
     1    1    2 1
     2    3    1 ar
     3    4    3 1
     4    5    3 ar
     5    6    5 1
     6    7    5 ar
     7    8    7 1
     8    9    7 ar
     9   10    9 ar
    10   11   10 1
    11   12   10 ar
    12   13   12 ar
    13   14   13 1
    14   15   13 ar
    15   16   15 1
    16   17   15 ar
    17   18   17 1
    18   19   17 ar
    19   20   19 1
    20   21   12 ar
    21   22   21 ar
    22   23    1 ar
    23   24   22 1
    24   25   24 1
    25   26   24 1
    26   27   24 1
    27   28   27 1
    28   29   27 1
    29   30   27 1
    30   31   30 1
    31   32   30 1
    32   33   30 1
    33   34   33 ar
    34   35   34 ar
    35   36   35 1
    36   37   35 ar
    37   38   37 1
    38   39   37 ar
    39   40   39 1
    40   41   39 ar
    41   42   41 1
    42   43   34 ar
    43   44   43 ar
    44   45   44 1
    45   46   44 ar
    46   47   46 ar
    47   48   47 1
    48   49   47 ar
    49   50   49 1
    50   51   49 ar
    51   52   51 1
    52   53   51 ar
    53   54   53 1
    54   55   33 ar
    55   56   57 1
    56   58   56 ar
    57   59   58 1
    58   60   58 ar
    59   61   60 1
    60   62   60 ar
    61   63   62 1
    62   64   62 ar
    63   65   64 ar
    64   66   65 1
    65   67   65 ar
    66   68   67 ar
    67   69   68 1
    68   70   68 ar
    69   71   70 1
    70   72   70 ar
    71   73   72 1
    72   74   72 ar
    73   75   74 1
    74   76   67 ar
    75   77   76 ar
    76   78   56 ar
    77   79   77 1
    78   80   79 1
    79   81   79 1
    80   82   79 1
    81   83   82 1
    82   84   82 1
    83   85   82 1
    84   86   85 1
    85   87   85 1
    86   88   85 1
    87   89   88 ar
    88   90   89 ar
    89   91   90 1
    90   92   90 ar
    91   93   92 1
    92   94   92 ar
    93   95   94 1
    94   96   94 ar
    95   97   96 1
    96   98   89 ar
    97   99   98 ar
    98  100   99 1
    99  101   99 ar
   100  102  101 ar
   101  103  102 1
   102  104  102 ar
   103  105  104 1
   104  106  104 ar
   105  107  106 1
   106  108  106 ar
   107  109  108 1
   108  110   88 ar
   109  111  112 1
   110  113  111 ar
   111  114  113 1
   112  115  113 ar
   113  116  115 1
   114  117  115 ar
   115  118  117 1
   116  119  117 ar
   117  120  119 ar
   118  121  120 1
   119  122  120 ar
   120  123  122 ar
   121  124  123 1
   122  125  123 ar
   123  126  125 1
   124  127  125 ar
   125  128  127 1
   126  129  127 ar
   127  130  129 1
   128  131  122 ar
   129  132  131 ar
   130  133  111 ar
   131  134  132 1
   132  135  134 1
   133  136  134 1
   134  137  134 1
   135  138  137 1
   136  139  137 1
   137  140  137 1
   138  141  140 1
   139  142  140 1
   140  143  140 1
   141  144  143 ar
   142  145  144 ar
   143  146  145 1
   144  147  145 ar
   145  148  147 1
   146  149  147 ar
   147  150  149 1
   148  151  149 ar
   149  152  151 1
   150  153  144 ar
   151  154  153 ar
   152  155  154 1
   153  156  154 ar
   154  157  156 ar
   155  158  157 1
   156  159  157 ar
   157  160  159 1
   158  161  159 ar
   159  162  161 1
   160  163  161 ar
   161  164  163 1
   162  165  143 ar
   163    9   23 ar
   164   19   21 ar
   165   22   23 ar
   166   41   43 ar
   167   46   55 ar
   168   53   55 ar
   169   64   78 ar
   170   74   76 ar
   171   77   78 ar
   172   96   98 ar
   173  101  110 ar
   174  108  110 ar
   175  119  133 ar
   176  129  131 ar
   177  132  133 ar
   178  151  153 ar
   179  156  165 ar
   180  163  165 ar
@<TRIPOS>SUBSTRUCTURE
     1 RES1 1
     2 RES2 56
     3 RES3 111

@<TRIPOS>CRYSIN
  13.4780   19.1167   25.2951  90.0000  90.0000  90.0000  19 1

