# MOL2 file generated by ConQuest
# Please check atom types

@<TRIPOS>MOLECULE
BALQAI
    47    50     1
SMALL
NO_CHARGES
****
Generated from CSD

@<TRIPOS>ATOM
      1 C1        12.5190   -2.0664   -0.3518 C.1       1 RES1    0.0000
      2 H1        13.1982   -2.7098   -0.5160 H         1 RES1    0.0000
      3 C2        11.6722   -1.2649   -0.1471 C.1       1 RES1    0.0000
      4 C3        10.6683   -0.2151    0.1158 C.3       1 RES1    0.0000
      5 H2        10.0877   -0.5201    0.8711 H         1 RES1    0.0000
      6 C4         9.7693    0.0635   -1.1000 C.ar      1 RES1    0.0000
      7 C5        10.1137   -0.3942   -2.3469 C.ar      1 RES1    0.0000
      8 H3        10.9139   -0.8941   -2.4549 H         1 RES1    0.0000
      9 C6         9.2998   -0.1365   -3.4738 C.ar      1 RES1    0.0000
     10 H4         9.5630   -0.4548   -4.3295 H         1 RES1    0.0000
     11 C7         8.1413    0.5645   -3.3406 C.ar      1 RES1    0.0000
     12 H5         7.5987    0.7248   -4.1030 H         1 RES1    0.0000
     13 C8         7.7362    1.0587   -2.0722 C.ar      1 RES1    0.0000
     14 C9         6.5304    1.7795   -1.9109 C.ar      1 RES1    0.0000
     15 H6         5.9852    1.9519   -2.6702 H         1 RES1    0.0000
     16 C10        6.1351    2.2322   -0.6861 C.ar      1 RES1    0.0000
     17 H7         5.3210    2.7143   -0.5976 H         1 RES1    0.0000
     18 C11        6.9340    1.9843    0.4475 C.ar      1 RES1    0.0000
     19 H8         6.6519    2.2927    1.3004 H         1 RES1    0.0000
     20 C12        8.1153    1.3016    0.3283 C.ar      1 RES1    0.0000
     21 H9         8.6463    1.1508    1.1012 H         1 RES1    0.0000
     22 C13        8.5624    0.8142   -0.9304 C.ar      1 RES1    0.0000
     23 C14       11.3783    1.0557    0.5457 C.2       1 RES1    0.0000
     24 H10       11.8882    1.5026   -0.1200 H         1 RES1    0.0000
     25 C15       11.3639    1.6154    1.7637 C.2       1 RES1    0.0000
     26 C16       10.6741    0.9873    2.9288 C.ar      1 RES1    0.0000
     27 C17       10.8851   -0.3498    3.2858 C.ar      1 RES1    0.0000
     28 H11       11.5276   -0.8664    2.8137 H         1 RES1    0.0000
     29 C18       10.1647   -0.9279    4.3219 C.ar      1 RES1    0.0000
     30 H12       10.3180   -1.8346    4.5584 H         1 RES1    0.0000
     31 C19        9.2220   -0.1807    5.0110 C.ar      1 RES1    0.0000
     32 H13        8.7145   -0.5831    5.7054 H         1 RES1    0.0000
     33 C20        9.0189    1.1504    4.6899 C.ar      1 RES1    0.0000
     34 H14        8.3805    1.6642    5.1708 H         1 RES1    0.0000
     35 C21        9.7496    1.7314    3.6656 C.ar      1 RES1    0.0000
     36 H15        9.6201    2.6501    3.4608 H         1 RES1    0.0000
     37 C22       11.9840    2.9540    1.9719 C.ar      1 RES1    0.0000
     38 C23       12.6121    3.2784    3.1822 C.ar      1 RES1    0.0000
     39 H16       12.6210    2.6435    3.8890 H         1 RES1    0.0000
     40 C24       13.2206    4.5133    3.3642 C.ar      1 RES1    0.0000
     41 H17       13.6524    4.7137    4.1859 H         1 RES1    0.0000
     42 C25       13.1975    5.4518    2.3460 C.ar      1 RES1    0.0000
     43 H18       13.6196    6.2938    2.4660 H         1 RES1    0.0000
     44 C26       12.5555    5.1590    1.1491 C.ar      1 RES1    0.0000
     45 H19       12.5273    5.8070    0.4553 H         1 RES1    0.0000
     46 C27       11.9550    3.9228    0.9651 C.ar      1 RES1    0.0000
     47 H20       11.5184    3.7323    0.1435 H         1 RES1    0.0000
@<TRIPOS>BOND
     1    1    2 1
     2    3    1 3
     3    4    3 1
     4    5    4 1
     5    6    4 1
     6    7    6 ar
     7    8    7 1
     8    9    7 ar
     9   10    9 1
    10   11    9 ar
    11   12   11 1
    12   13   11 ar
    13   14   13 ar
    14   15   14 1
    15   16   14 ar
    16   17   16 1
    17   18   16 ar
    18   19   18 1
    19   20   18 ar
    20   21   20 1
    21   22    6 ar
    22   23    4 1
    23   24   23 1
    24   25   23 2
    25   26   25 1
    26   27   26 ar
    27   28   27 1
    28   29   27 ar
    29   30   29 1
    30   31   29 ar
    31   32   31 1
    32   33   31 ar
    33   34   33 1
    34   35   26 ar
    35   36   35 1
    36   37   25 1
    37   38   37 ar
    38   39   38 1
    39   40   38 ar
    40   41   40 1
    41   42   40 ar
    42   43   42 1
    43   44   42 ar
    44   45   44 1
    45   46   37 ar
    46   47   46 1
    47   13   22 ar
    48   20   22 ar
    49   33   35 ar
    50   44   46 ar
@<TRIPOS>SUBSTRUCTURE
     1 RES1 1

@<TRIPOS>CRYSIN
  13.9080   11.0651   12.3760  90.0000  91.1760  90.0000  14 1

