# MOL2 file generated by ConQuest
# Please check atom types

@<TRIPOS>MOLECULE
BAPBID10
    48    54     1
SMALL
NO_CHARGES
****
Generated from CSD

@<TRIPOS>ATOM
      1 C1         3.4636    2.2865   -1.3979 C.ar      1 RES1    0.0000
      2 C2         4.0792    1.2313   -2.1691 C.ar      1 RES1    0.0000
      3 C3         3.4308    0.7639   -3.2783 C.ar      1 RES1    0.0000
      4 C4         2.1829    1.2323   -3.6780 C.ar      1 RES1    0.0000
      5 C5         1.5648    2.1933   -2.9549 C.ar      1 RES1    0.0000
      6 C6         2.1732    2.7277   -1.7997 C.ar      1 RES1    0.0000
      7 C7         1.4846    3.7127   -1.0579 C.ar      1 RES1    0.0000
      8 C8         2.0463    4.2639    0.0366 C.ar      1 RES1    0.0000
      9 C9         3.3300    3.8678    0.4175 C.ar      1 RES1    0.0000
     10 C10        4.0525    2.9079   -0.2448 C.ar      1 RES1    0.0000
     11 C11        3.2674    0.0775    1.0621 C.ar      1 RES1    0.0000
     12 C12        3.7844   -0.6549   -0.0753 C.ar      1 RES1    0.0000
     13 C13        2.9492   -1.5320   -0.7073 C.ar      1 RES1    0.0000
     14 C14        1.6189   -1.7311   -0.3338 C.ar      1 RES1    0.0000
     15 C15        1.1155   -1.0573    0.7262 C.ar      1 RES1    0.0000
     16 C16        1.9128   -0.1530    1.4440 C.ar      1 RES1    0.0000
     17 C17        1.3446    0.5386    2.5500 C.ar      1 RES1    0.0000
     18 C18        2.0793    1.4136    3.2573 C.ar      1 RES1    0.0000
     19 C19        3.4103    1.6515    2.9005 C.ar      1 RES1    0.0000
     20 C20        4.0207    1.0364    1.8301 C.ar      1 RES1    0.0000
     21 C21        5.4277    2.6198    0.3338 C.3       1 RES1    0.0000
     22 C22        6.5204    2.4301   -0.6812 C.2       1 RES1    0.0000
     23 C23        6.5032    1.5132   -1.6104 C.2       1 RES1    0.0000
     24 C24        5.3768    0.5533   -1.8144 C.3       1 RES1    0.0000
     25 C25        5.1889   -0.5659   -0.6540 C.3       1 RES1    0.0000
     26 C26        6.2859   -0.5397    0.3432 C.2       1 RES1    0.0000
     27 C27        6.3867    0.3636    1.2860 C.2       1 RES1    0.0000
     28 C28        5.4202    1.4870    1.4994 C.3       1 RES1    0.0000
     29 H1         3.8252    0.0524   -3.7878 H         1 RES1    0.0000
     30 H2         1.7260    0.9012   -4.4889 H         1 RES1    0.0000
     31 H3         0.6574    2.5150   -3.2123 H         1 RES1    0.0000
     32 H4         0.5677    3.9820   -1.3393 H         1 RES1    0.0000
     33 H5         1.6111    4.8937    0.5546 H         1 RES1    0.0000
     34 H6         3.7216    4.2859    1.1824 H         1 RES1    0.0000
     35 H7         3.3042   -2.0329   -1.4649 H         1 RES1    0.0000
     36 H8         1.0803   -2.3473   -0.8162 H         1 RES1    0.0000
     37 H9         0.1817   -1.1213    0.9627 H         1 RES1    0.0000
     38 H10        0.4359    0.3772    2.7415 H         1 RES1    0.0000
     39 H11        1.7716    1.8862    4.0180 H         1 RES1    0.0000
     40 H12        3.9428    2.3159    3.3902 H         1 RES1    0.0000
     41 H13        7.2996    3.0284   -0.5650 H         1 RES1    0.0000
     42 H14        7.2865    1.3937   -2.1974 H         1 RES1    0.0000
     43 H15        6.9736   -1.1841    0.2721 H         1 RES1    0.0000
     44 H16        7.1530    0.3563    1.8939 H         1 RES1    0.0000
     45 H17        5.6041    3.4371    0.8266 H         1 RES1    0.0000
     46 H18        5.6051    0.0524   -2.6159 H         1 RES1    0.0000
     47 H19        5.2965   -1.3937   -1.1405 H         1 RES1    0.0000
     48 H20        5.7236    1.9805    2.3020 H         1 RES1    0.0000
@<TRIPOS>BOND
     1    1    2 ar
     2    2    3 ar
     3    3    4 ar
     4    4    5 ar
     5    5    6 ar
     6    6    1 ar
     7    7    6 ar
     8    8    7 ar
     9    9    8 ar
    10   10    1 ar
    11   11   12 ar
    12   12   13 ar
    13   13   14 ar
    14   14   15 ar
    15   15   16 ar
    16   16   11 ar
    17   17   16 ar
    18   18   17 ar
    19   19   18 ar
    20   20   11 ar
    21   21   10 1
    22   22   21 1
    23   23   22 2
    24   24    2 1
    25   25   12 1
    26   26   25 1
    27   27   26 2
    28   28   20 1
    29   29    3 1
    30   30    4 1
    31   31    5 1
    32   32    7 1
    33   33    8 1
    34   34    9 1
    35   35   13 1
    36   36   14 1
    37   37   15 1
    38   38   17 1
    39   39   18 1
    40   40   19 1
    41   41   22 1
    42   42   23 1
    43   43   26 1
    44   44   27 1
    45   45   21 1
    46   46   24 1
    47   47   25 1
    48   48   28 1
    49    9   10 ar
    50   19   20 ar
    51   21   28 1
    52   23   24 1
    53   24   25 1
    54   27   28 1
@<TRIPOS>SUBSTRUCTURE
     1 RES1 1

@<TRIPOS>CRYSIN
  16.4680   10.4790   10.5860  90.0000  98.7200  90.0000 231 1

