# MOL2 file generated by ConQuest
# Please check atom types

@<TRIPOS>MOLECULE
BEANTR
    18    21     1
SMALL
NO_CHARGES
****
Generated from CSD

@<TRIPOS>ATOM
      1 C1         0.1286   -0.3464    4.4105 C.ar      1 RES1    0.0000
      2 C2         0.4181    0.0475    5.8298 C.ar      1 RES1    0.0000
      3 C3         0.0372   -0.8736    6.8642 C.ar      1 RES1    0.0000
      4 C4         1.1929    1.7011    7.6674 C.ar      1 RES1    0.0000
      5 C5         1.0875    1.3520    6.1087 C.ar      1 RES1    0.0000
      6 C6         1.4414    2.2029    5.1982 C.ar      1 RES1    0.0000
      7 C7         0.1966   -0.4563    8.1227 C.ar      1 RES1    0.0000
      8 C8         0.6918    0.7267    8.5910 C.ar      1 RES1    0.0000
      9 C9         0.7373    0.8496   10.0699 C.ar      1 RES1    0.0000
     10 C10        1.3618    2.1060   10.4405 C.ar      1 RES1    0.0000
     11 C11        1.8285    3.0368    9.4884 C.ar      1 RES1    0.0000
     12 C12        1.7489    2.8080    8.1119 C.ar      1 RES1    0.0000
     13 C13        1.1499    1.9013    3.8718 C.ar      1 RES1    0.0000
     14 C14        1.5629    3.0069    2.8744 C.ar      1 RES1    0.0000
     15 C15        1.2599    2.6930    1.5707 C.ar      1 RES1    0.0000
     16 C16        0.6864    1.5119    1.2596 C.ar      1 RES1    0.0000
     17 C17        0.3273    0.6422    2.0986 C.ar      1 RES1    0.0000
     18 C18        0.5875    0.5519    3.4273 C.ar      1 RES1    0.0000
@<TRIPOS>BOND
     1    1    2 ar
     2    2    3 ar
     3    3    7 ar
     4    4    5 ar
     5    5    2 ar
     6    6    5 ar
     7    7    8 ar
     8    8    4 ar
     9    9    8 ar
    10   10    9 ar
    11   11   10 ar
    12   12    4 ar
    13   13    6 ar
    14   14   13 ar
    15   15   14 ar
    16   16   15 ar
    17   17   16 ar
    18   18    1 ar
    19   11   12 ar
    20   13   18 ar
    21   17   18 ar
@<TRIPOS>SUBSTRUCTURE
     1 RES1 1

@<TRIPOS>CRYSIN
   7.9500    6.5000   12.1200  90.0000 100.5000  90.0000   4 1

