# MOL2 file generated by ConQuest
# Please check atom types

@<TRIPOS>MOLECULE
BEBCOD
    55    61     1
SMALL
NO_CHARGES
****
Generated from CSD

@<TRIPOS>ATOM
      1 C1        -3.7180    2.7495   17.4623 C.ar      1 RES1    0.0000
      2 H1        -4.4900    2.8982   17.9595 H         1 RES1    0.0000
      3 C2        -2.6354    3.5361   17.6519 C.ar      1 RES1    0.0000
      4 H2        -2.6597    4.2173   18.2858 H         1 RES1    0.0000
      5 C3        -1.4941    3.3307   16.9072 C.ar      1 RES1    0.0000
      6 H3        -0.7531    3.8756   17.0465 H         1 RES1    0.0000
      7 C4        -1.4334    2.3316   15.9564 C.ar      1 RES1    0.0000
      8 C5        -2.5325    1.5291   15.7859 C.ar      1 RES1    0.0000
      9 H4        -2.5093    0.8412   15.1618 H         1 RES1    0.0000
     10 C6        -3.6871    1.7369   16.5438 C.ar      1 RES1    0.0000
     11 H5        -4.4291    1.1897   16.4231 H         1 RES1    0.0000
     12 C7        -0.2148    2.1677   15.1112 C.ar      1 RES1    0.0000
     13 C8         0.7520    1.1996   15.4119 C.ar      1 RES1    0.0000
     14 C9         0.5978    0.3112   16.5262 C.ar      1 RES1    0.0000
     15 H6        -0.1670    0.3723   17.0502 H         1 RES1    0.0000
     16 C10        1.5305   -0.6095   16.8324 C.ar      1 RES1    0.0000
     17 H7         1.4023   -1.1749   17.5598 H         1 RES1    0.0000
     18 C11        2.6975   -0.7191   16.0561 C.ar      1 RES1    0.0000
     19 H8         3.3431   -1.3498   16.2801 H         1 RES1    0.0000
     20 C12        2.8875    0.0843   14.9869 C.ar      1 RES1    0.0000
     21 H9         3.6705   -0.0034   14.4945 H         1 RES1    0.0000
     22 C13        1.9244    1.0656   14.5883 C.ar      1 RES1    0.0000
     23 C14        2.0802    1.8818   13.4476 C.ar      1 RES1    0.0000
     24 C15        1.1191    2.8710   13.1664 C.ar      1 RES1    0.0000
     25 C16        1.2494    3.7678   12.0609 C.ar      1 RES1    0.0000
     26 H10        1.9984    3.7030   11.5134 H         1 RES1    0.0000
     27 C17        0.3197    4.7059   11.7888 C.ar      1 RES1    0.0000
     28 H11        0.4269    5.2617   11.0514 H         1 RES1    0.0000
     29 C18       -0.8099    4.8507   12.6109 C.ar      1 RES1    0.0000
     30 H12       -1.4388    5.5103   12.4264 H         1 RES1    0.0000
     31 C19       -0.9799    4.0311   13.6728 C.ar      1 RES1    0.0000
     32 H13       -1.7363    4.1321   14.2048 H         1 RES1    0.0000
     33 C20       -0.0337    3.0155   14.0024 C.ar      1 RES1    0.0000
     34 C21        3.2749    1.6758   12.5372 C.3       1 RES1    0.0000
     35 H14        3.6683    0.8196   12.8078 H         1 RES1    0.0000
     36 C22        4.3976    2.6782   12.6131 C.ar      1 RES1    0.0000
     37 C23        5.0064    3.2024   13.7307 C.ar      1 RES1    0.0000
     38 H15        4.7001    2.9856   14.5825 H         1 RES1    0.0000
     39 C24        6.0714    4.0493   13.5679 C.ar      1 RES1    0.0000
     40 H16        6.4938    4.4057   14.3148 H         1 RES1    0.0000
     41 C25        6.5182    4.3773   12.3142 C.ar      1 RES1    0.0000
     42 H17        7.2304    4.9688   12.2284 H         1 RES1    0.0000
     43 C26        5.9343    3.8472   11.1669 C.ar      1 RES1    0.0000
     44 H18        6.2572    4.0606   10.3218 H         1 RES1    0.0000
     45 C27        4.8513    2.9858   11.3264 C.ar      1 RES1    0.0000
     46 C28        4.0159    2.2877   10.3544 C.ar      1 RES1    0.0000
     47 C29        4.0387    2.2840    8.9676 C.ar      1 RES1    0.0000
     48 H19        4.6835    2.7665    8.5031 H         1 RES1    0.0000
     49 C30        3.0965    1.5586    8.2992 C.ar      1 RES1    0.0000
     50 H20        3.0954    1.5575    7.3701 H         1 RES1    0.0000
     51 C31        2.1532    0.8321    8.9728 C.ar      1 RES1    0.0000
     52 H21        1.5261    0.3394    8.4921 H         1 RES1    0.0000
     53 C32        2.1167    0.8173   10.3588 C.ar      1 RES1    0.0000
     54 H22        1.4808    0.3167   10.8168 H         1 RES1    0.0000
     55 C33        3.0493    1.5641   11.0386 C.ar      1 RES1    0.0000
@<TRIPOS>BOND
     1    1    2 1
     2    3    1 ar
     3    4    3 1
     4    5    3 ar
     5    6    5 1
     6    7    5 ar
     7    8    7 ar
     8    9    8 1
     9   10    1 ar
    10   11   10 1
    11   12    7 1
    12   13   12 ar
    13   14   13 ar
    14   15   14 1
    15   16   14 ar
    16   17   16 1
    17   18   16 ar
    18   19   18 1
    19   20   18 ar
    20   21   20 1
    21   22   13 ar
    22   23   22 ar
    23   24   23 ar
    24   25   24 ar
    25   26   25 1
    26   27   25 ar
    27   28   27 1
    28   29   27 ar
    29   30   29 1
    30   31   29 ar
    31   32   31 1
    32   33   12 ar
    33   34   23 1
    34   35   34 1
    35   36   34 1
    36   37   36 ar
    37   38   37 1
    38   39   37 ar
    39   40   39 1
    40   41   39 ar
    41   42   41 1
    42   43   41 ar
    43   44   43 1
    44   45   36 ar
    45   46   45 1
    46   47   46 ar
    47   48   47 1
    48   49   47 ar
    49   50   49 1
    50   51   49 ar
    51   52   51 1
    52   53   51 ar
    53   54   53 1
    54   55   34 1
    55    8   10 ar
    56   20   22 ar
    57   24   33 ar
    58   31   33 ar
    59   43   45 ar
    60   46   55 ar
    61   53   55 ar
@<TRIPOS>SUBSTRUCTURE
     1 RES1 1

@<TRIPOS>CRYSIN
  11.0590   11.3520   36.6670  90.0000  90.0000  90.0000  61 1

