# MOL2 file generated by ConQuest
# Please check atom types

@<TRIPOS>MOLECULE
BEFJON
    38    41     1
SMALL
NO_CHARGES
****
Generated from CSD

@<TRIPOS>ATOM
      1 C1        -1.3322    0.6406    1.0565 C.3       1 RES1    0.0000
      2 H1        -0.9976    0.9086    0.1736 H         1 RES1    0.0000
      3 H2        -1.7083   -0.2799    0.9636 H         1 RES1    0.0000
      4 H3        -2.0622    1.2669    1.2574 H         1 RES1    0.0000
      5 C2        -0.2616    0.6655    2.1216 C.ar      1 RES1    0.0000
      6 C3         0.0336   -0.4702    2.8236 C.ar      1 RES1    0.0000
      7 H4        -0.4679   -1.3101    2.6160 H         1 RES1    0.0000
      8 C4         1.0268   -0.5116    3.8322 C.ar      1 RES1    0.0000
      9 C5         1.3407   -1.7164    4.5224 C.ar      1 RES1    0.0000
     10 H5         0.8292   -2.5240    4.2646 H         1 RES1    0.0000
     11 C6         2.3031   -1.7793    5.4984 C.ar      1 RES1    0.0000
     12 H6         2.5154   -2.6157    5.9323 H         1 RES1    0.0000
     13 C7         2.9567   -0.5788    5.8025 C.ar      1 RES1    0.0000
     14 C8         4.0239    0.0313    6.7001 C.3       1 RES1    0.0000
     15 H7         4.9391   -0.2952    6.4933 H         1 RES1    0.0000
     16 C9         3.7580    0.0458    8.1972 C.3       1 RES1    0.0000
     17 H8         3.8599   -0.8708    8.5693 H         1 RES1    0.0000
     18 H9         4.4435    0.5830    8.6246 H         1 RES1    0.0000
     19 C10        2.3634    0.5838    8.5298 C.3       1 RES1    0.0000
     20 H10        1.6733   -0.1133    8.2468 H         1 RES1    0.0000
     21 H11        2.2898    0.6876    9.4966 H         1 RES1    0.0000
     22 C11        2.0271    1.9125    7.8245 C.3       1 RES1    0.0000
     23 H12        1.2173    1.7627    7.2355 H         1 RES1    0.0000
     24 H13        1.7943    2.5899    8.4853 H         1 RES1    0.0000
     25 C12        3.1553    2.4546    6.9426 C.3       1 RES1    0.0000
     26 H14        2.8369    3.2300    6.4208 H         1 RES1    0.0000
     27 H15        3.9014    2.7631    7.5351 H         1 RES1    0.0000
     28 C13        3.6871    1.4012    5.9779 C.3       1 RES1    0.0000
     29 H16        4.4410    1.7718    5.4171 H         1 RES1    0.0000
     30 C14        2.6718    0.5972    5.1725 C.ar      1 RES1    0.0000
     31 C15        1.7114    0.7039    4.1431 C.ar      1 RES1    0.0000
     32 C16        1.3919    1.8701    3.4086 C.ar      1 RES1    0.0000
     33 H17        1.8558    2.7124    3.6178 H         1 RES1    0.0000
     34 C17        0.4492    1.8691    2.4090 C.ar      1 RES1    0.0000
     35 C18        0.1829    3.1124    1.6036 C.3       1 RES1    0.0000
     36 H18        0.4082    2.9832    0.6354 H         1 RES1    0.0000
     37 H19        0.6718    3.9000    1.9692 H         1 RES1    0.0000
     38 H20       -0.8048    3.3474    1.6009 H         1 RES1    0.0000
@<TRIPOS>BOND
     1    1    2 1
     2    3    1 1
     3    4    1 1
     4    5    1 1
     5    6    5 ar
     6    7    6 1
     7    8    6 ar
     8    9    8 ar
     9   10    9 1
    10   11    9 ar
    11   12   11 1
    12   13   11 ar
    13   14   13 1
    14   15   14 1
    15   16   14 1
    16   17   16 1
    17   18   16 1
    18   19   16 1
    19   20   19 1
    20   21   19 1
    21   22   19 1
    22   23   22 1
    23   24   22 1
    24   25   22 1
    25   26   25 1
    26   27   25 1
    27   28   14 1
    28   29   28 1
    29   30   13 ar
    30   31    8 ar
    31   32   31 ar
    32   33   32 1
    33   34    5 ar
    34   35   34 1
    35   36   35 1
    36   37   35 1
    37   38   35 1
    38   25   28 1
    39   28   30 1
    40   30   31 ar
    41   32   34 ar
@<TRIPOS>SUBSTRUCTURE
     1 RES1 1

@<TRIPOS>CRYSIN
   5.2488    6.8764   19.2213  94.7990  93.3570 107.0350   2 1

