# MOL2 file generated by ConQuest
# Please check atom types

@<TRIPOS>MOLECULE
BEFJUT
    40    42     1
SMALL
NO_CHARGES
****
Generated from CSD

@<TRIPOS>ATOM
      1 C1         3.3308    1.8091    2.9950 C.3       1 RES1    0.0000
      2 H1         3.7951    1.0091    3.3764 H         1 RES1    0.0000
      3 C2         4.3207    3.0604    2.8703 C.3       1 RES1    0.0000
      4 H2         5.2111    2.8291    3.2602 H         1 RES1    0.0000
      5 C3         2.5530    1.4609    1.7592 C.3       1 RES1    0.0000
      6 H3         3.1935    1.2042    1.0486 H         1 RES1    0.0000
      7 H4         2.0768    2.2721    1.4507 H         1 RES1    0.0000
      8 C4         1.5421    0.3441    1.9187 C.3       1 RES1    0.0000
      9 H5         1.0868    0.1921    1.0642 H         1 RES1    0.0000
     10 H6         0.8839    0.5938    2.5999 H         1 RES1    0.0000
     11 H7         2.0021   -0.4761    2.1943 H         1 RES1    0.0000
     12 C5         4.5076    3.7706    1.5755 C.3       1 RES1    0.0000
     13 H8         3.6295    4.0876    1.2462 H         1 RES1    0.0000
     14 H9         4.8756    3.1406    0.9065 H         1 RES1    0.0000
     15 C6         5.4565    4.9662    1.7246 C.3       1 RES1    0.0000
     16 H10        5.5509    5.4174    0.8597 H         1 RES1    0.0000
     17 H11        6.3342    4.6518    2.0262 H         1 RES1    0.0000
     18 H12        5.0911    5.5945    2.3815 H         1 RES1    0.0000
     19 C7         2.6281    2.6362    4.0939 C.ar      1 RES1    0.0000
     20 C8         3.4430    3.7225    3.9345 C.ar      1 RES1    0.0000
     21 C9         3.3128    4.8832    4.7075 C.ar      1 RES1    0.0000
     22 H13        3.8827    5.6328    4.5810 H         1 RES1    0.0000
     23 C10        2.3286    4.8860    5.6486 C.ar      1 RES1    0.0000
     24 H14        2.2058    5.6643    6.1790 H         1 RES1    0.0000
     25 C11        1.4773    3.7683    5.8688 C.ar      1 RES1    0.0000
     26 C12        0.4796    3.7776    6.8654 C.ar      1 RES1    0.0000
     27 H15        0.3753    4.5620    7.3923 H         1 RES1    0.0000
     28 C13       -0.3449    2.7136    7.1150 C.ar      1 RES1    0.0000
     29 C14       -0.1891    1.5297    6.3419 C.ar      1 RES1    0.0000
     30 C15        0.7748    1.4826    5.3765 C.ar      1 RES1    0.0000
     31 H16        0.8836    0.6794    4.8808 H         1 RES1    0.0000
     32 C16        1.6195    2.5824    5.0819 C.ar      1 RES1    0.0000
     33 C17       -1.4108    2.7824    8.1722 C.3       1 RES1    0.0000
     34 H17       -1.4249    3.6815    8.5640 H         1 RES1    0.0000
     35 H18       -1.2192    2.1245    8.8725 H         1 RES1    0.0000
     36 H19       -2.2830    2.5877    7.7701 H         1 RES1    0.0000
     37 C18       -1.0854    0.3407    6.5881 C.3       1 RES1    0.0000
     38 H20       -0.8007   -0.4052    6.0196 H         1 RES1    0.0000
     39 H21       -2.0110    0.5804    6.3749 H         1 RES1    0.0000
     40 H22       -1.0255    0.0758    7.5292 H         1 RES1    0.0000
@<TRIPOS>BOND
     1    1    2 1
     2    3    1 1
     3    4    3 1
     4    5    1 1
     5    6    5 1
     6    7    5 1
     7    8    5 1
     8    9    8 1
     9   10    8 1
    10   11    8 1
    11   12    3 1
    12   13   12 1
    13   14   12 1
    14   15   12 1
    15   16   15 1
    16   17   15 1
    17   18   15 1
    18   19    1 1
    19   20    3 1
    20   21   20 ar
    21   22   21 1
    22   23   21 ar
    23   24   23 1
    24   25   23 ar
    25   26   25 ar
    26   27   26 1
    27   28   26 ar
    28   29   28 ar
    29   30   29 ar
    30   31   30 1
    31   32   19 ar
    32   33   28 1
    33   34   33 1
    34   35   33 1
    35   36   33 1
    36   37   29 1
    37   38   37 1
    38   39   37 1
    39   40   37 1
    40   19   20 ar
    41   25   32 ar
    42   30   32 ar
@<TRIPOS>SUBSTRUCTURE
     1 RES1 1

@<TRIPOS>CRYSIN
   5.5924    7.3130   17.5100  81.8390  88.8980  84.2770   2 1

