# MOL2 file generated by ConQuest
# Please check atom types

@<TRIPOS>MOLECULE
BEFKEE
    40    42     1
SMALL
NO_CHARGES
****
Generated from CSD

@<TRIPOS>ATOM
      1 C1        -1.7278    3.1043    2.4009 C.ar      1 RES1    0.0000
      2 H1        -2.5746    3.3283    2.0329 H         1 RES1    0.0000
      3 C2        -0.8515    2.3643    1.6438 C.ar      1 RES1    0.0000
      4 C3         0.4111    2.0657    2.2268 C.ar      1 RES1    0.0000
      5 H2         1.0410    1.5623    1.7241 H         1 RES1    0.0000
      6 C4         0.7471    2.4761    3.4742 C.ar      1 RES1    0.0000
      7 H3         1.6009    2.2530    3.8249 H         1 RES1    0.0000
      8 C5        -0.1516    3.2302    4.2621 C.ar      1 RES1    0.0000
      9 C6         0.1471    3.6775    5.5737 C.ar      1 RES1    0.0000
     10 H4         0.9965    3.4684    5.9442 H         1 RES1    0.0000
     11 C7        -0.7351    4.3974    6.3259 C.ar      1 RES1    0.0000
     12 C8        -2.0170    4.7184    5.7689 C.ar      1 RES1    0.0000
     13 C9        -2.3173    4.2957    4.5079 C.ar      1 RES1    0.0000
     14 H5        -3.1681    4.5135    4.1460 H         1 RES1    0.0000
     15 C10       -1.4131    3.5443    3.7138 C.ar      1 RES1    0.0000
     16 C11       -1.1443    1.8794    0.2384 C.3       1 RES1    0.0000
     17 H6        -1.0245    0.8861    0.2421 H         1 RES1    0.0000
     18 C12       -2.5538    2.1534   -0.2507 C.3       1 RES1    0.0000
     19 H7        -2.7217    3.1280   -0.2211 H         1 RES1    0.0000
     20 H8        -3.1981    1.7173    0.3619 H         1 RES1    0.0000
     21 C13       -2.7954    1.6488   -1.6685 C.3       1 RES1    0.0000
     22 H9        -2.7349    0.6612   -1.6809 H         1 RES1    0.0000
     23 H10       -3.7078    1.9032   -1.9563 H         1 RES1    0.0000
     24 C14       -1.7870    2.2260   -2.6319 C.3       1 RES1    0.0000
     25 H11       -1.9335    1.8385   -3.5310 H         1 RES1    0.0000
     26 H12       -1.9167    3.2051   -2.6948 H         1 RES1    0.0000
     27 C15       -0.3766    1.9353   -2.1848 C.3       1 RES1    0.0000
     28 H13        0.2620    2.3689   -2.8035 H         1 RES1    0.0000
     29 H14       -0.2158    0.9585   -2.2132 H         1 RES1    0.0000
     30 C16       -0.1420    2.4473   -0.7719 C.3       1 RES1    0.0000
     31 H15       -0.2073    3.4351   -0.7719 H         1 RES1    0.0000
     32 H16        0.7752    2.2047   -0.4891 H         1 RES1    0.0000
     33 C17       -0.3938    4.8504    7.7227 C.3       1 RES1    0.0000
     34 H17        0.5112    4.5515    7.9512 H         1 RES1    0.0000
     35 H18       -1.0349    4.4676    8.3563 H         1 RES1    0.0000
     36 H19       -0.4350    5.8292    7.7671 H         1 RES1    0.0000
     37 C18       -3.0042    5.5134    6.5790 C.3       1 RES1    0.0000
     38 H20       -3.8197    5.6547    6.0541 H         1 RES1    0.0000
     39 H21       -2.6123    6.3801    6.8137 H         1 RES1    0.0000
     40 H22       -3.2249    5.0217    7.3979 H         1 RES1    0.0000
@<TRIPOS>BOND
     1    1    2 1
     2    3    1 ar
     3    4    3 ar
     4    5    4 1
     5    6    4 ar
     6    7    6 1
     7    8    6 ar
     8    9    8 ar
     9   10    9 1
    10   11    9 ar
    11   12   11 ar
    12   13   12 ar
    13   14   13 1
    14   15    1 ar
    15   16    3 1
    16   17   16 1
    17   18   16 1
    18   19   18 1
    19   20   18 1
    20   21   18 1
    21   22   21 1
    22   23   21 1
    23   24   21 1
    24   25   24 1
    25   26   24 1
    26   27   24 1
    27   28   27 1
    28   29   27 1
    29   30   16 1
    30   31   30 1
    31   32   30 1
    32   33   11 1
    33   34   33 1
    34   35   33 1
    35   36   33 1
    36   37   12 1
    37   38   37 1
    38   39   37 1
    39   40   37 1
    40    8   15 ar
    41   13   15 ar
    42   27   30 1
@<TRIPOS>SUBSTRUCTURE
     1 RES1 1

@<TRIPOS>CRYSIN
   6.3932    8.6441   13.0666 105.9420  99.4270  92.6320   2 1

