# MOL2 file generated by ConQuest
# Please check atom types

@<TRIPOS>MOLECULE
BEFXES
    96   112     2
SMALL
NO_CHARGES
****
Generated from CSD

@<TRIPOS>ATOM
      1 C1         0.8302    3.5338    2.0281 C.ar      1 RES1    0.0000
      2 C2         0.3573    2.3701    2.6771 C.ar      1 RES1    0.0000
      3 C3         0.3485    2.6109    4.0776 C.ar      1 RES1    0.0000
      4 C4         0.8989    3.8996    4.2917 C.ar      1 RES1    0.0000
      5 C5         1.1785    4.4856    3.0326 C.ar      1 RES1    0.0000
      6 C6         2.1505    5.4385    2.8382 C.ar      1 RES1    0.0000
      7 C7         2.8536    5.8164    4.0500 C.ar      1 RES1    0.0000
      8 H1         3.5201    6.4915    3.9997 H         1 RES1    0.0000
      9 C8         2.5913    5.2336    5.2733 C.ar      1 RES1    0.0000
     10 H2         3.0786    5.5278    6.0332 H         1 RES1    0.0000
     11 C9         1.6086    4.1988    5.4410 C.ar      1 RES1    0.0000
     12 C10        1.4627    3.2350    6.5142 C.ar      1 RES1    0.0000
     13 H3         1.7858    3.4566    7.3804 H         1 RES1    0.0000
     14 C11        0.8695    2.0093    6.3145 C.ar      1 RES1    0.0000
     15 H4         0.7620    1.4205    7.0527 H         1 RES1    0.0000
     16 C12        0.4072    1.5981    5.0088 C.ar      1 RES1    0.0000
     17 C13        0.3023    0.2643    4.4667 C.ar      1 RES1    0.0000
     18 H5         0.1825   -0.4686    5.0593 H         1 RES1    0.0000
     19 C14        0.3726    0.0297    3.1122 C.ar      1 RES1    0.0000
     20 H6         0.3371   -0.8667    2.7982 H         1 RES1    0.0000
     21 C15        0.4991    1.1026    2.1528 C.ar      1 RES1    0.0000
     22 C16        1.0239    1.0656    0.8169 C.ar      1 RES1    0.0000
     23 H7         1.0643    0.2336    0.3605 H         1 RES1    0.0000
     24 C17        1.4714    2.2013    0.1748 C.ar      1 RES1    0.0000
     25 H8         1.8221    2.1183   -0.7045 H         1 RES1    0.0000
     26 C18        1.4298    3.5141    0.7850 C.ar      1 RES1    0.0000
     27 C19        2.1314    4.7571    0.4231 C.ar      1 RES1    0.0000
     28 C20        2.4842    5.6991    1.4237 C.ar      1 RES1    0.0000
     29 C21        3.2642    6.8745    1.0481 C.ar      1 RES1    0.0000
     30 C22        3.4336    7.9576    1.9299 C.ar      1 RES1    0.0000
     31 H9         2.9281    7.9811    2.7344 H         1 RES1    0.0000
     32 C23        4.3114    8.9835    1.6605 C.ar      1 RES1    0.0000
     33 H10        4.4228    9.6939    2.2811 H         1 RES1    0.0000
     34 C24        5.0345    8.9702    0.4706 C.ar      1 RES1    0.0000
     35 H11        5.6877    9.6396    0.3058 H         1 RES1    0.0000
     36 C25        4.8045    7.9880   -0.4670 C.ar      1 RES1    0.0000
     37 H12        5.2670    8.0178   -1.2962 H         1 RES1    0.0000
     38 C26        3.8975    6.9434   -0.2201 C.ar      1 RES1    0.0000
     39 C27        3.5175    5.9819   -1.2533 C.ar      1 RES1    0.0000
     40 C28        3.9997    6.0799   -2.5733 C.ar      1 RES1    0.0000
     41 H13        4.6931    6.6986   -2.7708 H         1 RES1    0.0000
     42 C29        3.4863    5.2982   -3.5795 C.ar      1 RES1    0.0000
     43 H14        3.8517    5.3530   -4.4548 H         1 RES1    0.0000
     44 C30        2.4298    4.4249   -3.3190 C.ar      1 RES1    0.0000
     45 H15        2.0310    3.9340   -4.0288 H         1 RES1    0.0000
     46 C31        1.9678    4.2761   -2.0319 C.ar      1 RES1    0.0000
     47 H16        1.2495    3.6784   -1.8606 H         1 RES1    0.0000
     48 C32        2.5434    4.9961   -0.9576 C.ar      1 RES1    0.0000
     49 C33        5.6584    2.8312    5.4008 C.ar      2 RES2    0.0000
     50 C34        5.8984    3.3874    4.1200 C.ar      2 RES2    0.0000
     51 C35        6.4998    4.6588    4.2990 C.ar      2 RES2    0.0000
     52 C36        6.5825    4.9109    5.6861 C.ar      2 RES2    0.0000
     53 C37        6.0964    3.7799    6.3770 C.ar      2 RES2    0.0000
     54 C38        5.5602    3.8364    7.6422 C.ar      2 RES2    0.0000
     55 C39        5.6069    5.1581    8.2386 C.ar      2 RES2    0.0000
     56 H17        5.3032    5.2664    9.1318 H         2 RES2    0.0000
     57 C40        6.0758    6.2644    7.5588 C.ar      2 RES2    0.0000
     58 H18        6.0972    7.1026    8.0067 H         2 RES2    0.0000
     59 C41        6.5306    6.1930    6.2009 C.ar      2 RES2    0.0000
     60 C42        6.6591    7.2502    5.2182 C.ar      2 RES2    0.0000
     61 H19        6.7742    8.1456    5.5162 H         2 RES2    0.0000
     62 C43        6.6200    6.9949    3.8648 C.ar      2 RES2    0.0000
     63 H20        6.7268    7.7167    3.2569 H         2 RES2    0.0000
     64 C44        6.4215    5.6579    3.3429 C.ar      2 RES2    0.0000
     65 C45        5.8885    5.2402    2.0736 C.ar      2 RES2    0.0000
     66 H21        5.9635    5.8231    1.3272 H         2 RES2    0.0000
     67 C46        5.2742    4.0229    1.9099 C.ar      2 RES2    0.0000
     68 H22        4.9201    3.7944    1.0595 H         2 RES2    0.0000
     69 C47        5.1525    3.0761    3.0019 C.ar      2 RES2    0.0000
     70 C48        4.1750    2.0451    3.2136 C.ar      2 RES2    0.0000
     71 H23        3.6720    1.7290    2.4723 H         2 RES2    0.0000
     72 C49        3.9431    1.4985    4.4625 C.ar      2 RES2    0.0000
     73 H24        3.2764    0.8270    4.5459 H         2 RES2    0.0000
     74 C50        4.6692    1.9029    5.6484 C.ar      2 RES2    0.0000
     75 C51        4.3813    1.6918    7.0802 C.ar      2 RES2    0.0000
     76 C52        3.5703    0.5585    7.5166 C.ar      2 RES2    0.0000
     77 C53        3.3421   -0.5538    6.6722 C.ar      2 RES2    0.0000
     78 H25        3.8210   -0.6229    5.8548 H         2 RES2    0.0000
     79 C54        2.4418   -1.5388    7.0107 C.ar      2 RES2    0.0000
     80 H26        2.2929   -2.2696    6.4228 H         2 RES2    0.0000
     81 C55        1.7492   -1.4614    8.2159 C.ar      2 RES2    0.0000
     82 H27        1.0782   -2.1021    8.4218 H         2 RES2    0.0000
     83 C56        2.0392   -0.4557    9.1057 C.ar      2 RES2    0.0000
     84 H28        1.5992   -0.4422    9.9474 H         2 RES2    0.0000
     85 C57        2.9720    0.5559    8.8021 C.ar      2 RES2    0.0000
     86 C58        3.4402    1.5072    9.7975 C.ar      2 RES2    0.0000
     87 C59        3.0290    1.4404   11.1506 C.ar      2 RES2    0.0000
     88 H29        2.3110    0.8667   11.3911 H         2 RES2    0.0000
     89 C60        3.6455    2.1851   12.1207 C.ar      2 RES2    0.0000
     90 H30        3.3335    2.1447   13.0168 H         2 RES2    0.0000
     91 C61        4.7325    3.0057   11.7978 C.ar      2 RES2    0.0000
     92 H31        5.1973    3.4771   12.4797 H         2 RES2    0.0000
     93 C62        5.1199    3.1221   10.4852 C.ar      2 RES2    0.0000
     94 H32        5.8562    3.6813   10.2678 H         2 RES2    0.0000
     95 C63        4.4535    2.4334    9.4504 C.ar      2 RES2    0.0000
     96 C64        4.8096    2.6341    8.0449 C.ar      2 RES2    0.0000
@<TRIPOS>BOND
     1    1    2 ar
     2    2    3 ar
     3    3    4 ar
     4    4    5 ar
     5    5    1 ar
     6    6    5 ar
     7    7    6 ar
     8    8    7 1
     9    9    7 ar
    10   10    9 1
    11   11    4 ar
    12   12   11 ar
    13   13   12 1
    14   14   12 ar
    15   15   14 1
    16   16    3 ar
    17   17   16 ar
    18   18   17 1
    19   19   17 ar
    20   20   19 1
    21   21    2 ar
    22   22   21 ar
    23   23   22 1
    24   24   22 ar
    25   25   24 1
    26   26    1 ar
    27   27   26 ar
    28   28    6 ar
    29   29   28 ar
    30   30   29 ar
    31   31   30 1
    32   32   30 ar
    33   33   32 1
    34   34   32 ar
    35   35   34 1
    36   36   34 ar
    37   37   36 1
    38   38   29 ar
    39   39   38 ar
    40   40   39 ar
    41   41   40 1
    42   42   40 ar
    43   43   42 1
    44   44   42 ar
    45   45   44 1
    46   46   44 ar
    47   47   46 1
    48   48   27 ar
    49   49   50 ar
    50   50   51 ar
    51   51   52 ar
    52   52   53 ar
    53   53   49 ar
    54   54   53 ar
    55   55   54 ar
    56   56   55 1
    57   57   55 ar
    58   58   57 1
    59   59   52 ar
    60   60   59 ar
    61   61   60 1
    62   62   60 ar
    63   63   62 1
    64   64   51 ar
    65   65   64 ar
    66   66   65 1
    67   67   65 ar
    68   68   67 1
    69   69   50 ar
    70   70   69 ar
    71   71   70 1
    72   72   70 ar
    73   73   72 1
    74   74   49 ar
    75   75   74 ar
    76   76   75 ar
    77   77   76 ar
    78   78   77 1
    79   79   77 ar
    80   80   79 1
    81   81   79 ar
    82   82   81 1
    83   83   81 ar
    84   84   83 1
    85   85   76 ar
    86   86   85 ar
    87   87   86 ar
    88   88   87 1
    89   89   87 ar
    90   90   89 1
    91   91   89 ar
    92   92   91 1
    93   93   91 ar
    94   94   93 1
    95   95   86 ar
    96   96   54 ar
    97    9   11 ar
    98   14   16 ar
    99   19   21 ar
   100   24   26 ar
   101   27   28 ar
   102   36   38 ar
   103   39   48 ar
   104   46   48 ar
   105   57   59 ar
   106   62   64 ar
   107   67   69 ar
   108   72   74 ar
   109   75   96 ar
   110   83   85 ar
   111   93   95 ar
   112   95   96 ar
@<TRIPOS>SUBSTRUCTURE
     1 RES1 1
     2 RES2 49

@<TRIPOS>CRYSIN
  13.9301   14.6900   18.2053  90.0000  90.0000  90.0000  19 1

