# MOL2 file generated by ConQuest
# Please check atom types

@<TRIPOS>MOLECULE
BEGJOO
    62    68     1
SMALL
NO_CHARGES
****
Generated from CSD

@<TRIPOS>ATOM
      1 C1         9.0129   -5.3458    5.9725 C.ar      1 RES1    0.0000
      2 C2         8.9619   -4.8685    7.2465 C.ar      1 RES1    0.0000
      3 C3         8.4742   -3.5586    7.5295 C.ar      1 RES1    0.0000
      4 C4         7.9836   -2.7650    6.4388 C.ar      1 RES1    0.0000
      5 C5         7.4246   -1.4974    6.7481 C.ar      1 RES1    0.0000
      6 C6         6.7313   -0.4542    5.9580 C.2       1 RES1    0.0000
      7 C7         6.0958   -0.1769    4.7834 C.2       1 RES1    0.0000
      8 C8         5.4729    1.1875    4.9107 C.2       1 RES1    0.0000
      9 C9         4.6513    1.7841    3.8334 C.ar      1 RES1    0.0000
     10 C10        4.9568    3.0420    3.3129 C.ar      1 RES1    0.0000
     11 C11        4.1702    3.6015    2.3166 C.ar      1 RES1    0.0000
     12 C12        3.0479    2.9360    1.8217 C.ar      1 RES1    0.0000
     13 C13        2.1913    3.5581    0.7511 C.3       1 RES1    0.0000
     14 C14        8.1150   -3.2745    5.1202 C.ar      1 RES1    0.0000
     15 C15        8.6099   -4.5319    4.8905 C.ar      1 RES1    0.0000
     16 C16        7.4949   -1.0035    8.0589 C.ar      1 RES1    0.0000
     17 C17        8.0331   -1.7636    9.1081 C.ar      1 RES1    0.0000
     18 C18        8.4884   -3.0366    8.8387 C.ar      1 RES1    0.0000
     19 C19        6.9403    0.3670    8.1037 C.2       1 RES1    0.0000
     20 C20        6.5156    0.6789    6.8550 C.2       1 RES1    0.0000
     21 C21        2.7473    1.6812    2.3395 C.ar      1 RES1    0.0000
     22 C22        3.5399    1.1012    3.3198 C.ar      1 RES1    0.0000
     23 C23        5.7501    1.7109    6.1385 C.2       1 RES1    0.0000
     24 C24        5.3744    3.0083    6.7248 C.ar      1 RES1    0.0000
     25 C25        6.2462    3.6377    7.6206 C.ar      1 RES1    0.0000
     26 C26        5.9148    4.8459    8.2152 C.ar      1 RES1    0.0000
     27 C27        4.7014    5.4739    7.9483 C.ar      1 RES1    0.0000
     28 C28        3.8482    4.8648    7.0305 C.ar      1 RES1    0.0000
     29 C29        4.1646    3.6512    6.4380 C.ar      1 RES1    0.0000
     30 C30        4.3011    6.7368    8.6561 C.3       1 RES1    0.0000
     31 C31        5.9571   -0.9672    3.5458 C.ar      1 RES1    0.0000
     32 C32        6.3052   -0.4078    2.3143 C.ar      1 RES1    0.0000
     33 C33        6.1717   -1.1392    1.1471 C.ar      1 RES1    0.0000
     34 C34        5.6582   -2.4307    1.1907 C.ar      1 RES1    0.0000
     35 C35        5.3049   -2.9892    2.4034 C.ar      1 RES1    0.0000
     36 C36        5.4518   -2.2663    3.5752 C.ar      1 RES1    0.0000
     37 H1         5.7162    3.5334    3.6863 H         1 RES1    0.0000
     38 H2         4.3949    4.5133    1.9579 H         1 RES1    0.0000
     39 H3         3.3064    0.1955    3.6718 H         1 RES1    0.0000
     40 H4         8.8348   -3.5946    9.5620 H         1 RES1    0.0000
     41 H5         6.5219    5.2577    8.8716 H         1 RES1    0.0000
     42 H6         3.5243    3.2012    5.8127 H         1 RES1    0.0000
     43 H7         2.9788    5.3307    6.8197 H         1 RES1    0.0000
     44 H8         6.8850    0.9328    8.9423 H         1 RES1    0.0000
     45 H9         7.1161    3.2154    7.8336 H         1 RES1    0.0000
     46 H10        5.1771   -2.6383    4.4484 H         1 RES1    0.0000
     47 H11        8.6649   -4.8384    3.9681 H         1 RES1    0.0000
     48 H12        1.9620    1.1707    2.0470 H         1 RES1    0.0000
     49 H13        7.8712   -2.7113    4.3719 H         1 RES1    0.0000
     50 H14        6.6596    0.5206    2.2765 H         1 RES1    0.0000
     51 H15        9.2748   -5.4226    8.0117 H         1 RES1    0.0000
     52 H16        8.0876   -1.3922   10.0306 H         1 RES1    0.0000
     53 H17        9.3628   -6.2470    5.7837 H         1 RES1    0.0000
     54 H18        6.4286   -0.7185    0.2905 H         1 RES1    0.0000
     55 H19        2.2326    4.5816    0.7727 H         1 RES1    0.0000
     56 H20        5.5330   -2.9492    0.3660 H         1 RES1    0.0000
     57 H21        4.9692   -3.9173    2.4653 H         1 RES1    0.0000
     58 H22        1.2193    3.2743    0.8599 H         1 RES1    0.0000
     59 H23        2.5153    3.3025   -0.1801 H         1 RES1    0.0000
     60 H24        3.7977    7.3471    8.0969 H         1 RES1    0.0000
     61 H25        3.7579    6.5509    9.4303 H         1 RES1    0.0000
     62 H26        5.0837    7.2670    8.9694 H         1 RES1    0.0000
@<TRIPOS>BOND
     1    1    2 ar
     2    2    3 ar
     3    3    4 ar
     4    4    5 ar
     5    5    6 1
     6    6    7 2
     7    7    8 1
     8    8    9 1
     9    9   10 ar
    10   10   11 ar
    11   11   12 ar
    12   12   13 1
    13   13   55 1
    14   14    4 ar
    15   15    1 ar
    16   16    5 ar
    17   17   16 ar
    18   18    3 ar
    19   19   16 1
    20   20    6 1
    21   21   12 ar
    22   22    9 ar
    23   23    8 2
    24   24   23 1
    25   25   24 ar
    26   26   25 ar
    27   27   26 ar
    28   28   27 ar
    29   29   24 ar
    30   30   27 1
    31   31    7 1
    32   32   31 ar
    33   33   32 ar
    34   34   33 ar
    35   35   34 ar
    36   36   31 ar
    37   37   10 1
    38   38   11 1
    39   39   22 1
    40   40   18 1
    41   41   26 1
    42   42   29 1
    43   43   28 1
    44   44   19 1
    45   45   25 1
    46   46   36 1
    47   47   15 1
    48   48   21 1
    49   49   14 1
    50   50   32 1
    51   51    2 1
    52   52   17 1
    53   53    1 1
    54   54   33 1
    55   56   34 1
    56   57   35 1
    57   58   13 1
    58   59   13 1
    59   60   30 1
    60   61   30 1
    61   62   30 1
    62   14   15 ar
    63   17   18 ar
    64   19   20 2
    65   20   23 1
    66   21   22 ar
    67   28   29 ar
    68   35   36 ar
@<TRIPOS>SUBSTRUCTURE
     1 RES1 1

@<TRIPOS>CRYSIN
  10.6839   23.5559   10.7016  90.0000 115.2010  90.0000 231 1

