# MOL2 file generated by ConQuest
# Please check atom types

@<TRIPOS>MOLECULE
BEGTUC
    48    53     1
SMALL
NO_CHARGES
****
Generated from CSD

@<TRIPOS>ATOM
      1 C1         3.1340    6.7401    1.6285 C.ar      1 RES1    0.0000
      2 C2         1.8228    6.9700    1.4203 C.ar      1 RES1    0.0000
      3 C3         1.0948    7.7817    2.2999 C.ar      1 RES1    0.0000
      4 C4        -0.4089    7.9084    2.1716 C.3       1 RES1    0.0000
      5 C5        -1.0031    7.6409    3.5427 C.3       1 RES1    0.0000
      6 C6        -0.5098    8.6474    4.5890 C.3       1 RES1    0.0000
      7 C7        -0.2402    8.0351    5.9410 C.3       1 RES1    0.0000
      8 C8         0.0073    9.1119    6.9697 C.3       1 RES1    0.0000
      9 C9         0.9407   10.1957    6.4849 C.ar      1 RES1    0.0000
     10 C10        1.4395   11.0989    7.4487 C.ar      1 RES1    0.0000
     11 C11        2.2941   12.0983    7.0997 C.ar      1 RES1    0.0000
     12 C12        2.7085   12.2649    5.7619 C.ar      1 RES1    0.0000
     13 C13        3.6493   13.2572    5.3770 C.ar      1 RES1    0.0000
     14 C14        4.0729   13.3652    4.0950 C.ar      1 RES1    0.0000
     15 C15        3.5777   12.5065    3.1196 C.ar      1 RES1    0.0000
     16 C16        2.6663   11.5353    3.4611 C.ar      1 RES1    0.0000
     17 C17        2.2097   11.3664    4.7839 C.ar      1 RES1    0.0000
     18 C18        1.3112   10.3154    5.1754 C.ar      1 RES1    0.0000
     19 C19        0.7665    9.3910    4.1067 C.3       1 RES1    0.0000
     20 C20        1.6944    8.4057    3.3836 C.ar      1 RES1    0.0000
     21 C21        3.0698    8.0914    3.6794 C.ar      1 RES1    0.0000
     22 C22        3.7630    8.5136    4.8381 C.ar      1 RES1    0.0000
     23 C23        5.0613    8.1500    5.0705 C.ar      1 RES1    0.0000
     24 C24        5.7563    7.3477    4.1525 C.ar      1 RES1    0.0000
     25 C25        5.1346    6.9113    3.0338 C.ar      1 RES1    0.0000
     26 C26        3.7776    7.2538    2.7631 C.ar      1 RES1    0.0000
     27 H1         3.6126    6.2404    0.9913 H         1 RES1    0.0000
     28 H2         1.3754    6.6392    0.6414 H         1 RES1    0.0000
     29 H3        -0.6602    8.8444    1.8076 H         1 RES1    0.0000
     30 H4        -0.7519    7.2491    1.5077 H         1 RES1    0.0000
     31 H5        -2.0355    7.5776    3.4986 H         1 RES1    0.0000
     32 H6        -0.7152    6.6861    3.8818 H         1 RES1    0.0000
     33 H7        -1.1736    9.3371    4.7231 H         1 RES1    0.0000
     34 H8        -0.9719    7.4134    6.2225 H         1 RES1    0.0000
     35 H9         0.5868    7.4837    5.8393 H         1 RES1    0.0000
     36 H10        0.3484    8.7740    7.8135 H         1 RES1    0.0000
     37 H11       -0.8435    9.5013    7.2304 H         1 RES1    0.0000
     38 H12        1.2103   10.9558    8.3800 H         1 RES1    0.0000
     39 H13        2.6773   12.6684    7.7552 H         1 RES1    0.0000
     40 H14        3.9610   13.7476    6.1392 H         1 RES1    0.0000
     41 H15        4.7312   14.1229    3.8984 H         1 RES1    0.0000
     42 H16        3.8877   12.5980    2.1242 H         1 RES1    0.0000
     43 H17        2.3656   10.9324    2.7739 H         1 RES1    0.0000
     44 H18        0.4401   10.0409    3.3070 H         1 RES1    0.0000
     45 H19        3.3192    9.0086    5.5478 H         1 RES1    0.0000
     46 H20        5.5014    8.4456    5.8976 H         1 RES1    0.0000
     47 H21        6.6750    7.0615    4.3316 H         1 RES1    0.0000
     48 H22        5.5748    6.3811    2.3574 H         1 RES1    0.0000
@<TRIPOS>BOND
     1    1    2 ar
     2    2    3 ar
     3    3    4 1
     4    4    5 1
     5    5    6 1
     6    6    7 1
     7    7    8 1
     8    8    9 1
     9    9   10 ar
    10   10   11 ar
    11   11   12 ar
    12   12   13 ar
    13   13   14 ar
    14   14   15 ar
    15   15   16 ar
    16   16   17 ar
    17   17   12 ar
    18   18    9 ar
    19   19    6 1
    20   20    3 ar
    21   21   20 ar
    22   22   21 ar
    23   23   22 ar
    24   24   23 ar
    25   25   24 ar
    26   26    1 ar
    27   27    1 1
    28   28    2 1
    29   29    4 1
    30   30    4 1
    31   31    5 1
    32   32    5 1
    33   33    6 1
    34   34    7 1
    35   35    7 1
    36   36    8 1
    37   37    8 1
    38   38   10 1
    39   39   11 1
    40   40   13 1
    41   41   14 1
    42   42   15 1
    43   43   16 1
    44   44   19 1
    45   45   22 1
    46   46   23 1
    47   47   24 1
    48   48   25 1
    49   17   18 ar
    50   18   19 1
    51   19   20 1
    52   21   26 ar
    53   25   26 ar
@<TRIPOS>SUBSTRUCTURE
     1 RES1 1

@<TRIPOS>CRYSIN
  18.3380   23.4600    8.3300  90.0000  90.0000  90.0000  61 1

