# MOL2 file generated by ConQuest
# Please check atom types

@<TRIPOS>MOLECULE
BEKJAE
    44    47     1
SMALL
NO_CHARGES
****
Generated from CSD

@<TRIPOS>ATOM
      1 C1         4.0708   12.5472    4.5236 C.ar      1 RES1    0.0000
      2 H1         3.7557   13.3811    4.1946 H         1 RES1    0.0000
      3 C2         3.3656   11.4117    4.2586 C.ar      1 RES1    0.0000
      4 H2         2.5486   11.4673    3.7758 H         1 RES1    0.0000
      5 C3         3.8366   10.1499    4.6965 C.ar      1 RES1    0.0000
      6 C4         3.1361    8.9464    4.4398 C.ar      1 RES1    0.0000
      7 H3         2.3036    8.9795    3.9829 H         1 RES1    0.0000
      8 C5         3.6356    7.7444    4.8366 C.ar      1 RES1    0.0000
      9 H4         3.1456    6.9481    4.6645 H         1 RES1    0.0000
     10 C6         4.8831    7.6747    5.5068 C.ar      1 RES1    0.0000
     11 H5         5.2363    6.8326    5.7665 H         1 RES1    0.0000
     12 C7         5.5741    8.8144    5.7764 C.ar      1 RES1    0.0000
     13 H6         6.4101    8.7582    6.2241 H         1 RES1    0.0000
     14 C8         5.0686   10.0826    5.4017 C.ar      1 RES1    0.0000
     15 C9         5.7513   11.2990    5.7010 C.ar      1 RES1    0.0000
     16 H7         6.5588   11.2694    6.2013 H         1 RES1    0.0000
     17 C10        5.2672   12.5041    5.2829 C.ar      1 RES1    0.0000
     18 C11        6.0212   13.7831    5.6195 C.3       1 RES1    0.0000
     19 H8         6.9108   13.5084    5.9850 H         1 RES1    0.0000
     20 C12        5.3219   14.6452    6.7283 C.3       1 RES1    0.0000
     21 H9         5.2292   14.0628    7.5355 H         1 RES1    0.0000
     22 C13        6.1949   15.8366    7.1350 C.ar      1 RES1    0.0000
     23 C14        7.4543   15.5845    7.7549 C.ar      1 RES1    0.0000
     24 H10        7.7314   14.6877    7.8973 H         1 RES1    0.0000
     25 C15        8.2689   16.6041    8.1471 C.ar      1 RES1    0.0000
     26 H11        9.0955   16.4056    8.5712 H         1 RES1    0.0000
     27 C16        7.9003   17.9543    7.9323 C.ar      1 RES1    0.0000
     28 C17        8.7232   19.0415    8.3123 C.ar      1 RES1    0.0000
     29 H12        9.5545   18.8738    8.7395 H         1 RES1    0.0000
     30 C18        8.3391   20.3199    8.0732 C.ar      1 RES1    0.0000
     31 H13        8.9040   21.0403    8.3314 H         1 RES1    0.0000
     32 C19        7.1118   20.5831    7.4472 C.ar      1 RES1    0.0000
     33 H14        6.8525   21.4830    7.2850 H         1 RES1    0.0000
     34 C20        6.2840   19.5655    7.0672 C.ar      1 RES1    0.0000
     35 H15        5.4575   19.7612    6.6422 H         1 RES1    0.0000
     36 C21        6.6551   18.2174    7.3048 C.ar      1 RES1    0.0000
     37 C22        5.8262   17.1314    6.9271 C.ar      1 RES1    0.0000
     38 H16        4.9889   17.3126    6.5166 H         1 RES1    0.0000
     39 C23        6.2876   14.6093    4.4193 C.1       1 RES1    0.0000
     40 C24        6.5148   15.2587    3.4658 C.1       1 RES1    0.0000
     41 C25        3.9733   15.0636    6.3468 C.1       1 RES1    0.0000
     42 C26        2.8958   15.4346    6.0353 C.1       1 RES1    0.0000
     43 H17        6.6182   15.8199    2.7286 H         1 RES1    0.0000
     44 H18        2.0170   15.7063    5.8053 H         1 RES1    0.0000
@<TRIPOS>BOND
     1    1    2 1
     2    3    1 ar
     3    4    3 1
     4    5    3 ar
     5    6    5 ar
     6    7    6 1
     7    8    6 ar
     8    9    8 1
     9   10    8 ar
    10   11   10 1
    11   12   10 ar
    12   13   12 1
    13   14    5 ar
    14   15   14 ar
    15   16   15 1
    16   17    1 ar
    17   18   17 1
    18   19   18 1
    19   20   18 1
    20   21   20 1
    21   22   20 1
    22   23   22 ar
    23   24   23 1
    24   25   23 ar
    25   26   25 1
    26   27   25 ar
    27   28   27 ar
    28   29   28 1
    29   30   28 ar
    30   31   30 1
    31   32   30 ar
    32   33   32 1
    33   34   32 ar
    34   35   34 1
    35   36   27 ar
    36   37   22 ar
    37   38   37 1
    38   39   18 1
    39   40   39 3
    40   41   20 1
    41   42   41 3
    42   43   40 1
    43   44   42 1
    44   12   14 ar
    45   15   17 ar
    46   34   36 ar
    47   36   37 ar
@<TRIPOS>SUBSTRUCTURE
     1 RES1 1

@<TRIPOS>CRYSIN
  11.8926   19.5888    7.6155  90.0000  90.0000  90.0000  29 1

