# MOL2 file generated by ConQuest
# Please check atom types

@<TRIPOS>MOLECULE
BENANT
    20    23     1
SMALL
NO_CHARGES
****
Generated from CSD

@<TRIPOS>ATOM
      1 C1         1.8890    2.1740    2.0624 C.ar      1 RES1    0.0000
      2 C2         2.4552    2.7782   -1.6234 C.ar      1 RES1    0.0000
      3 C3         2.4986    2.9308   -0.2428 C.ar      1 RES1    0.0000
      4 C4         2.0269    1.5680   -2.1786 C.ar      1 RES1    0.0000
      5 C5         1.7770    0.4517   -1.3342 C.ar      1 RES1    0.0000
      6 C6         2.0635    1.8585    0.6227 C.ar      1 RES1    0.0000
      7 C7         1.8562   -0.6749    0.9183 C.3       1 RES1    0.0000
      8 C8         2.8537    3.9247   -2.5585 C.3       1 RES1    0.0000
      9 C9         1.1003    1.3947    2.9132 C.ar      1 RES1    0.0000
     10 C10        0.9716    1.7042    4.2706 C.ar      1 RES1    0.0000
     11 C11        1.6574    2.8153    4.7814 C.ar      1 RES1    0.0000
     12 C12        2.4887    3.3592    2.5585 C.ar      1 RES1    0.0000
     13 C13        2.3569    3.6316    3.9687 C.ar      1 RES1    0.0000
     14 C14        3.0739    4.3057    1.6867 C.ar      1 RES1    0.0000
     15 C15        3.0168    4.1342    0.3589 C.ar      1 RES1    0.0000
     16 C16        1.8562    1.3749   -3.6014 C.ar      1 RES1    0.0000
     17 C17        1.4547    0.1939   -4.1143 C.ar      1 RES1    0.0000
     18 C18        1.2032   -0.9017   -3.2889 C.ar      1 RES1    0.0000
     19 C19        1.4036   -0.7922   -1.9295 C.ar      1 RES1    0.0000
     20 C20        1.8646    0.5827    0.0971 C.ar      1 RES1    0.0000
@<TRIPOS>BOND
     1    1    6 ar
     2    2    3 ar
     3    3    6 ar
     4    4    2 ar
     5    5    4 ar
     6    6   20 ar
     7    7   20 1
     8    8    2 1
     9    9    1 ar
    10   10    9 ar
    11   11   10 ar
    12   12    1 ar
    13   13   11 ar
    14   14   12 ar
    15   15    3 ar
    16   16    4 ar
    17   17   16 ar
    18   18   17 ar
    19   19    5 ar
    20   20    5 ar
    21   12   13 ar
    22   14   15 ar
    23   18   19 ar
@<TRIPOS>SUBSTRUCTURE
     1 RES1 1

@<TRIPOS>CRYSIN
   7.6200    8.6200   21.1100  90.0000  90.0000  90.0000  33 2

