# MOL2 file generated by ConQuest
# Please check atom types

@<TRIPOS>MOLECULE
BENANT02
    36    39     1
SMALL
NO_CHARGES
****
Generated from CSD

@<TRIPOS>ATOM
      1 C1         1.4051    2.9240    1.1395 C.ar      1 RES1    0.0000
      2 C2         1.7445    4.2640    1.0286 C.ar      1 RES1    0.0000
      3 C3         2.8774    4.7626    1.6723 C.ar      1 RES1    0.0000
      4 C4         3.7062    3.9022    2.3432 C.ar      1 RES1    0.0000
      5 C5         4.3609    1.6072    2.9941 C.ar      1 RES1    0.0000
      6 C6         4.1498    0.2798    2.9410 C.ar      1 RES1    0.0000
      7 C7         2.7439   -1.6829    2.4053 C.ar      1 RES1    0.0000
      8 C8         1.2733   -3.6056    1.8097 C.ar      1 RES1    0.0000
      9 C9         0.0603   -4.0957    1.4398 C.ar      1 RES1    0.0000
     10 C10       -1.0355   -3.2269    1.2543 C.ar      1 RES1    0.0000
     11 C11       -0.8830   -1.8827    1.4386 C.ar      1 RES1    0.0000
     12 C12        0.5608    0.0947    1.8927 C.ar      1 RES1    0.0000
     13 C13        1.8539    0.6058    2.0627 C.ar      1 RES1    0.0000
     14 C14        2.1899    2.0363    1.8991 C.ar      1 RES1    0.0000
     15 C15        3.4055    2.5243    2.4359 C.ar      1 RES1    0.0000
     16 C16        2.9188   -0.2924    2.4481 C.ar      1 RES1    0.0000
     17 C17        1.4938   -2.2004    1.9957 C.ar      1 RES1    0.0000
     18 C18        0.3868   -1.3148    1.7869 C.ar      1 RES1    0.0000
     19 C19       -0.6840    0.9634    1.9252 C.3       1 RES1    0.0000
     20 C20        3.8699   -2.6253    2.7576 C.3       1 RES1    0.0000
     21 H1         0.7150    2.5874    0.6953 H         1 RES1    0.0000
     22 H2         1.1975    4.8383    0.4596 H         1 RES1    0.0000
     23 H3         3.0669    5.6376    1.5790 H         1 RES1    0.0000
     24 H4         4.5487    4.2072    2.6798 H         1 RES1    0.0000
     25 H5         5.1690    1.9984    3.3284 H         1 RES1    0.0000
     26 H6         4.8589   -0.2945    3.2988 H         1 RES1    0.0000
     27 H7         1.9901   -4.2072    1.9059 H         1 RES1    0.0000
     28 H8        -0.0603   -5.0066    1.2899 H         1 RES1    0.0000
     29 H9        -1.8781   -3.5761    0.9993 H         1 RES1    0.0000
     30 H10       -1.7058   -1.3253    1.3069 H         1 RES1    0.0000
     31 H11       -1.3870    0.4838    2.4315 H         1 RES1    0.0000
     32 H12       -1.0080    1.0728    1.0452 H         1 RES1    0.0000
     33 H13       -0.4997    1.8722    2.3425 H         1 RES1    0.0000
     34 H14        4.1955   -3.0081    1.9867 H         1 RES1    0.0000
     35 H15        4.6607   -2.1667    3.1802 H         1 RES1    0.0000
     36 H16        3.6355   -3.3447    3.2840 H         1 RES1    0.0000
@<TRIPOS>BOND
     1    1    2 ar
     2    2    3 ar
     3    3    4 ar
     4    4   15 ar
     5    5    6 ar
     6    6   16 ar
     7    7   16 ar
     8    8    9 ar
     9    9   10 ar
    10   10   11 ar
    11   11   18 ar
    12   12   13 ar
    13   13   14 ar
    14   14    1 ar
    15   15    5 ar
    16   16   13 ar
    17   17    7 ar
    18   18   12 ar
    19   19   12 1
    20   20    7 1
    21   21    1 1
    22   22    2 1
    23   23    3 1
    24   24    4 1
    25   25    5 1
    26   26    6 1
    27   27    8 1
    28   28    9 1
    29   29   10 1
    30   30   11 1
    31   31   19 1
    32   32   19 1
    33   33   19 1
    34   34   20 1
    35   35   20 1
    36   36   20 1
    37    8   17 ar
    38   14   15 ar
    39   17   18 ar
@<TRIPOS>SUBSTRUCTURE
     1 RES1 1

@<TRIPOS>CRYSIN
   8.6150   21.0360    7.4130  90.0000  90.0000  90.0000  33 1

