# MOL2 file generated by ConQuest
# Please check atom types

@<TRIPOS>MOLECULE
BENANT01
    20    23     1
SMALL
NO_CHARGES
****
Generated from CSD

@<TRIPOS>ATOM
      1 C1         1.8989    2.1674    2.0610 C.ar      1 RES1    0.0000
      2 C2         2.4525    2.7868   -1.6320 C.ar      1 RES1    0.0000
      3 C3         2.4936    2.9335   -0.2491 C.ar      1 RES1    0.0000
      4 C4         1.1118    1.3901    2.9210 C.ar      1 RES1    0.0000
      5 C5         2.0253    1.5665   -2.1851 C.ar      1 RES1    0.0000
      6 C6         1.7667    0.4503   -1.3320 C.ar      1 RES1    0.0000
      7 C7         2.0681    1.8596    0.6223 C.ar      1 RES1    0.0000
      8 C8         1.8482   -0.6749    0.9234 C.3       1 RES1    0.0000
      9 C9         2.8644    3.9205   -2.5518 C.3       1 RES1    0.0000
     10 C10        2.4804    3.3597    2.5708 C.ar      1 RES1    0.0000
     11 C11        0.9769    1.7068    4.2615 C.ar      1 RES1    0.0000
     12 C12        3.0747    4.2962    1.6842 C.ar      1 RES1    0.0000
     13 C13        1.6568    2.8185    4.7975 C.ar      1 RES1    0.0000
     14 C14        3.0153    4.1369    0.3599 C.ar      1 RES1    0.0000
     15 C15        2.3610    3.6283    3.9634 C.ar      1 RES1    0.0000
     16 C16        1.8565    1.3745   -3.6073 C.ar      1 RES1    0.0000
     17 C17        1.4491    0.1938   -4.1221 C.ar      1 RES1    0.0000
     18 C18        1.2193   -0.9115   -3.2752 C.ar      1 RES1    0.0000
     19 C19        1.3919   -0.7905   -1.9235 C.ar      1 RES1    0.0000
     20 C20        1.8674    0.5875    0.0868 C.ar      1 RES1    0.0000
@<TRIPOS>BOND
     1    1    4 ar
     2    2    3 ar
     3    3    7 ar
     4    4   11 ar
     5    5    2 ar
     6    6    5 ar
     7    7    1 ar
     8    8   20 1
     9    9    2 1
    10   10    1 ar
    11   11   13 ar
    12   12   10 ar
    13   13   15 ar
    14   14    3 ar
    15   15   10 ar
    16   16    5 ar
    17   17   16 ar
    18   18   17 ar
    19   19    6 ar
    20   20    6 ar
    21    7   20 ar
    22   12   14 ar
    23   18   19 ar
@<TRIPOS>SUBSTRUCTURE
     1 RES1 1

@<TRIPOS>CRYSIN
   7.6200    8.6200   21.1100  90.0000  90.0000  90.0000  33 2

