# MOL2 file generated by ConQuest
# Please check atom types

@<TRIPOS>MOLECULE
BENANT03
    36    39     1
SMALL
NO_CHARGES
****
Generated from CSD

@<TRIPOS>ATOM
      1 C1         1.4008    2.9219    1.1394 C.ar      1 RES1    0.0000
      2 C2         1.7428    4.2640    1.0274 C.ar      1 RES1    0.0000
      3 C3         2.8800    4.7731    1.6739 C.ar      1 RES1    0.0000
      4 C4         3.7122    3.9001    2.3462 C.ar      1 RES1    0.0000
      5 C5         4.3644    1.6114    2.9934 C.ar      1 RES1    0.0000
      6 C6         4.1507    0.2756    2.9437 C.ar      1 RES1    0.0000
      7 C7         2.7465   -1.6808    2.4070 C.ar      1 RES1    0.0000
      8 C8         1.2811   -3.6035    1.8140 C.ar      1 RES1    0.0000
      9 C9         0.0603   -4.1020    1.4403 C.ar      1 RES1    0.0000
     10 C10       -1.0407   -3.2248    1.2550 C.ar      1 RES1    0.0000
     11 C11       -0.8839   -1.8785    1.4403 C.ar      1 RES1    0.0000
     12 C12        0.5608    0.0947    1.8918 C.ar      1 RES1    0.0000
     13 C13        1.8531    0.6100    2.0638 C.ar      1 RES1    0.0000
     14 C14        2.1873    2.0321    1.8992 C.ar      1 RES1    0.0000
     15 C15        3.4072    2.5264    2.4374 C.ar      1 RES1    0.0000
     16 C16        2.9205   -0.2903    2.4500 C.ar      1 RES1    0.0000
     17 C17        1.4913   -2.2046    1.9971 C.ar      1 RES1    0.0000
     18 C18        0.3825   -1.3148    1.7888 C.ar      1 RES1    0.0000
     19 C19       -0.6875    0.9613    1.9274 C.3       1 RES1    0.0000
     20 C20        3.8699   -2.6232    2.7554 C.3       1 RES1    0.0000
     21 H1         0.5272    2.5664    0.6390 H         1 RES1    0.0000
     22 H2         1.1303    4.9182    0.4411 H         1 RES1    0.0000
     23 H3         3.0945    5.8228    1.6472 H         1 RES1    0.0000
     24 H4         4.6107    4.2766    2.8073 H         1 RES1    0.0000
     25 H5         5.2612    1.9900    3.4545 H         1 RES1    0.0000
     26 H6         4.9269   -0.3850    3.2854 H         1 RES1    0.0000
     27 H7         2.0986   -4.2829    1.9748 H         1 RES1    0.0000
     28 H8        -0.0620   -5.1580    1.2891 H         1 RES1    0.0000
     29 H9        -2.0004   -3.6203    0.9711 H         1 RES1    0.0000
     30 H10       -1.7333   -1.2264    1.3203 H         1 RES1    0.0000
     31 H11       -1.4060    0.4333    2.5197 H         1 RES1    0.0000
     32 H12       -1.0734    1.0749    0.9222 H         1 RES1    0.0000
     33 H13       -0.4109    1.9101    2.3521 H         1 RES1    0.0000
     34 H14        4.2946   -3.1049    1.9014 H         1 RES1    0.0000
     35 H15        4.6383   -2.1688    3.3410 H         1 RES1    0.0000
     36 H16        3.4012   -3.3700    3.3611 H         1 RES1    0.0000
@<TRIPOS>BOND
     1    1    2 ar
     2    2    3 ar
     3    3    4 ar
     4    4   15 ar
     5    5    6 ar
     6    6   16 ar
     7    7   16 ar
     8    8    9 ar
     9    9   10 ar
    10   10   11 ar
    11   11   18 ar
    12   12   13 ar
    13   13   14 ar
    14   14    1 ar
    15   15    5 ar
    16   16   13 ar
    17   17    7 ar
    18   18   12 ar
    19   19   12 1
    20   20    7 1
    21   21    1 1
    22   22    2 1
    23   23    3 1
    24   24    4 1
    25   25    5 1
    26   26    6 1
    27   27    8 1
    28   28    9 1
    29   29   10 1
    30   30   11 1
    31   31   19 1
    32   32   19 1
    33   33   19 1
    34   34   20 1
    35   35   20 1
    36   36   20 1
    37    8   17 ar
    38   14   15 ar
    39   17   18 ar
@<TRIPOS>SUBSTRUCTURE
     1 RES1 1

@<TRIPOS>CRYSIN
   8.6150   21.0360    7.4130  90.0000  90.0000  90.0000  33 1

