# MOL2 file generated by ConQuest
# Please check atom types

@<TRIPOS>MOLECULE
BEQYIG
    96   108     1
SMALL
NO_CHARGES
****
Generated from CSD

@<TRIPOS>ATOM
      1 C1         1.1481    0.1749    7.4930 C.ar      1 RES1    0.0000
      2 C2         0.2133   -0.3537    8.3401 C.ar      1 RES1    0.0000
      3 C3        -0.5938   -1.4452    7.9668 C.ar      1 RES1    0.0000
      4 C4        -0.4638   -2.0005    6.7338 C.ar      1 RES1    0.0000
      5 C5         1.7510   -2.1716    2.3296 C.ar      1 RES1    0.0000
      6 C6         2.6405   -1.6696    1.4376 C.ar      1 RES1    0.0000
      7 C7         3.4355   -0.5324    1.7786 C.ar      1 RES1    0.0000
      8 C8         3.3077    0.0666    3.0062 C.ar      1 RES1    0.0000
      9 C9         2.2052    0.1369    5.2478 C.ar      1 RES1    0.0000
     10 C10        0.6295   -2.0499    4.5245 C.ar      1 RES1    0.0000
     11 C11        1.2986   -0.3765    6.1631 C.ar      1 RES1    0.0000
     12 C12        0.4812   -1.4832    5.7880 C.ar      1 RES1    0.0000
     13 C13        1.5636   -1.5669    3.6074 C.ar      1 RES1    0.0000
     14 C14        2.3659   -0.4355    3.9807 C.ar      1 RES1    0.0000
     15 C15        5.9450    3.0350    3.8694 C.ar      1 RES1    0.0000
     16 C16        5.7057    4.2177    4.4940 C.ar      1 RES1    0.0000
     17 C17        6.7297    5.1857    4.6466 C.ar      1 RES1    0.0000
     18 C18        7.9786    4.9404    4.1763 C.ar      1 RES1    0.0000
     19 C19       11.2566    1.7552    2.2937 C.ar      1 RES1    0.0000
     20 C20       11.5483    0.5572    1.7481 C.ar      1 RES1    0.0000
     21 C21       10.5089   -0.3898    1.5148 C.ar      1 RES1    0.0000
     22 C22        9.1970   -0.1103    1.8324 C.ar      1 RES1    0.0000
     23 C23        7.5673    1.4947    2.7980 C.ar      1 RES1    0.0000
     24 C24        9.5998    3.3620    3.1515 C.ar      1 RES1    0.0000
     25 C25        7.2637    2.7174    3.3849 C.ar      1 RES1    0.0000
     26 C26        8.3062    3.6929    3.5536 C.ar      1 RES1    0.0000
     27 C27        9.9136    2.1241    2.6275 C.ar      1 RES1    0.0000
     28 C28        8.8647    1.1676    2.4014 C.ar      1 RES1    0.0000
     29 C29        6.4189   -2.9589    0.9440 C.ar      1 RES1    0.0000
     30 C30        6.4280   -3.4590   -0.3338 C.ar      1 RES1    0.0000
     31 C31        5.5694   -4.5258   -0.6892 C.ar      1 RES1    0.0000
     32 C32        4.7273   -5.0925    0.2154 C.ar      1 RES1    0.0000
     33 C33        2.6930   -5.0621    4.7148 C.ar      1 RES1    0.0000
     34 C34        2.5568   -4.4688    5.9226 C.ar      1 RES1    0.0000
     35 C35        3.3728   -3.3810    6.3121 C.ar      1 RES1    0.0000
     36 C36        4.3245   -2.8961    5.4560 C.ar      1 RES1    0.0000
     37 C37        5.3858   -2.9589    3.2072 C.ar      1 RES1    0.0000
     38 C38        3.7755   -5.1134    2.4929 C.ar      1 RES1    0.0000
     39 C39        5.4932   -3.4875    1.9275 C.ar      1 RES1    0.0000
     40 C40        4.6544   -4.5924    1.5471 C.ar      1 RES1    0.0000
     41 C41        3.6483   -4.5791    3.7707 C.ar      1 RES1    0.0000
     42 C42        4.4725   -3.4628    4.1404 C.ar      1 RES1    0.0000
     43 C43        7.0884   -0.0057    6.1631 C.ar      1 RES1    0.0000
     44 C44        8.3704   -0.2415    5.7126 C.ar      1 RES1    0.0000
     45 C45        9.3719    0.7530    5.8185 C.ar      1 RES1    0.0000
     46 C46        9.1037    1.9605    6.3857 C.ar      1 RES1    0.0000
     47 C47        5.8624    5.0659    8.4155 C.ar      1 RES1    0.0000
     48 C48        4.5942    5.3321    8.8409 C.ar      1 RES1    0.0000
     49 C49        3.5804    4.3490    8.7780 C.ar      1 RES1    0.0000
     50 C50        3.8404    3.1129    8.2647 C.ar      1 RES1    0.0000
     51 C51        5.4868    1.5403    7.2579 C.ar      1 RES1    0.0000
     52 C52        7.4800    3.4837    7.4445 C.ar      1 RES1    0.0000
     53 C53        6.7647    1.2589    6.7769 C.ar      1 RES1    0.0000
     54 C54        7.7953    2.2553    6.8720 C.ar      1 RES1    0.0000
     55 C55        6.1961    3.7747    7.9058 C.ar      1 RES1    0.0000
     56 C56        5.1792    2.7763    7.8071 C.ar      1 RES1    0.0000
     57 C57        2.8278    2.1089    8.1212 C.1       1 RES1    0.0000
     58 C58        2.0247    1.2455    7.9004 C.1       1 RES1    0.0000
     59 C59        4.1498    1.1790    3.3544 C.1       1 RES1    0.0000
     60 C60        4.8985    2.0594    3.6433 C.1       1 RES1    0.0000
     61 C61        8.1762   -1.0896    1.5740 C.1       1 RES1    0.0000
     62 C62        7.3456   -1.9073    1.3084 C.1       1 RES1    0.0000
     63 C63        5.2316   -1.8465    5.8311 C.1       1 RES1    0.0000
     64 C64        6.0741   -1.0136    6.0088 C.1       1 RES1    0.0000
     65 H1         0.1060    0.0323    9.2213 H         1 RES1    0.0000
     66 H2        -1.2485   -1.7951    8.5770 H         1 RES1    0.0000
     67 H3        -1.0054   -2.7668    6.4826 H         1 RES1    0.0000
     68 H4         1.2318   -2.9456    2.1124 H         1 RES1    0.0000
     69 H5         2.7506   -2.0899    0.5671 H         1 RES1    0.0000
     70 H6         4.0757   -0.1807    1.1576 H         1 RES1    0.0000
     71 H7         2.7435    0.9052    5.4973 H         1 RES1    0.0000
     72 H8         0.0568   -2.7877    4.2894 H         1 RES1    0.0000
     73 H9         4.8242    4.4098    4.8278 H         1 RES1    0.0000
     74 H10        6.5448    6.0148    5.0881 H         1 RES1    0.0000
     75 H11        8.6488    5.6192    4.2661 H         1 RES1    0.0000
     76 H12       11.9697    2.3979    2.4624 H         1 RES1    0.0000
     77 H13       12.4707    0.3347    1.5237 H         1 RES1    0.0000
     78 H14       10.7015   -1.2417    1.1163 H         1 RES1    0.0000
     79 H15        6.8604    0.8633    2.6616 H         1 RES1    0.0000
     80 H16       10.3020    4.0181    3.2269 H         1 RES1    0.0000
     81 H17        7.0190   -3.0749   -0.9979 H         1 RES1    0.0000
     82 H18        5.6005   -4.8662   -1.5937 H         1 RES1    0.0000
     83 H19        4.1662   -5.8284   -0.0323 H         1 RES1    0.0000
     84 H20        2.1424   -5.8189    4.4814 H         1 RES1    0.0000
     85 H21        1.8753   -4.7977    6.5167 H         1 RES1    0.0000
     86 H22        3.2754   -2.9760    7.1843 H         1 RES1    0.0000
     87 H23        5.9602   -2.2230    3.4531 H         1 RES1    0.0000
     88 H24        3.2147   -5.8493    2.2434 H         1 RES1    0.0000
     89 H25        8.5598   -1.0972    5.3124 H         1 RES1    0.0000
     90 H26       10.2636    0.5705    5.5206 H         1 RES1    0.0000
     91 H27        9.8006    2.6299    6.4305 H         1 RES1    0.0000
     92 H28        6.5556    5.7485    8.4478 H         1 RES1    0.0000
     93 H29        4.3797    6.2068    9.1890 H         1 RES1    0.0000
     94 H30        2.6938    4.5315    9.1280 H         1 RES1    0.0000
     95 H31        4.8174    0.8614    7.1969 H         1 RES1    0.0000
     96 H32        8.1710    4.1512    7.4966 H         1 RES1    0.0000
@<TRIPOS>BOND
     1    1    2 ar
     2    2    3 ar
     3    3    4 ar
     4    4   12 ar
     5    5    6 ar
     6    6    7 ar
     7    7    8 ar
     8    8   14 ar
     9    9   11 ar
    10   10   12 ar
    11   11    1 ar
    12   12   11 ar
    13   13    5 ar
    14   14    9 ar
    15   15   16 ar
    16   16   17 ar
    17   17   18 ar
    18   18   26 ar
    19   19   20 ar
    20   20   21 ar
    21   21   22 ar
    22   22   28 ar
    23   23   25 ar
    24   24   26 ar
    25   25   15 ar
    26   26   25 ar
    27   27   19 ar
    28   28   23 ar
    29   29   30 ar
    30   30   31 ar
    31   31   32 ar
    32   32   40 ar
    33   33   34 ar
    34   34   35 ar
    35   35   36 ar
    36   36   42 ar
    37   37   39 ar
    38   38   40 ar
    39   39   29 ar
    40   40   39 ar
    41   41   33 ar
    42   42   37 ar
    43   43   44 ar
    44   44   45 ar
    45   45   46 ar
    46   46   54 ar
    47   47   48 ar
    48   48   49 ar
    49   49   50 ar
    50   50   56 ar
    51   51   53 ar
    52   52   54 ar
    53   53   43 ar
    54   54   53 ar
    55   55   47 ar
    56   56   51 ar
    57   57   50 1
    58   58    1 1
    59   59    8 1
    60   60   15 1
    61   61   22 1
    62   62   29 1
    63   63   36 1
    64   64   43 1
    65   65    2 1
    66   66    3 1
    67   67    4 1
    68   68    5 1
    69   69    6 1
    70   70    7 1
    71   71    9 1
    72   72   10 1
    73   73   16 1
    74   74   17 1
    75   75   18 1
    76   76   19 1
    77   77   20 1
    78   78   21 1
    79   79   23 1
    80   80   24 1
    81   81   30 1
    82   82   31 1
    83   83   32 1
    84   84   33 1
    85   85   34 1
    86   86   35 1
    87   87   37 1
    88   88   38 1
    89   89   44 1
    90   90   45 1
    91   91   46 1
    92   92   47 1
    93   93   48 1
    94   94   49 1
    95   95   51 1
    96   96   52 1
    97   10   13 ar
    98   13   14 ar
    99   24   27 ar
   100   27   28 ar
   101   38   41 ar
   102   41   42 ar
   103   52   55 ar
   104   55   56 ar
   105   57   58 3
   106   59   60 3
   107   61   62 3
   108   63   64 3
@<TRIPOS>SUBSTRUCTURE
     1 RES1 1

@<TRIPOS>CRYSIN
  11.8063   19.0160   18.2210  90.0000  99.9430  90.0000 231 1

