# MOL2 file generated by ConQuest
# Please check atom types

@<TRIPOS>MOLECULE
BIGJUX
   120   134     1
SMALL
NO_CHARGES
****
Generated from CSD

@<TRIPOS>ATOM
      1 C1         1.6236   -1.5019    7.0524 C.ar      1 RES1    0.0000
      2 H1         1.3000   -1.9174    6.2625 H         1 RES1    0.0000
      3 C2         0.8813   -1.5777    8.2144 C.ar      1 RES1    0.0000
      4 H2         0.0512   -2.0398    8.2144 H         1 RES1    0.0000
      5 C3         1.3413   -0.9846    9.3782 C.ar      1 RES1    0.0000
      6 H3         0.8300   -1.0397   10.1772 H         1 RES1    0.0000
      7 C4         2.5406   -0.3155    9.3673 C.ar      1 RES1    0.0000
      8 H4         2.8516    0.0914   10.1681 H         1 RES1    0.0000
      9 C5         3.3155   -0.2190    8.2122 C.ar      1 RES1    0.0000
     10 C6         4.5867    0.5173    8.1841 C.ar      1 RES1    0.0000
     11 C7         5.3739    0.6811    9.3363 C.ar      1 RES1    0.0000
     12 H5         5.0725    0.3190   10.1626 H         1 RES1    0.0000
     13 C8         6.5706    1.3553    9.2943 C.ar      1 RES1    0.0000
     14 H6         7.0873    1.4639   10.0842 H         1 RES1    0.0000
     15 C9         7.0191    1.8743    8.0909 C.ar      1 RES1    0.0000
     16 H7         7.8513    2.3330    8.0539 H         1 RES1    0.0000
     17 C10        6.2691    1.7295    6.9539 C.ar      1 RES1    0.0000
     18 H8         6.5875    2.0967    6.1384 H         1 RES1    0.0000
     19 C11        5.0339    1.0484    6.9632 C.ar      1 RES1    0.0000
     20 C12        4.2930    0.7190    5.7344 C.ar      1 RES1    0.0000
     21 C13        4.3037    1.4381    4.5485 C.ar      1 RES1    0.0000
     22 C14        3.8802    0.7656    3.3352 C.ar      1 RES1    0.0000
     23 C15        3.5001    1.4225    2.1389 C.ar      1 RES1    0.0000
     24 C16        3.5096    0.6849    0.9245 C.ar      1 RES1    0.0000
     25 C17        2.8749    1.0518   -0.3231 C.ar      1 RES1    0.0000
     26 C18        3.2137    0.3673   -1.4791 C.ar      1 RES1    0.0000
     27 C19        2.3793    0.3190   -2.7075 C.ar      1 RES1    0.0000
     28 C20        0.9883    0.4293   -2.6889 C.ar      1 RES1    0.0000
     29 H9         0.5547    0.6587   -1.8753 H         1 RES1    0.0000
     30 C21        0.2256    0.2190   -3.8144 C.ar      1 RES1    0.0000
     31 H10       -0.7204    0.3018   -3.7670 H         1 RES1    0.0000
     32 C22        0.8282   -0.1155   -5.0074 C.ar      1 RES1    0.0000
     33 H11        0.3035   -0.2638   -5.7846 H         1 RES1    0.0000
     34 C23        2.1949   -0.2328   -5.0658 C.ar      1 RES1    0.0000
     35 H12        2.6069   -0.4604   -5.8904 H         1 RES1    0.0000
     36 C24        3.0025   -0.0241   -3.9253 C.ar      1 RES1    0.0000
     37 C25        4.4545   -0.1862   -3.9642 C.ar      1 RES1    0.0000
     38 C26        5.1629   -0.0500   -5.1552 C.ar      1 RES1    0.0000
     39 H13        4.6900    0.1500   -5.9524 H         1 RES1    0.0000
     40 C27        6.5233   -0.1983   -5.2081 C.ar      1 RES1    0.0000
     41 H14        6.9836   -0.1017   -6.0345 H         1 RES1    0.0000
     42 C28        7.2186   -0.4862   -4.0534 C.ar      1 RES1    0.0000
     43 H15        8.1612   -0.5932   -4.0826 H         1 RES1    0.0000
     44 C29        6.5473   -0.6225   -2.8494 C.ar      1 RES1    0.0000
     45 H16        7.0407   -0.8190   -2.0614 H         1 RES1    0.0000
     46 C30        5.1601   -0.4771   -2.7721 C.ar      1 RES1    0.0000
     47 C31        4.4239   -0.4380   -1.4847 C.ar      1 RES1    0.0000
     48 C32        4.8305   -0.9984   -0.2911 C.ar      1 RES1    0.0000
     49 C33        4.1776   -0.5883    0.9344 C.ar      1 RES1    0.0000
     50 C34        4.1947   -1.3356    2.1367 C.ar      1 RES1    0.0000
     51 C35        3.8924   -0.6828    3.3520 C.ar      1 RES1    0.0000
     52 C36        3.5350   -1.3122    4.6101 C.ar      1 RES1    0.0000
     53 C37        3.5747   -0.5414    5.7579 C.ar      1 RES1    0.0000
     54 C38        2.8528   -0.8190    7.0223 C.ar      1 RES1    0.0000
     55 C39        4.8692    2.8227    4.5335 C.ar      1 RES1    0.0000
     56 C40        4.4091    3.7676    5.4544 C.ar      1 RES1    0.0000
     57 H17        3.6631    3.5624    6.0053 H         1 RES1    0.0000
     58 C41        5.0289    5.0039    5.5693 C.ar      1 RES1    0.0000
     59 H18        4.6962    5.6453    6.1859 H         1 RES1    0.0000
     60 C42        6.1223    5.2970    4.7940 C.ar      1 RES1    0.0000
     61 H19        6.5678    6.1299    4.8998 H         1 RES1    0.0000
     62 C43        6.5700    4.3883    3.8655 C.ar      1 RES1    0.0000
     63 H20        7.3176    4.6021    3.3201 H         1 RES1    0.0000
     64 C44        5.9398    3.1623    3.7214 C.ar      1 RES1    0.0000
     65 H21        6.2451    2.5502    3.0610 H         1 RES1    0.0000
     66 C45        3.1085    2.8578    2.1911 C.ar      1 RES1    0.0000
     67 C46        2.1272    3.2917    3.0774 C.ar      1 RES1    0.0000
     68 H22        1.6910    2.6589    3.6338 H         1 RES1    0.0000
     69 C47        1.7771    4.6263    3.1595 C.ar      1 RES1    0.0000
     70 H23        1.1096    4.9056    3.7761 H         1 RES1    0.0000
     71 C48        2.3897    5.5384    2.3569 C.ar      1 RES1    0.0000
     72 H24        2.1506    6.4557    2.4171 H         1 RES1    0.0000
     73 C49        3.3588    5.1401    1.4539 C.ar      1 RES1    0.0000
     74 H25        3.7780    5.7815    0.8902 H         1 RES1    0.0000
     75 C50        3.7213    3.7969    1.3718 C.ar      1 RES1    0.0000
     76 H26        4.3889    3.5227    0.7534 H         1 RES1    0.0000
     77 C51        1.8164    2.0933   -0.3634 C.ar      1 RES1    0.0000
     78 C52        0.6978    2.0398    0.4305 C.ar      1 RES1    0.0000
     79 H27        0.6047    1.3398    1.0653 H         1 RES1    0.0000
     80 C53       -0.3004    2.9985    0.3156 C.ar      1 RES1    0.0000
     81 H28       -1.0668    2.9641    0.8738 H         1 RES1    0.0000
     82 C54       -0.1608    4.0107   -0.6294 C.ar      1 RES1    0.0000
     83 H29       -0.8585    4.6470   -0.7352 H         1 RES1    0.0000
     84 C55        0.9701    4.1107   -1.4138 C.ar      1 RES1    0.0000
     85 H30        1.0786    4.8228   -2.0322 H         1 RES1    0.0000
     86 C56        1.9212    3.1503   -1.2678 C.ar      1 RES1    0.0000
     87 H31        2.6983    3.2020   -1.8114 H         1 RES1    0.0000
     88 C57        6.0310   -1.8795   -0.1642 C.ar      1 RES1    0.0000
     89 C58        6.1572   -3.0917   -0.8264 C.ar      1 RES1    0.0000
     90 H32        5.4630   -3.3951   -1.4010 H         1 RES1    0.0000
     91 C59        7.2963   -3.8607   -0.6512 C.ar      1 RES1    0.0000
     92 H33        7.3680   -4.7004   -1.0927 H         1 RES1    0.0000
     93 C60        8.3313   -3.4210    0.1605 C.ar      1 RES1    0.0000
     94 H34        9.1051   -3.9590    0.2791 H         1 RES1    0.0000
     95 C61        8.2335   -2.2123    0.7899 C.ar      1 RES1    0.0000
     96 H35        8.9517   -1.8898    1.3225 H         1 RES1    0.0000
     97 C62        7.0816   -1.4587    0.6458 C.ar      1 RES1    0.0000
     98 H36        7.0049   -0.6328    1.1091 H         1 RES1    0.0000
     99 C63        4.4619   -2.7990    2.0789 C.ar      1 RES1    0.0000
    100 C64        3.7286   -3.5831    1.1876 C.ar      1 RES1    0.0000
    101 H37        3.0793   -3.1710    0.6312 H         1 RES1    0.0000
    102 C65        3.9261   -4.9504    1.0963 C.ar      1 RES1    0.0000
    103 H38        3.4241   -5.4677    0.4798 H         1 RES1    0.0000
    104 C66        4.8629   -5.5539    1.9154 C.ar      1 RES1    0.0000
    105 H39        4.9959   -6.4937    1.8698 H         1 RES1    0.0000
    106 C67        5.6072   -4.7918    2.8020 C.ar      1 RES1    0.0000
    107 H40        6.2549   -5.2091    3.3565 H         1 RES1    0.0000
    108 C68        5.4129   -3.4210    2.8813 C.ar      1 RES1    0.0000
    109 H41        5.9307   -2.9054    3.4879 H         1 RES1    0.0000
    110 C69        3.0322   -2.7106    4.7055 C.ar      1 RES1    0.0000
    111 C70        1.9764   -3.1761    3.9275 C.ar      1 RES1    0.0000
    112 H42        1.6456   -2.6433    3.2124 H         1 RES1    0.0000
    113 C71        1.4058   -4.4125    4.1884 C.ar      1 RES1    0.0000
    114 H43        0.6815   -4.7194    3.6557 H         1 RES1    0.0000
    115 C72        1.8786   -5.2005    5.2172 C.ar      1 RES1    0.0000
    116 H44        1.4585   -6.0298    5.4106 H         1 RES1    0.0000
    117 C73        2.9536   -4.7866    5.9579 C.ar      1 RES1    0.0000
    118 H45        3.3020   -5.3470    6.6438 H         1 RES1    0.0000
    119 C74        3.5334   -3.5520    5.7079 C.ar      1 RES1    0.0000
    120 H46        4.2814   -3.2727    6.2224 H         1 RES1    0.0000
@<TRIPOS>BOND
     1    1    2 1
     2    3    1 ar
     3    4    3 1
     4    5    3 ar
     5    6    5 1
     6    7    5 ar
     7    8    7 1
     8    9    7 ar
     9   10    9 ar
    10   11   10 ar
    11   12   11 1
    12   13   11 ar
    13   14   13 1
    14   15   13 ar
    15   16   15 1
    16   17   15 ar
    17   18   17 1
    18   19   10 ar
    19   20   19 ar
    20   21   20 ar
    21   22   21 ar
    22   23   22 ar
    23   24   23 ar
    24   25   24 ar
    25   26   25 ar
    26   27   26 ar
    27   28   27 ar
    28   29   28 1
    29   30   28 ar
    30   31   30 1
    31   32   30 ar
    32   33   32 1
    33   34   32 ar
    34   35   34 1
    35   36   27 ar
    36   37   36 ar
    37   38   37 ar
    38   39   38 1
    39   40   38 ar
    40   41   40 1
    41   42   40 ar
    42   43   42 1
    43   44   42 ar
    44   45   44 1
    45   46   37 ar
    46   47   26 ar
    47   48   47 ar
    48   49   24 ar
    49   50   49 ar
    50   51   22 ar
    51   52   51 ar
    52   53   20 ar
    53   54    1 ar
    54   55   21 1
    55   56   55 ar
    56   57   56 1
    57   58   56 ar
    58   59   58 1
    59   60   58 ar
    60   61   60 1
    61   62   60 ar
    62   63   62 1
    63   64   55 ar
    64   65   64 1
    65   66   23 1
    66   67   66 ar
    67   68   67 1
    68   69   67 ar
    69   70   69 1
    70   71   69 ar
    71   72   71 1
    72   73   71 ar
    73   74   73 1
    74   75   66 ar
    75   76   75 1
    76   77   25 1
    77   78   77 ar
    78   79   78 1
    79   80   78 ar
    80   81   80 1
    81   82   80 ar
    82   83   82 1
    83   84   82 ar
    84   85   84 1
    85   86   77 ar
    86   87   86 1
    87   88   48 1
    88   89   88 ar
    89   90   89 1
    90   91   89 ar
    91   92   91 1
    92   93   91 ar
    93   94   93 1
    94   95   93 ar
    95   96   95 1
    96   97   88 ar
    97   98   97 1
    98   99   50 1
    99  100   99 ar
   100  101  100 1
   101  102  100 ar
   102  103  102 1
   103  104  102 ar
   104  105  104 1
   105  106  104 ar
   106  107  106 1
   107  108   99 ar
   108  109  108 1
   109  110   52 1
   110  111  110 ar
   111  112  111 1
   112  113  111 ar
   113  114  113 1
   114  115  113 ar
   115  116  115 1
   116  117  115 ar
   117  118  117 1
   118  119  110 ar
   119  120  119 1
   120    9   54 ar
   121   17   19 ar
   122   34   36 ar
   123   44   46 ar
   124   46   47 ar
   125   48   49 ar
   126   50   51 ar
   127   52   53 ar
   128   53   54 ar
   129   62   64 ar
   130   73   75 ar
   131   84   86 ar
   132   95   97 ar
   133  106  108 ar
   134  117  119 ar
@<TRIPOS>SUBSTRUCTURE
     1 RES1 1

@<TRIPOS>CRYSIN
  15.5738   17.2429   18.2439  90.0000  90.8160  90.0000  14 1

