# MOL2 file generated by ConQuest
# Please check atom types

@<TRIPOS>MOLECULE
BILQUK
    57    63     1
SMALL
NO_CHARGES
****
Generated from CSD

@<TRIPOS>ATOM
      1 C1        -0.6735   -7.0219    1.5105 C.3       1 RES1    0.0000
      2 H1        -0.6865   -7.1176    0.5545 H         1 RES1    0.0000
      3 H2        -1.5359   -7.2496    1.8661 H         1 RES1    0.0000
      4 H3        -0.0090   -7.6072    1.8817 H         1 RES1    0.0000
      5 C2        -0.3440   -5.6006    1.8673 C.ar      1 RES1    0.0000
      6 C3        -0.1107   -5.2388    3.1849 C.ar      1 RES1    0.0000
      7 H4        -0.1205   -5.8892    3.8503 H         1 RES1    0.0000
      8 C4         0.1372   -3.9233    3.5200 C.ar      1 RES1    0.0000
      9 H5         0.2880   -3.6981    4.4096 H         1 RES1    0.0000
     10 C5         0.1662   -2.9289    2.5472 C.ar      1 RES1    0.0000
     11 C6        -0.0302   -3.3023    1.2272 C.ar      1 RES1    0.0000
     12 H6         0.0141   -2.6609    0.5557 H         1 RES1    0.0000
     13 C7        -0.2876   -4.6100    0.9029 C.ar      1 RES1    0.0000
     14 H7        -0.4283   -4.8357    0.0121 H         1 RES1    0.0000
     15 C8         0.3797   -1.5612    2.9269 C.1       1 RES1    0.0000
     16 C9         0.5019   -0.4408    3.2958 C.1       1 RES1    0.0000
     17 C10        0.6494    0.8995    3.7864 C.2       1 RES1    0.0000
     18 C11        1.6490    1.1798    4.8279 C.ar      1 RES1    0.0000
     19 C12        1.7955    2.4929    5.3330 C.ar      1 RES1    0.0000
     20 C13        0.9977    3.5836    4.8653 C.ar      1 RES1    0.0000
     21 C14        0.0696    3.3039    3.7755 C.2       1 RES1    0.0000
     22 C15       -0.0988    1.9260    3.3175 C.2       1 RES1    0.0000
     23 C16       -1.1615    1.9451    2.2952 C.ar      1 RES1    0.0000
     24 C17       -1.5728    3.2677    2.1566 C.ar      1 RES1    0.0000
     25 C18       -0.7741    4.1165    3.0559 C.2       1 RES1    0.0000
     26 C19       -2.5911    3.6066    1.2887 C.ar      1 RES1    0.0000
     27 H8        -2.8830    4.4869    1.2199 H         1 RES1    0.0000
     28 C20       -3.1722    2.6030    0.5171 C.ar      1 RES1    0.0000
     29 H9        -3.8585    2.8148   -0.0735 H         1 RES1    0.0000
     30 C21       -2.7366    1.2988    0.6220 C.ar      1 RES1    0.0000
     31 H10       -3.1243    0.6395    0.0928 H         1 RES1    0.0000
     32 C22       -1.7321    0.9626    1.5032 C.ar      1 RES1    0.0000
     33 H11       -1.4395    0.0825    1.5671 H         1 RES1    0.0000
     34 C23       -0.8290    5.5858    2.9763 C.ar      1 RES1    0.0000
     35 C24        0.3266    6.3101    2.6593 C.ar      1 RES1    0.0000
     36 H12        1.1377    5.8634    2.5761 H         1 RES1    0.0000
     37 C25        0.2815    7.6617    2.4700 C.ar      1 RES1    0.0000
     38 H13        1.0625    8.1218    2.2627 H         1 RES1    0.0000
     39 C26       -0.9012    8.3503    2.5821 C.ar      1 RES1    0.0000
     40 H14       -0.9235    9.2699    2.4471 H         1 RES1    0.0000
     41 C27       -2.0412    7.6724    2.8943 C.ar      1 RES1    0.0000
     42 H15       -2.8439    8.1347    2.9775 H         1 RES1    0.0000
     43 C28       -2.0159    6.2955    3.0872 C.ar      1 RES1    0.0000
     44 H16       -2.8041    5.8443    3.2921 H         1 RES1    0.0000
     45 C29        2.4438    0.1621    5.3354 C.ar      1 RES1    0.0000
     46 H17        2.3367   -0.7046    5.0148 H         1 RES1    0.0000
     47 C30        3.4036    0.4148    6.3215 C.ar      1 RES1    0.0000
     48 H18        3.9478   -0.2747    6.6289 H         1 RES1    0.0000
     49 C31        3.5400    1.6616    6.8278 C.ar      1 RES1    0.0000
     50 H19        4.1708    1.8140    7.4932 H         1 RES1    0.0000
     51 C32        2.7502    2.7340    6.3721 C.ar      1 RES1    0.0000
     52 C33        2.8652    4.0275    6.9074 C.ar      1 RES1    0.0000
     53 H20        3.5004    4.1934    7.5668 H         1 RES1    0.0000
     54 C34        2.0681    5.0425    6.4806 C.ar      1 RES1    0.0000
     55 H21        2.1479    5.8892    6.8579 H         1 RES1    0.0000
     56 C35        1.1293    4.8079    5.4765 C.ar      1 RES1    0.0000
     57 H22        0.5730    5.5045    5.2113 H         1 RES1    0.0000
@<TRIPOS>BOND
     1    1    2 1
     2    3    1 1
     3    4    1 1
     4    5    1 1
     5    6    5 ar
     6    7    6 1
     7    8    6 ar
     8    9    8 1
     9   10    8 ar
    10   11   10 ar
    11   12   11 1
    12   13    5 ar
    13   14   13 1
    14   15   10 1
    15   16   15 3
    16   17   16 1
    17   18   17 1
    18   19   18 ar
    19   20   19 ar
    20   21   20 1
    21   22   17 2
    22   23   22 1
    23   24   23 ar
    24   25   21 2
    25   26   24 ar
    26   27   26 1
    27   28   26 ar
    28   29   28 1
    29   30   28 ar
    30   31   30 1
    31   32   23 ar
    32   33   32 1
    33   34   25 1
    34   35   34 ar
    35   36   35 1
    36   37   35 ar
    37   38   37 1
    38   39   37 ar
    39   40   39 1
    40   41   39 ar
    41   42   41 1
    42   43   34 ar
    43   44   43 1
    44   45   18 ar
    45   46   45 1
    46   47   45 ar
    47   48   47 1
    48   49   47 ar
    49   50   49 1
    50   51   19 ar
    51   52   51 ar
    52   53   52 1
    53   54   52 ar
    54   55   54 1
    55   56   20 ar
    56   57   56 1
    57   11   13 ar
    58   21   22 1
    59   24   25 1
    60   30   32 ar
    61   41   43 ar
    62   49   51 ar
    63   54   56 ar
@<TRIPOS>SUBSTRUCTURE
     1 RES1 1

@<TRIPOS>CRYSIN
  10.0910   10.6000   12.7950  71.8160  89.7320  67.7880   2 1

