# MOL2 file generated by ConQuest
# Please check atom types

@<TRIPOS>MOLECULE
BILRAR
    54    60     1
SMALL
NO_CHARGES
****
Generated from CSD

@<TRIPOS>ATOM
      1 C1        15.7972   17.4353    5.4372 C.ar      1 RES1    0.0000
      2 H1        14.9055   17.1771    5.4966 H         1 RES1    0.0000
      3 C2        16.7627   16.6628    6.0309 C.ar      1 RES1    0.0000
      4 H2        16.5285   15.8661    6.4528 H         1 RES1    0.0000
      5 C3        18.0633   17.0601    6.0000 C.ar      1 RES1    0.0000
      6 H3        18.7140   16.5547    6.4300 H         1 RES1    0.0000
      7 C4        18.4123   18.2055    5.3329 C.ar      1 RES1    0.0000
      8 H4        19.3017   18.4748    5.3110 H         1 RES1    0.0000
      9 C5        17.4436   18.9681    4.6912 C.ar      1 RES1    0.0000
     10 H5        17.6872   19.7306    4.2196 H         1 RES1    0.0000
     11 C6        16.1196   18.5882    4.7547 C.ar      1 RES1    0.0000
     12 C7        15.0929   19.3474    4.0958 C.1       1 RES1    0.0000
     13 C8        14.2087   19.9650    3.5827 C.1       1 RES1    0.0000
     14 C9        13.1545   20.7257    2.9589 C.2       1 RES1    0.0000
     15 C10       13.4775   22.0022    2.3285 C.ar      1 RES1    0.0000
     16 C11       14.7561   22.5257    2.3480 C.ar      1 RES1    0.0000
     17 H6        15.4236   22.0546    2.7927 H         1 RES1    0.0000
     18 C12       15.0853   23.7164    1.7380 C.ar      1 RES1    0.0000
     19 H7        15.9631   24.0232    1.7592 H         1 RES1    0.0000
     20 C13       14.1190   24.4483    1.0987 C.ar      1 RES1    0.0000
     21 H8        14.3393   25.2569    0.6972 H         1 RES1    0.0000
     22 C14       12.7773   23.9713    1.0490 C.ar      1 RES1    0.0000
     23 C15       11.7680   24.7180    0.3901 C.ar      1 RES1    0.0000
     24 H9        11.9781   25.5306   -0.0090 H         1 RES1    0.0000
     25 C16       10.4851   24.2435    0.3412 C.ar      1 RES1    0.0000
     26 H10        9.8284   24.7361   -0.0945 H         1 RES1    0.0000
     27 C17       10.1550   23.0267    0.9382 C.ar      1 RES1    0.0000
     28 H11        9.2786   22.7211    0.8845 H         1 RES1    0.0000
     29 C18       11.0927   22.2627    1.6085 C.ar      1 RES1    0.0000
     30 C19       12.4423   22.7451    1.6672 C.ar      1 RES1    0.0000
     31 C20       10.7864   20.9908    2.2609 C.2       1 RES1    0.0000
     32 C21       11.8677   20.2503    2.9295 C.2       1 RES1    0.0000
     33 C22       11.2852   19.0250    3.4777 C.ar      1 RES1    0.0000
     34 C23       11.7845   18.0058    4.2782 C.ar      1 RES1    0.0000
     35 H12       12.6853   17.9893    4.5104 H         1 RES1    0.0000
     36 C24       10.9242   17.0067    4.7311 C.ar      1 RES1    0.0000
     37 H13       11.2490   16.3362    5.2890 H         1 RES1    0.0000
     38 C25        9.5965   17.0014    4.3613 C.ar      1 RES1    0.0000
     39 H14        9.0413   16.3164    4.6570 H         1 RES1    0.0000
     40 C26        9.0813   17.9972    3.5591 C.ar      1 RES1    0.0000
     41 H15        8.1855   17.9826    3.3091 H         1 RES1    0.0000
     42 C27        9.9197   19.0296    3.1258 C.ar      1 RES1    0.0000
     43 C28        9.6244   20.2512    2.3716 C.2       1 RES1    0.0000
     44 C29        8.2266   20.5558    1.9424 C.ar      1 RES1    0.0000
     45 C30        7.5615   19.7032    1.0466 C.ar      1 RES1    0.0000
     46 H16        8.0166   18.9868    0.6654 H         1 RES1    0.0000
     47 C31        6.2306   19.9204    0.7265 C.ar      1 RES1    0.0000
     48 H17        5.8005   19.3554    0.1262 H         1 RES1    0.0000
     49 C32        5.5399   20.9740    1.2950 C.ar      1 RES1    0.0000
     50 H18        4.6469   21.1188    1.0799 H         1 RES1    0.0000
     51 C33        6.1782   21.7990    2.1754 C.ar      1 RES1    0.0000
     52 H19        5.7178   22.5092    2.5598 H         1 RES1    0.0000
     53 C34        7.5108   21.5820    2.4987 C.ar      1 RES1    0.0000
     54 H20        7.9271   22.1472    3.1079 H         1 RES1    0.0000
@<TRIPOS>BOND
     1    1    2 1
     2    3    1 ar
     3    4    3 1
     4    5    3 ar
     5    6    5 1
     6    7    5 ar
     7    8    7 1
     8    9    7 ar
     9   10    9 1
    10   11    1 ar
    11   12   11 1
    12   13   12 3
    13   14   13 1
    14   15   14 1
    15   16   15 ar
    16   17   16 1
    17   18   16 ar
    18   19   18 1
    19   20   18 ar
    20   21   20 1
    21   22   20 ar
    22   23   22 ar
    23   24   23 1
    24   25   23 ar
    25   26   25 1
    26   27   25 ar
    27   28   27 1
    28   29   27 ar
    29   30   15 ar
    30   31   29 1
    31   32   14 2
    32   33   32 1
    33   34   33 ar
    34   35   34 1
    35   36   34 ar
    36   37   36 1
    37   38   36 ar
    38   39   38 1
    39   40   38 ar
    40   41   40 1
    41   42   33 ar
    42   43   31 2
    43   44   43 1
    44   45   44 ar
    45   46   45 1
    46   47   45 ar
    47   48   47 1
    48   49   47 ar
    49   50   49 1
    50   51   49 ar
    51   52   51 1
    52   53   44 ar
    53   54   53 1
    54    9   11 ar
    55   22   30 ar
    56   29   30 ar
    57   31   32 1
    58   40   42 ar
    59   42   43 1
    60   51   53 ar
@<TRIPOS>SUBSTRUCTURE
     1 RES1 1

@<TRIPOS>CRYSIN
  12.5590   22.0700    8.1610  90.0000  93.6560  90.0000  14 1

