# MOL2 file generated by ConQuest
# Please check atom types

@<TRIPOS>MOLECULE
BINAPH12
    34    37     1
SMALL
NO_CHARGES
****
Generated from CSD

@<TRIPOS>ATOM
      1 C1        18.3557    2.4908    7.3084 C.ar      1 RES1    0.0000
      2 C2        17.6369    1.4867    6.5803 C.ar      1 RES1    0.0000
      3 C3        18.2889    0.4309    5.8884 C.ar      1 RES1    0.0000
      4 H1        19.2374    0.3794    5.9065 H         1 RES1    0.0000
      5 C4        17.5771   -0.5178    5.1916 C.ar      1 RES1    0.0000
      6 H2        18.0330   -1.2140    4.7341 H         1 RES1    0.0000
      7 C5        16.1700   -0.4555    5.1593 C.ar      1 RES1    0.0000
      8 H3        15.6791   -1.1132    4.6815 H         1 RES1    0.0000
      9 C6        15.5083    0.5430    5.8101 C.ar      1 RES1    0.0000
     10 H4        14.5591    0.5702    5.7808 H         1 RES1    0.0000
     11 C7        16.2134    1.5434    6.5314 C.ar      1 RES1    0.0000
     12 C8        15.5396    2.6042    7.1890 C.ar      1 RES1    0.0000
     13 H5        14.5916    2.6529    7.1529 H         1 RES1    0.0000
     14 C9        16.2381    3.5554    7.8701 C.ar      1 RES1    0.0000
     15 H6        15.7753    4.2615    8.3063 H         1 RES1    0.0000
     16 C10       17.6473    3.4950    7.9318 C.ar      1 RES1    0.0000
     17 H7        18.1190    4.1629    8.4147 H         1 RES1    0.0000
     18 C1A       19.8502    2.4908    7.3710 C.ar      1 RES1    0.0000
     19 C2A       20.5690    1.4867    8.0991 C.ar      1 RES1    0.0000
     20 C3A       19.9170    0.4309    8.7910 C.ar      1 RES1    0.0000
     21 H1A       18.9685    0.3794    8.7729 H         1 RES1    0.0000
     22 C4A       20.6288   -0.5178    9.4878 C.ar      1 RES1    0.0000
     23 H2A       20.1729   -1.2140    9.9454 H         1 RES1    0.0000
     24 C5A       22.0359   -0.4555    9.5201 C.ar      1 RES1    0.0000
     25 H3A       22.5268   -1.1132    9.9980 H         1 RES1    0.0000
     26 C6A       22.6976    0.5430    8.8693 C.ar      1 RES1    0.0000
     27 H4A       23.6468    0.5702    8.8987 H         1 RES1    0.0000
     28 C7A       21.9925    1.5434    8.1481 C.ar      1 RES1    0.0000
     29 C8A       22.6663    2.6042    7.4904 C.ar      1 RES1    0.0000
     30 H5A       23.6143    2.6529    7.5266 H         1 RES1    0.0000
     31 C9A       21.9678    3.5554    6.8093 C.ar      1 RES1    0.0000
     32 H6A       22.4306    4.2615    6.3731 H         1 RES1    0.0000
     33 C10A      20.5586    3.4950    6.7477 C.ar      1 RES1    0.0000
     34 H7A       20.0869    4.1629    6.2647 H         1 RES1    0.0000
@<TRIPOS>BOND
     1    1    2 ar
     2    2    3 ar
     3    3    4 1
     4    5    3 ar
     5    6    5 1
     6    7    5 ar
     7    8    7 1
     8    9    7 ar
     9   10    9 1
    10   11    2 ar
    11   12   11 ar
    12   13   12 1
    13   14   12 ar
    14   15   14 1
    15   16    1 ar
    16   17   16 1
    17   18    1 1
    18   19   18 ar
    19   20   19 ar
    20   21   20 1
    21   22   20 ar
    22   23   22 1
    23   24   22 ar
    24   25   24 1
    25   26   24 ar
    26   27   26 1
    27   28   19 ar
    28   29   28 ar
    29   30   29 1
    30   31   29 ar
    31   32   31 1
    32   33   18 ar
    33   34   33 1
    34    9   11 ar
    35   14   16 ar
    36   26   28 ar
    37   31   33 ar
@<TRIPOS>SUBSTRUCTURE
     1 RES1 1

@<TRIPOS>CRYSIN
  21.0710    6.2995   10.1320  90.0000 105.0100  90.0000  15 1

