# MOL2 file generated by ConQuest
# Please check atom types

@<TRIPOS>MOLECULE
BINAPH17
    34    37     1
SMALL
NO_CHARGES
****
Generated from CSD

@<TRIPOS>ATOM
      1 C1         8.4589    1.6287    1.6845 C.ar      1 RES1    0.0000
      2 C2         8.9732    0.6213    2.3382 C.ar      1 RES1    0.0000
      3 C3         8.3939   -0.3843    3.0670 C.ar      1 RES1    0.0000
      4 H1         8.8665   -0.9862    3.5960 H         1 RES1    0.0000
      5 C4         6.8177   -0.3930    2.8838 C.ar      1 RES1    0.0000
      6 H2         6.3123   -1.0960    3.2374 H         1 RES1    0.0000
      7 C5         6.2223    0.5564    2.2671 C.ar      1 RES1    0.0000
      8 H3         5.2928    0.5720    2.2379 H         1 RES1    0.0000
      9 C6         6.9714    1.6125    1.6065 C.ar      1 RES1    0.0000
     10 C7         6.1306    2.5501    0.8914 C.ar      1 RES1    0.0000
     11 H4         5.2024    2.4915    0.8885 H         1 RES1    0.0000
     12 C8         6.8020    3.5245    0.2241 C.ar      1 RES1    0.0000
     13 H5         6.3368    4.1214   -0.3088 H         1 RES1    0.0000
     14 C9         8.2526    3.6455    0.3303 C.ar      1 RES1    0.0000
     15 H6         8.6691    4.3772   -0.0662 H         1 RES1    0.0000
     16 C10        9.0389    2.7142    0.9996 C.ar      1 RES1    0.0000
     17 H7         9.9631    2.8096    0.9937 H         1 RES1    0.0000
     18 C1A       11.1506    1.6287    3.1868 C.ar      1 RES1    0.0000
     19 C2A       10.6363    0.6213    2.5331 C.ar      1 RES1    0.0000
     20 C3A       11.2155   -0.3843    1.8043 C.ar      1 RES1    0.0000
     21 H1A       10.7429   -0.9862    1.2753 H         1 RES1    0.0000
     22 C4A       12.7918   -0.3930    1.9875 C.ar      1 RES1    0.0000
     23 H2A       13.2972   -1.0960    1.6338 H         1 RES1    0.0000
     24 C5A       13.3872    0.5564    2.6042 C.ar      1 RES1    0.0000
     25 H3A       14.3166    0.5720    2.6334 H         1 RES1    0.0000
     26 C6A       12.6380    1.6125    3.2647 C.ar      1 RES1    0.0000
     27 C7A       13.4789    2.5501    3.9798 C.ar      1 RES1    0.0000
     28 H4A       14.4071    2.4915    3.9827 H         1 RES1    0.0000
     29 C8A       12.8074    3.5245    4.6472 C.ar      1 RES1    0.0000
     30 H5A       13.2727    4.1214    5.1801 H         1 RES1    0.0000
     31 C9A       11.3568    3.6455    4.5410 C.ar      1 RES1    0.0000
     32 H6A       10.9404    4.3772    4.9375 H         1 RES1    0.0000
     33 C10A      10.5706    2.7142    3.8717 C.ar      1 RES1    0.0000
     34 H7A        9.6464    2.8096    3.8775 H         1 RES1    0.0000
@<TRIPOS>BOND
     1    1    2 ar
     2    2    3 ar
     3    3    4 1
     4    5    3 ar
     5    6    5 1
     6    7    5 ar
     7    8    7 1
     8    9    1 ar
     9   10    9 ar
    10   11   10 1
    11   12   10 ar
    12   13   12 1
    13   14   12 ar
    14   15   14 1
    15   16    1 ar
    16   17   16 1
    17   18   19 ar
    18   19    2 1
    19   20   19 ar
    20   21   20 1
    21   22   20 ar
    22   23   22 1
    23   24   22 ar
    24   25   24 1
    25   26   18 ar
    26   27   26 ar
    27   28   27 1
    28   29   27 ar
    29   30   29 1
    30   31   29 ar
    31   32   31 1
    32   33   18 ar
    33   34   33 1
    34    7    9 ar
    35   14   16 ar
    36   24   26 ar
    37   31   33 ar
@<TRIPOS>SUBSTRUCTURE
     1 RES1 1

@<TRIPOS>CRYSIN
  20.9220    6.2380   10.0900  90.0000 105.0800  90.0000  15 1

