# MOL2 file generated by ConQuest
# Please check atom types

@<TRIPOS>MOLECULE
BINAPH01
    34    37     1
SMALL
NO_CHARGES
****
Generated from CSD

@<TRIPOS>ATOM
      1 C1         9.1512    2.4930    2.4367 C.ar      1 RES1    0.0000
      2 C2         8.4438    3.4951    3.0628 C.ar      1 RES1    0.0000
      3 C3         7.0374    3.5541    3.0046 C.ar      1 RES1    0.0000
      4 C4         6.3378    2.6129    2.3203 C.ar      1 RES1    0.0000
      5 C5         7.0148    1.5532    1.6586 C.ar      1 RES1    0.0000
      6 C6         6.3035    0.5556    0.9388 C.ar      1 RES1    0.0000
      7 C7         6.9730   -0.4433    0.2820 C.ar      1 RES1    0.0000
      8 C8         8.3630   -0.4921    0.3195 C.ar      1 RES1    0.0000
      9 C9         9.0810    0.4376    1.0068 C.ar      1 RES1    0.0000
     10 C10        8.4247    1.4929    1.7069 C.ar      1 RES1    0.0000
     11 H1         8.9592    4.2174    3.6584 H         1 RES1    0.0000
     12 H2         6.5886    4.2935    3.4415 H         1 RES1    0.0000
     13 H3         5.2485    2.5875    2.1990 H         1 RES1    0.0000
     14 H4         5.2876    0.5898    0.9269 H         1 RES1    0.0000
     15 H5         6.4736   -1.1479   -0.1578 H         1 RES1    0.0000
     16 H6         8.7815   -1.1923    0.0099 H         1 RES1    0.0000
     17 H7        10.1064    0.3615    1.0748 H         1 RES1    0.0000
     18 C1B       10.6361    2.4930    2.4938 C.ar      1 RES1    0.0000
     19 C2B       11.3435    3.4951    1.8677 C.ar      1 RES1    0.0000
     20 C10B      11.3627    1.4929    3.2236 C.ar      1 RES1    0.0000
     21 C3B       12.7499    3.5541    1.9259 C.ar      1 RES1    0.0000
     22 H1B       10.8282    4.2174    1.2721 H         1 RES1    0.0000
     23 C5B       12.7726    1.5532    3.2719 C.ar      1 RES1    0.0000
     24 C9B       10.7063    0.4376    3.9237 C.ar      1 RES1    0.0000
     25 C4B       13.4495    2.6129    2.6102 C.ar      1 RES1    0.0000
     26 H2B       13.1988    4.2935    1.4890 H         1 RES1    0.0000
     27 C6B       13.4839    0.5556    3.9917 C.ar      1 RES1    0.0000
     28 C8B       11.4243   -0.4921    4.6110 C.ar      1 RES1    0.0000
     29 H7B        9.6809    0.3615    3.8557 H         1 RES1    0.0000
     30 H3B       14.5388    2.5875    2.7315 H         1 RES1    0.0000
     31 C7B       12.8144   -0.4433    4.6485 C.ar      1 RES1    0.0000
     32 H4B       14.4998    0.5898    4.0036 H         1 RES1    0.0000
     33 H6B       11.0058   -1.1923    4.9206 H         1 RES1    0.0000
     34 H5B       13.3137   -1.1479    5.0883 H         1 RES1    0.0000
@<TRIPOS>BOND
     1    1    2 ar
     2    2    3 ar
     3    3    4 ar
     4    4    5 ar
     5    5    6 ar
     6    6    7 ar
     7    7    8 ar
     8    8    9 ar
     9    9   10 ar
    10   10    1 ar
    11   11    2 1
    12   12    3 1
    13   13    4 1
    14   14    6 1
    15   15    7 1
    16   16    8 1
    17   17    9 1
    18   18    1 1
    19   19   18 ar
    20   20   18 ar
    21   21   19 ar
    22   22   19 1
    23   23   20 ar
    24   24   20 ar
    25   25   21 ar
    26   26   21 1
    27   27   23 ar
    28   28   24 ar
    29   29   24 1
    30   30   25 1
    31   31   27 ar
    32   32   27 1
    33   33   28 1
    34   34   31 1
    35    5   10 ar
    36   23   25 ar
    37   28   31 ar
@<TRIPOS>SUBSTRUCTURE
     1 RES1 1

@<TRIPOS>CRYSIN
  21.1260    6.3420   10.2180  90.0000 105.1900  90.0000  15 1

