# MOL2 file generated by ConQuest
# Please check atom types

@<TRIPOS>MOLECULE
BINAPH15
    34    37     1
SMALL
NO_CHARGES
****
Generated from CSD

@<TRIPOS>ATOM
      1 C1         8.4544    1.6730    1.7069 C.ar      1 RES1    0.0000
      2 C2         9.1576    0.6818    2.4290 C.ar      1 RES1    0.0000
      3 C3         8.4625   -0.3165    3.0174 C.ar      1 RES1    0.0000
      4 H1         8.9255   -0.9836    3.4709 H         1 RES1    0.0000
      5 C4         7.0196   -0.3773    2.9632 C.ar      1 RES1    0.0000
      6 H2         6.5670   -1.0648    3.3961 H         1 RES1    0.0000
      7 C5         6.3203    0.5682    2.2815 C.ar      1 RES1    0.0000
      8 H3         5.3946    0.5238    2.2362 H         1 RES1    0.0000
      9 C6         7.0149    1.6191    1.6400 C.ar      1 RES1    0.0000
     10 C7         6.3056    2.6142    0.9090 C.ar      1 RES1    0.0000
     11 H4         5.3778    2.5850    0.8638 H         1 RES1    0.0000
     12 C8         6.9809    3.5940    0.2843 C.ar      1 RES1    0.0000
     13 H5         6.5064    4.2460   -0.1810 H         1 RES1    0.0000
     14 C9         8.3598    3.6562    0.3178 C.ar      1 RES1    0.0000
     15 H6         8.7975    4.3322   -0.1466 H         1 RES1    0.0000
     16 C10        9.0994    2.7321    1.0301 C.ar      1 RES1    0.0000
     17 H7        10.0262    2.8076    1.0635 H         1 RES1    0.0000
     18 C1A       11.3442    1.6730    3.2121 C.ar      1 RES1    0.0000
     19 C2A       10.6410    0.6818    2.4900 C.ar      1 RES1    0.0000
     20 C3A       11.3360   -0.3165    1.9017 C.ar      1 RES1    0.0000
     21 H1A       10.8731   -0.9836    1.4482 H         1 RES1    0.0000
     22 C4A       12.7790   -0.3773    1.9558 C.ar      1 RES1    0.0000
     23 H2A       13.2315   -1.0648    1.5229 H         1 RES1    0.0000
     24 C5A       13.4783    0.5682    2.6376 C.ar      1 RES1    0.0000
     25 H3A       14.4040    0.5238    2.6829 H         1 RES1    0.0000
     26 C6A       12.7837    1.6191    3.2790 C.ar      1 RES1    0.0000
     27 C7A       13.4930    2.6142    4.0100 C.ar      1 RES1    0.0000
     28 H4A       14.4208    2.5850    4.0553 H         1 RES1    0.0000
     29 C8A       12.8177    3.5940    4.6347 C.ar      1 RES1    0.0000
     30 H5A       13.2922    4.2460    5.1001 H         1 RES1    0.0000
     31 C9A       11.4388    3.6562    4.6013 C.ar      1 RES1    0.0000
     32 H6A       11.0011    4.3322    5.0657 H         1 RES1    0.0000
     33 C10A      10.6992    2.7321    3.8890 C.ar      1 RES1    0.0000
     34 H7A        9.7724    2.8076    3.8556 H         1 RES1    0.0000
@<TRIPOS>BOND
     1    1    2 ar
     2    2    3 ar
     3    3    4 1
     4    5    3 ar
     5    6    5 1
     6    7    5 ar
     7    8    7 1
     8    9    1 ar
     9   10    9 ar
    10   11   10 1
    11   12   10 ar
    12   13   12 1
    13   14   12 ar
    14   15   14 1
    15   16    1 ar
    16   17   16 1
    17   18   19 ar
    18   19    2 1
    19   20   19 ar
    20   21   20 1
    21   22   20 ar
    22   23   22 1
    23   24   22 ar
    24   25   24 1
    25   26   18 ar
    26   27   26 ar
    27   28   27 1
    28   29   27 ar
    29   30   29 1
    30   31   29 ar
    31   32   31 1
    32   33   18 ar
    33   34   33 1
    34    7    9 ar
    35   14   16 ar
    36   24   26 ar
    37   31   33 ar
@<TRIPOS>SUBSTRUCTURE
     1 RES1 1

@<TRIPOS>CRYSIN
  21.1240    6.3420   10.1890  90.0000 105.0800  90.0000  15 1

