# MOL2 file generated by ConQuest
# Please check atom types

@<TRIPOS>MOLECULE
BINAPH13
    34    37     1
SMALL
NO_CHARGES
****
Generated from CSD

@<TRIPOS>ATOM
      1 C1         7.8153    0.6760    7.3544 C.ar      1 RES1    0.0000
      2 C2         7.1115   -0.3250    7.9818 C.ar      1 RES1    0.0000
      3 H1         7.5750   -0.9769    8.4555 H         1 RES1    0.0000
      4 C3         5.7052   -0.3852    7.9236 C.ar      1 RES1    0.0000
      5 H2         5.2529   -1.0745    8.3550 H         1 RES1    0.0000
      6 C4         5.0074    0.5575    7.2411 C.ar      1 RES1    0.0000
      7 H3         4.0803    0.5087    7.2086 H         1 RES1    0.0000
      8 C5         4.9740    2.6146    5.8579 C.ar      1 RES1    0.0000
      9 H4         4.0442    2.5893    5.8317 H         1 RES1    0.0000
     10 C6         5.6320    3.6080    5.2056 C.ar      1 RES1    0.0000
     11 H5         5.1521    4.2517    4.7365 H         1 RES1    0.0000
     12 C7         7.0329    3.6644    5.2392 C.ar      1 RES1    0.0000
     13 H6         7.4790    4.3436    4.7877 H         1 RES1    0.0000
     14 C8         7.7434    2.7274    5.9301 C.ar      1 RES1    0.0000
     15 H7         8.6719    2.7800    5.9449 H         1 RES1    0.0000
     16 C9         7.0980    1.6776    6.6252 C.ar      1 RES1    0.0000
     17 C10        5.6754    1.6149    6.5782 C.ar      1 RES1    0.0000
     18 C1A        9.3082    0.6760    7.4194 C.ar      1 RES1    0.0000
     19 C2A       10.0120   -0.3250    6.7920 C.ar      1 RES1    0.0000
     20 H1A        9.5485   -0.9769    6.3182 H         1 RES1    0.0000
     21 C3A       11.4183   -0.3852    6.8501 C.ar      1 RES1    0.0000
     22 H2A       11.8707   -1.0745    6.4187 H         1 RES1    0.0000
     23 C4A       12.1161    0.5575    7.5326 C.ar      1 RES1    0.0000
     24 H3A       13.0432    0.5087    7.5651 H         1 RES1    0.0000
     25 C5A       12.1495    2.6146    8.9158 C.ar      1 RES1    0.0000
     26 H4A       13.0794    2.5893    8.9420 H         1 RES1    0.0000
     27 C6A       11.4915    3.6080    9.5682 C.ar      1 RES1    0.0000
     28 H5A       11.9714    4.2517   10.0373 H         1 RES1    0.0000
     29 C7A       10.0906    3.6644    9.5346 C.ar      1 RES1    0.0000
     30 H6A        9.6445    4.3436    9.9861 H         1 RES1    0.0000
     31 C8A        9.3801    2.7274    8.8437 C.ar      1 RES1    0.0000
     32 H7A        8.4516    2.7800    8.8288 H         1 RES1    0.0000
     33 C9A       10.0255    1.6776    8.1485 C.ar      1 RES1    0.0000
     34 C10A      11.4481    1.6149    8.1956 C.ar      1 RES1    0.0000
@<TRIPOS>BOND
     1    1    2 ar
     2    2    3 1
     3    4    2 ar
     4    5    4 1
     5    6    4 ar
     6    7    6 1
     7    8    9 1
     8   10    8 ar
     9   11   10 1
    10   12   10 ar
    11   13   12 1
    12   14   12 ar
    13   15   14 1
    14   16    1 ar
    15   17    6 ar
    16   18    1 1
    17   19   18 ar
    18   20   19 1
    19   21   19 ar
    20   22   21 1
    21   23   21 ar
    22   24   23 1
    23   25   26 1
    24   27   25 ar
    25   28   27 1
    26   29   27 ar
    27   30   29 1
    28   31   29 ar
    29   32   31 1
    30   33   18 ar
    31   34   23 ar
    32    8   17 ar
    33   14   16 ar
    34   16   17 ar
    35   25   34 ar
    36   31   33 ar
    37   33   34 ar
@<TRIPOS>SUBSTRUCTURE
     1 RES1 1

@<TRIPOS>CRYSIN
  21.1070    6.3354   10.2009  90.0000 105.0900  90.0000  15 1

