# MOL2 file generated by ConQuest
# Please check atom types

@<TRIPOS>MOLECULE
BINAPH16
    34    37     1
SMALL
NO_CHARGES
****
Generated from CSD

@<TRIPOS>ATOM
      1 C1         8.3785    1.6557    1.6722 C.ar      1 RES1    0.0000
      2 C2         9.1413    0.6753    2.4357 C.ar      1 RES1    0.0000
      3 C3         8.3954   -0.3562    3.0451 C.ar      1 RES1    0.0000
      4 H1         8.8493   -1.0271    3.5015 H         1 RES1    0.0000
      5 C4         7.0103   -0.4073    2.9872 C.ar      1 RES1    0.0000
      6 H2         6.5559   -1.0964    3.4141 H         1 RES1    0.0000
      7 C5         6.3045    0.5574    2.3013 C.ar      1 RES1    0.0000
      8 H3         5.3748    0.5176    2.2650 H         1 RES1    0.0000
      9 C6         6.9822    1.5908    1.6634 C.ar      1 RES1    0.0000
     10 C7         6.2734    2.6033    0.9421 C.ar      1 RES1    0.0000
     11 H4         5.3439    2.5882    0.9205 H         1 RES1    0.0000
     12 C8         6.9501    3.5939    0.2846 C.ar      1 RES1    0.0000
     13 H5         6.4733    4.2370   -0.1884 H         1 RES1    0.0000
     14 C9         8.3147    3.6569    0.3091 C.ar      1 RES1    0.0000
     15 H6         8.7479    4.3460   -0.1403 H         1 RES1    0.0000
     16 C10        9.0606    2.7149    0.9872 C.ar      1 RES1    0.0000
     17 H7         9.9882    2.7666    1.0000 H         1 RES1    0.0000
     18 C1A       11.3606    1.6557    3.2346 C.ar      1 RES1    0.0000
     19 C2A       10.5978    0.6753    2.4711 C.ar      1 RES1    0.0000
     20 C3A       11.3437   -0.3562    1.8616 C.ar      1 RES1    0.0000
     21 H1A       10.8898   -1.0271    1.4053 H         1 RES1    0.0000
     22 C4A       12.7289   -0.4073    1.9195 C.ar      1 RES1    0.0000
     23 H2A       13.1833   -1.0964    1.4926 H         1 RES1    0.0000
     24 C5A       13.4347    0.5574    2.6055 C.ar      1 RES1    0.0000
     25 H3A       14.3643    0.5176    2.6418 H         1 RES1    0.0000
     26 C6A       12.7569    1.5908    3.2434 C.ar      1 RES1    0.0000
     27 C7A       13.4658    2.6033    3.9647 C.ar      1 RES1    0.0000
     28 H4A       14.3952    2.5882    3.9863 H         1 RES1    0.0000
     29 C8A       12.7890    3.5939    4.6222 C.ar      1 RES1    0.0000
     30 H5A       13.2658    4.2370    5.0952 H         1 RES1    0.0000
     31 C9A       11.4244    3.6569    4.5977 C.ar      1 RES1    0.0000
     32 H6A       10.9913    4.3460    5.0471 H         1 RES1    0.0000
     33 C10A      10.6786    2.7149    3.9195 C.ar      1 RES1    0.0000
     34 H7A        9.7510    2.7666    3.9068 H         1 RES1    0.0000
@<TRIPOS>BOND
     1    1    2 ar
     2    2    3 ar
     3    3    4 1
     4    5    3 ar
     5    6    5 1
     6    7    5 ar
     7    8    7 1
     8    9    1 ar
     9   10    9 ar
    10   11   10 1
    11   12   10 ar
    12   13   12 1
    13   14   12 ar
    14   15   14 1
    15   16    1 ar
    16   17   16 1
    17   18   19 ar
    18   19    2 1
    19   20   19 ar
    20   21   20 1
    21   22   20 ar
    22   23   22 1
    23   24   22 ar
    24   25   24 1
    25   26   18 ar
    26   27   26 ar
    27   28   27 1
    28   29   27 ar
    29   30   29 1
    30   31   29 ar
    31   32   31 1
    32   33   18 ar
    33   34   33 1
    34    7    9 ar
    35   14   16 ar
    36   24   26 ar
    37   31   33 ar
@<TRIPOS>SUBSTRUCTURE
     1 RES1 1

@<TRIPOS>CRYSIN
  21.0640    6.3050   10.1650  90.0000 105.1100  90.0000  15 1

