# MOL2 file generated by ConQuest
# Please check atom types

@<TRIPOS>MOLECULE
BINAPH14
    34    37     1
SMALL
NO_CHARGES
****
Generated from CSD

@<TRIPOS>ATOM
      1 C1         9.1570    0.6793    2.4343 C.ar      1 RES1    0.0000
      2 C2         8.4520   -0.3209    3.0614 C.ar      1 RES1    0.0000
      3 H1         8.9152   -0.9736    3.5336 H         1 RES1    0.0000
      4 C3         7.0435   -0.3812    3.0059 C.ar      1 RES1    0.0000
      5 H2         6.5925   -1.0694    3.4388 H         1 RES1    0.0000
      6 C4         6.3457    0.5620    2.3229 C.ar      1 RES1    0.0000
      7 H3         5.4181    0.5144    2.2922 H         1 RES1    0.0000
      8 C5         6.3141    2.6164    0.9381 C.ar      1 RES1    0.0000
      9 H4         5.3842    2.5929    0.9137 H         1 RES1    0.0000
     10 C6         6.9706    3.6084    0.2832 C.ar      1 RES1    0.0000
     11 H5         6.4910    4.2515   -0.1885 H         1 RES1    0.0000
     12 C7         8.3725    3.6623    0.3179 C.ar      1 RES1    0.0000
     13 H6         8.8204    4.3409   -0.1342 H         1 RES1    0.0000
     14 C8         9.0818    2.7299    1.0082 C.ar      1 RES1    0.0000
     15 H7        10.0109    2.7832    1.0233 H         1 RES1    0.0000
     16 C9         8.4357    1.6776    1.7046 C.ar      1 RES1    0.0000
     17 C10        7.0149    1.6161    1.6577 C.ar      1 RES1    0.0000
     18 C1A       10.6481    0.6793    2.4994 C.ar      1 RES1    0.0000
     19 C2A       11.3531   -0.3209    1.8724 C.ar      1 RES1    0.0000
     20 H1A       10.8900   -0.9736    1.4002 H         1 RES1    0.0000
     21 C3A       12.7617   -0.3812    1.9278 C.ar      1 RES1    0.0000
     22 H2A       13.2126   -1.0694    1.4949 H         1 RES1    0.0000
     23 C4A       13.4594    0.5620    2.6108 C.ar      1 RES1    0.0000
     24 H3A       14.3871    0.5144    2.6415 H         1 RES1    0.0000
     25 C5A       13.4910    2.6164    3.9957 C.ar      1 RES1    0.0000
     26 H4A       14.4210    2.5929    4.0200 H         1 RES1    0.0000
     27 C6A       12.8345    3.6084    4.6506 C.ar      1 RES1    0.0000
     28 H5A       13.3141    4.2515    5.1222 H         1 RES1    0.0000
     29 C7A       11.4326    3.6623    4.6158 C.ar      1 RES1    0.0000
     30 H6A       10.9847    4.3409    5.0680 H         1 RES1    0.0000
     31 C8A       10.7233    2.7299    3.9256 C.ar      1 RES1    0.0000
     32 H7A        9.7942    2.7832    3.9105 H         1 RES1    0.0000
     33 C9A       11.3694    1.6776    3.2291 C.ar      1 RES1    0.0000
     34 C10A      12.7903    1.6161    3.2760 C.ar      1 RES1    0.0000
@<TRIPOS>BOND
     1    1    2 ar
     2    2    3 1
     3    4    2 ar
     4    5    4 1
     5    6    4 ar
     6    7    6 1
     7    8    9 1
     8   10    8 ar
     9   11   10 1
    10   12   10 ar
    11   13   12 1
    12   14   12 ar
    13   15   14 1
    14   16    1 ar
    15   17    6 ar
    16   18    1 1
    17   19   18 ar
    18   20   19 1
    19   21   19 ar
    20   22   21 1
    21   23   21 ar
    22   24   23 1
    23   25   26 1
    24   27   25 ar
    25   28   27 1
    26   29   27 ar
    27   30   29 1
    28   31   29 ar
    29   32   31 1
    30   33   18 ar
    31   34   23 ar
    32    8   17 ar
    33   14   16 ar
    34   16   17 ar
    35   25   34 ar
    36   31   33 ar
    37   33   34 ar
@<TRIPOS>SUBSTRUCTURE
     1 RES1 1

@<TRIPOS>CRYSIN
  21.1362    6.3427   10.2203  90.0000 105.0980  90.0000  15 1

