# MOL2 file generated by ConQuest
# Please check atom types

@<TRIPOS>MOLECULE
BINAPH11
    34    37     1
SMALL
NO_CHARGES
****
Generated from CSD

@<TRIPOS>ATOM
      1 C1         9.0858    0.6448    2.4003 C.ar      1 RES1    0.0000
      2 C2         8.3840   -0.3591    3.0251 C.ar      1 RES1    0.0000
      3 H1         8.8462   -1.0129    3.4976 H         1 RES1    0.0000
      4 C3         6.9727   -0.4174    2.9635 C.ar      1 RES1    0.0000
      5 H2         6.5195   -1.1074    3.3915 H         1 RES1    0.0000
      6 C4         6.2739    0.5327    2.2798 C.ar      1 RES1    0.0000
      7 H3         5.3452    0.4849    2.2448 H         1 RES1    0.0000
      8 C5         6.9478    1.5934    1.6223 C.ar      1 RES1    0.0000
      9 C6         6.2479    2.5962    0.9033 C.ar      1 RES1    0.0000
     10 H4         5.3190    2.5726    0.8751 H         1 RES1    0.0000
     11 C7         6.9118    3.5943    0.2515 C.ar      1 RES1    0.0000
     12 H5         6.4349    4.2405   -0.2171 H         1 RES1    0.0000
     13 C8         8.3227    3.6462    0.2884 C.ar      1 RES1    0.0000
     14 H6         8.7733    4.3237   -0.1616 H         1 RES1    0.0000
     15 C9         9.0284    2.7038    0.9833 C.ar      1 RES1    0.0000
     16 H7         9.9573    2.7546    1.0036 H         1 RES1    0.0000
     17 C10        8.3753    1.6513    1.6727 C.ar      1 RES1    0.0000
     18 C1B       10.5838    0.6448    2.4669 C.ar      1 RES1    0.0000
     19 C2B       11.2856   -0.3591    1.8422 C.ar      1 RES1    0.0000
     20 H1B       10.8234   -1.0129    1.3697 H         1 RES1    0.0000
     21 C3B       12.6969   -0.4174    1.9038 C.ar      1 RES1    0.0000
     22 H2B       13.1501   -1.1074    1.4758 H         1 RES1    0.0000
     23 C4B       13.3957    0.5327    2.5874 C.ar      1 RES1    0.0000
     24 H3B       14.3244    0.4849    2.6225 H         1 RES1    0.0000
     25 C5B       12.7218    1.5934    3.2450 C.ar      1 RES1    0.0000
     26 C6B       13.4217    2.5962    3.9640 C.ar      1 RES1    0.0000
     27 H4B       14.3506    2.5726    3.9921 H         1 RES1    0.0000
     28 C7B       12.7577    3.5943    4.6157 C.ar      1 RES1    0.0000
     29 H5B       13.2346    4.2405    5.0844 H         1 RES1    0.0000
     30 C8B       11.3469    3.6462    4.5788 C.ar      1 RES1    0.0000
     31 H6B       10.8963    4.3237    5.0289 H         1 RES1    0.0000
     32 C9B       10.6412    2.7038    3.8840 C.ar      1 RES1    0.0000
     33 H7B        9.7123    2.7546    3.8636 H         1 RES1    0.0000
     34 C10B      11.2942    1.6513    3.1946 C.ar      1 RES1    0.0000
@<TRIPOS>BOND
     1    1    2 ar
     2    2    3 1
     3    4    2 ar
     4    5    4 1
     5    6    4 ar
     6    7    6 1
     7    8    6 ar
     8    9    8 ar
     9   10    9 1
    10   11    9 ar
    11   12   11 1
    12   13   11 ar
    13   14   13 1
    14   15   13 ar
    15   16   15 1
    16   17    1 ar
    17   18    1 1
    18   19   18 ar
    19   20   19 1
    20   21   19 ar
    21   22   21 1
    22   23   21 ar
    23   24   23 1
    24   25   23 ar
    25   26   25 ar
    26   27   26 1
    27   28   26 ar
    28   29   28 1
    29   30   28 ar
    30   31   30 1
    31   32   30 ar
    32   33   32 1
    33   34   18 ar
    34    8   17 ar
    35   15   17 ar
    36   25   34 ar
    37   32   34 ar
@<TRIPOS>SUBSTRUCTURE
     1 RES1 1

@<TRIPOS>CRYSIN
  20.9940    6.2563   10.0885  90.0000 105.2220  90.0000  15 1

