# MOL2 file generated by ConQuest
# Please check atom types

@<TRIPOS>MOLECULE
BINAPH22
    34    37     1
SMALL
NO_CHARGES
****
Generated from CSD

@<TRIPOS>ATOM
      1 C1         8.2550    1.5671    1.5741 C.ar      1 RES1    0.0000
      2 C2         8.9150    0.5574    2.3407 C.ar      1 RES1    0.0000
      3 C3         8.1915   -0.4390    2.9306 C.ar      1 RES1    0.0000
      4 H1         8.6441   -1.1293    3.3581 H         1 RES1    0.0000
      5 C4         6.6623   -0.4632    2.9173 C.ar      1 RES1    0.0000
      6 H2         6.1866   -1.1178    3.3762 H         1 RES1    0.0000
      7 C5         6.0362    0.4886    2.2220 C.ar      1 RES1    0.0000
      8 H3         5.1093    0.4433    2.1507 H         1 RES1    0.0000
      9 C6         6.6847    1.5309    1.6054 C.ar      1 RES1    0.0000
     10 C7         6.0336    2.5509    0.8740 C.ar      1 RES1    0.0000
     11 H4         5.1045    2.5479    0.8255 H         1 RES1    0.0000
     12 C8         6.7274    3.5443    0.2346 C.ar      1 RES1    0.0000
     13 H5         6.2576    4.2104   -0.2128 H         1 RES1    0.0000
     14 C9         8.2207    3.5841    0.2365 C.ar      1 RES1    0.0000
     15 H6         8.6840    4.2460   -0.2223 H         1 RES1    0.0000
     16 C10        8.8732    2.6209    0.9329 C.ar      1 RES1    0.0000
     17 H7         9.8000    2.6741    0.9823 H         1 RES1    0.0000
     18 C1A       11.0171    1.5671    3.1757 C.ar      1 RES1    0.0000
     19 C2A       10.3570    0.5574    2.4091 C.ar      1 RES1    0.0000
     20 C3A       11.0806   -0.4390    1.8192 C.ar      1 RES1    0.0000
     21 H1A       10.6279   -1.1293    1.3917 H         1 RES1    0.0000
     22 C4A       12.6098   -0.4632    1.8325 C.ar      1 RES1    0.0000
     23 H2A       13.0854   -1.1178    1.3736 H         1 RES1    0.0000
     24 C5A       13.2358    0.4886    2.5279 C.ar      1 RES1    0.0000
     25 H3A       14.1627    0.4433    2.5991 H         1 RES1    0.0000
     26 C6A       12.5873    1.5309    3.1444 C.ar      1 RES1    0.0000
     27 C7A       13.2385    2.5509    3.8759 C.ar      1 RES1    0.0000
     28 H4A       14.1675    2.5479    3.9243 H         1 RES1    0.0000
     29 C8A       12.5446    3.5443    4.5152 C.ar      1 RES1    0.0000
     30 H5A       13.0144    4.2104    4.9626 H         1 RES1    0.0000
     31 C9A       11.0514    3.5841    4.5133 C.ar      1 RES1    0.0000
     32 H6A       10.5881    4.2460    4.9721 H         1 RES1    0.0000
     33 C10A      10.3988    2.6209    3.8170 C.ar      1 RES1    0.0000
     34 H7A        9.4721    2.6741    3.7676 H         1 RES1    0.0000
@<TRIPOS>BOND
     1    1    2 ar
     2    2    3 ar
     3    3    4 1
     4    5    3 ar
     5    6    5 1
     6    7    5 ar
     7    8    7 1
     8    9    1 ar
     9   10    9 ar
    10   11   10 1
    11   12   10 ar
    12   13   12 1
    13   14   12 ar
    14   15   14 1
    15   16    1 ar
    16   17   16 1
    17   18   19 ar
    18   19    2 1
    19   20   19 ar
    20   21   20 1
    21   22   20 ar
    22   23   22 1
    23   24   22 ar
    24   25   24 1
    25   26   18 ar
    26   27   26 ar
    27   28   27 1
    28   29   27 ar
    29   30   29 1
    30   31   29 ar
    31   32   31 1
    32   33   18 ar
    33   34   33 1
    34    7    9 ar
    35   14   16 ar
    36   24   26 ar
    37   31   33 ar
@<TRIPOS>SUBSTRUCTURE
     1 RES1 1

@<TRIPOS>CRYSIN
  20.5750    6.0390    9.8506  90.0000 105.3400  90.0000  15 1

