# MOL2 file generated by ConQuest
# Please check atom types

@<TRIPOS>MOLECULE
BINAPH19
    34    37     1
SMALL
NO_CHARGES
****
Generated from CSD

@<TRIPOS>ATOM
      1 C1         8.4072    1.6267    1.6049 C.ar      1 RES1    0.0000
      2 C2         9.1134    0.5944    2.3745 C.ar      1 RES1    0.0000
      3 C3         8.3051   -0.3890    2.9821 C.ar      1 RES1    0.0000
      4 H1         8.7318   -1.0811    3.4328 H         1 RES1    0.0000
      5 C4         6.7323   -0.4020    2.9502 C.ar      1 RES1    0.0000
      6 H2         6.2341   -1.0484    3.3969 H         1 RES1    0.0000
      7 C5         6.1652    0.5536    2.2582 C.ar      1 RES1    0.0000
      8 H3         5.2382    0.5672    2.1622 H         1 RES1    0.0000
      9 C6         6.9605    1.5827    1.6447 C.ar      1 RES1    0.0000
     10 C7         6.1231    2.5563    0.9139 C.ar      1 RES1    0.0000
     11 H4         5.1985    2.4598    0.8858 H         1 RES1    0.0000
     12 C8         6.7033    3.5502    0.3111 C.ar      1 RES1    0.0000
     13 H5         6.1871    4.2163   -0.0785 H         1 RES1    0.0000
     14 C9         8.2785    3.6256    0.2345 C.ar      1 RES1    0.0000
     15 H6         8.7205    4.2677   -0.2733 H         1 RES1    0.0000
     16 C10        8.9469    2.6948    0.9595 C.ar      1 RES1    0.0000
     17 H7         9.8685    2.7975    1.0215 H         1 RES1    0.0000
     18 C1A       11.0834    1.6267    3.2409 C.ar      1 RES1    0.0000
     19 C2A       10.3772    0.5944    2.4714 C.ar      1 RES1    0.0000
     20 C3A       11.1855   -0.3890    1.8637 C.ar      1 RES1    0.0000
     21 H1A       10.7588   -1.0811    1.4131 H         1 RES1    0.0000
     22 C4A       12.7583   -0.4020    1.8957 C.ar      1 RES1    0.0000
     23 H2A       13.2565   -1.0484    1.4489 H         1 RES1    0.0000
     24 C5A       13.3254    0.5536    2.5877 C.ar      1 RES1    0.0000
     25 H3A       14.2523    0.5672    2.6836 H         1 RES1    0.0000
     26 C6A       12.5301    1.5827    3.2012 C.ar      1 RES1    0.0000
     27 C7A       13.3675    2.5563    3.9319 C.ar      1 RES1    0.0000
     28 H4A       14.2921    2.4598    3.9600 H         1 RES1    0.0000
     29 C8A       12.7873    3.5502    4.5347 C.ar      1 RES1    0.0000
     30 H5A       13.3035    4.2163    4.9244 H         1 RES1    0.0000
     31 C9A       11.2121    3.6256    4.6113 C.ar      1 RES1    0.0000
     32 H6A       10.7701    4.2677    5.1192 H         1 RES1    0.0000
     33 C10A      10.5437    2.6948    3.8864 C.ar      1 RES1    0.0000
     34 H7A        9.6220    2.7975    3.8243 H         1 RES1    0.0000
@<TRIPOS>BOND
     1    1    2 ar
     2    2    3 ar
     3    3    4 1
     4    5    3 ar
     5    6    5 1
     6    7    5 ar
     7    8    7 1
     8    9    1 ar
     9   10    9 ar
    10   11   10 1
    11   12   10 ar
    12   13   12 1
    13   14   12 ar
    14   15   14 1
    15   16    1 ar
    16   17   16 1
    17   18   19 ar
    18   19    2 1
    19   20   19 ar
    20   21   20 1
    21   22   20 ar
    22   23   22 1
    23   24   22 ar
    24   25   24 1
    25   26   18 ar
    26   27   26 ar
    27   28   27 1
    28   29   27 ar
    29   30   29 1
    30   31   29 ar
    31   32   31 1
    32   33   18 ar
    33   34   33 1
    34    7    9 ar
    35   14   16 ar
    36   24   26 ar
    37   31   33 ar
@<TRIPOS>SUBSTRUCTURE
     1 RES1 1

@<TRIPOS>CRYSIN
  20.8090    6.1850   10.0440  90.0000 105.2200  90.0000  15 1

