# MOL2 file generated by ConQuest
# Please check atom types

@<TRIPOS>MOLECULE
BINAPH23
    34    37     1
SMALL
NO_CHARGES
****
Generated from CSD

@<TRIPOS>ATOM
      1 C1         8.0499    1.5191    1.5901 C.ar      1 RES1    0.0000
      2 C2         8.7700    0.5222    2.3058 C.ar      1 RES1    0.0000
      3 C3         8.0707   -0.4569    2.9142 C.ar      1 RES1    0.0000
      4 H1         8.5162   -1.1126    3.3985 H         1 RES1    0.0000
      5 C4         6.7661   -0.5103    2.8348 C.ar      1 RES1    0.0000
      6 H2         6.3282   -1.2200    3.2510 H         1 RES1    0.0000
      7 C5         5.9394    0.4498    2.1574 C.ar      1 RES1    0.0000
      8 H3         5.0122    0.4094    2.1229 H         1 RES1    0.0000
      9 C6         6.7416    1.5072    1.5238 C.ar      1 RES1    0.0000
     10 C7         6.0109    2.5208    0.8389 C.ar      1 RES1    0.0000
     11 H4         5.0826    2.5344    0.8230 H         1 RES1    0.0000
     12 C8         6.7830    3.4892    0.1960 C.ar      1 RES1    0.0000
     13 H5         6.3232    4.1241   -0.3098 H         1 RES1    0.0000
     14 C9         8.0125    3.5723    0.2519 C.ar      1 RES1    0.0000
     15 H6         8.4337    4.2932   -0.1558 H         1 RES1    0.0000
     16 C10        8.8027    2.5849    0.9062 C.ar      1 RES1    0.0000
     17 H7         9.7317    2.6116    0.9051 H         1 RES1    0.0000
     18 C1A       11.0671    1.5191    3.0756 C.ar      1 RES1    0.0000
     19 C2A       10.3470    0.5222    2.3599 C.ar      1 RES1    0.0000
     20 C3A       11.0463   -0.4569    1.7515 C.ar      1 RES1    0.0000
     21 H1A       10.6008   -1.1126    1.2672 H         1 RES1    0.0000
     22 C4A       12.3509   -0.5103    1.8308 C.ar      1 RES1    0.0000
     23 H2A       12.7887   -1.2200    1.4146 H         1 RES1    0.0000
     24 C5A       13.1775    0.4498    2.5082 C.ar      1 RES1    0.0000
     25 H3A       14.1048    0.4094    2.5428 H         1 RES1    0.0000
     26 C6A       12.3754    1.5072    3.1418 C.ar      1 RES1    0.0000
     27 C7A       13.1060    2.5208    3.8268 C.ar      1 RES1    0.0000
     28 H4A       14.0344    2.5344    3.8426 H         1 RES1    0.0000
     29 C8A       12.3339    3.4892    4.4697 C.ar      1 RES1    0.0000
     30 H5A       12.7938    4.1241    4.9754 H         1 RES1    0.0000
     31 C9A       11.1044    3.5723    4.4137 C.ar      1 RES1    0.0000
     32 H6A       10.6832    4.2932    4.8215 H         1 RES1    0.0000
     33 C10A      10.3142    2.5849    3.7595 C.ar      1 RES1    0.0000
     34 H7A        9.3853    2.6116    3.7605 H         1 RES1    0.0000
@<TRIPOS>BOND
     1    1    2 ar
     2    2    3 ar
     3    3    4 1
     4    5    3 ar
     5    6    5 1
     6    7    5 ar
     7    8    7 1
     8    9    1 ar
     9   10    9 ar
    10   11   10 1
    11   12   10 ar
    12   13   12 1
    13   14   12 ar
    14   15   14 1
    15   16    1 ar
    16   17   16 1
    17   18   19 ar
    18   19    2 1
    19   20   19 ar
    20   21   20 1
    21   22   20 ar
    22   23   22 1
    23   24   22 ar
    24   25   24 1
    25   26   18 ar
    26   27   26 ar
    27   28   27 1
    28   29   27 ar
    29   30   29 1
    30   31   29 ar
    31   32   31 1
    32   33   18 ar
    33   34   33 1
    34    7    9 ar
    35   14   16 ar
    36   24   26 ar
    37   31   33 ar
@<TRIPOS>SUBSTRUCTURE
     1 RES1 1

@<TRIPOS>CRYSIN
  20.4100    5.9340    9.6830  90.0000 105.4900  90.0000  15 1

