# MOL2 file generated by ConQuest
# Please check atom types

@<TRIPOS>MOLECULE
BINAPH10
    34    37     1
SMALL
NO_CHARGES
****
Generated from CSD

@<TRIPOS>ATOM
      1 C1         0.0742    0.6729    2.4734 C.ar      1 RES1    0.0000
      2 C2         2.2052    1.6193    3.2431 C.ar      1 RES1    0.0000
      3 C3         0.7755   -0.3216    1.8562 C.ar      1 RES1    0.0000
      4 C4         2.1766   -0.3878    1.9084 C.ar      1 RES1    0.0000
      5 C5         2.8736    0.5584    2.5923 C.ar      1 RES1    0.0000
      6 C6         2.8948    2.6215    3.9627 C.ar      1 RES1    0.0000
      7 C7         2.2536    3.6128    4.6090 C.ar      1 RES1    0.0000
      8 C8         0.8514    3.6734    4.5786 C.ar      1 RES1    0.0000
      9 C9         0.1522    2.7324    3.8912 C.ar      1 RES1    0.0000
     10 C10        0.7908    1.6784    3.2003 C.ar      1 RES1    0.0000
     11 H1         0.2771   -0.9677    1.3072 H         1 RES1    0.0000
     12 H2         2.6314   -1.0624    1.4607 H         1 RES1    0.0000
     13 H3         3.8614    0.5251    2.6193 H         1 RES1    0.0000
     14 H4         3.7956    2.5444    3.9528 H         1 RES1    0.0000
     15 H5         2.7454    4.3377    5.0792 H         1 RES1    0.0000
     16 H6         0.3695    4.3942    5.0518 H         1 RES1    0.0000
     17 H7        -0.7375    2.7445    3.8961 H         1 RES1    0.0000
     18 C1B       -1.3996    0.6729    2.4151 C.ar      1 RES1    0.0000
     19 C3B       -2.1009   -0.3216    3.0323 C.ar      1 RES1    0.0000
     20 C10B      -2.1162    1.6784    1.6882 C.ar      1 RES1    0.0000
     21 C4B       -3.5020   -0.3878    2.9801 C.ar      1 RES1    0.0000
     22 H1B       -1.6025   -0.9677    3.5813 H         1 RES1    0.0000
     23 C2B       -3.5306    1.6193    1.6454 C.ar      1 RES1    0.0000
     24 C9B       -1.4776    2.7324    0.9974 C.ar      1 RES1    0.0000
     25 C5B       -4.1990    0.5584    2.2962 C.ar      1 RES1    0.0000
     26 H2B       -3.9568   -1.0624    3.4278 H         1 RES1    0.0000
     27 C6B       -4.2202    2.6215    0.9258 C.ar      1 RES1    0.0000
     28 C8B       -2.1768    3.6734    0.3099 C.ar      1 RES1    0.0000
     29 H7B       -0.5880    2.7445    0.9924 H         1 RES1    0.0000
     30 H3B       -5.1868    0.5251    2.2692 H         1 RES1    0.0000
     31 C7B       -3.5790    3.6128    0.2795 C.ar      1 RES1    0.0000
     32 H4B       -5.1210    2.5444    0.9357 H         1 RES1    0.0000
     33 H6B       -1.6950    4.3942   -0.1633 H         1 RES1    0.0000
     34 H5B       -4.0709    4.3377   -0.1907 H         1 RES1    0.0000
@<TRIPOS>BOND
     1    1    3 ar
     2    2    5 ar
     3    3    4 ar
     4    4    5 ar
     5    5   13 1
     6    6    2 ar
     7    7    6 ar
     8    8    7 ar
     9    9    8 ar
    10   10    1 ar
    11   11    3 1
    12   12    4 1
    13   14    6 1
    14   15    7 1
    15   16    8 1
    16   17    9 1
    17   18    1 1
    18   19   18 ar
    19   20   18 ar
    20   21   19 ar
    21   22   19 1
    22   23   20 ar
    23   24   20 ar
    24   25   21 ar
    25   26   21 1
    26   27   23 ar
    27   28   24 ar
    28   29   24 1
    29   30   25 1
    30   31   27 ar
    31   32   27 1
    32   33   28 1
    33   34   31 1
    34    2   10 ar
    35    9   10 ar
    36   23   25 ar
    37   28   31 ar
@<TRIPOS>SUBSTRUCTURE
     1 RES1 1

@<TRIPOS>CRYSIN
  20.9800    6.3500   10.1300  90.0000 105.1700  90.0000  15 1

