# MOL2 file generated by ConQuest
# Please check atom types

@<TRIPOS>MOLECULE
BIPHEA
    48    58     2
SMALL
NO_CHARGES
****
Generated from CSD

@<TRIPOS>ATOM
      1 C1        13.2171    2.8481    6.5416 C.ar      1 RES1    0.0000
      2 C2        14.6031    3.0834    6.7874 C.ar      1 RES1    0.0000
      3 C3        15.0833    4.3068    7.3534 C.ar      1 RES1    0.0000
      4 C4        14.1268    5.3534    7.6219 C.ar      1 RES1    0.0000
      5 C5        10.6089    6.7441    7.4071 C.ar      1 RES1    0.0000
      6 C6         9.2742    6.5655    6.9609 C.ar      1 RES1    0.0000
      7 C7         8.8488    5.3842    6.4260 C.ar      1 RES1    0.0000
      8 C8         9.6847    4.2671    6.2731 C.ar      1 RES1    0.0000
      9 C9        10.9805    4.4231    6.7275 C.ar      1 RES1    0.0000
     10 C10       12.3675    3.8419    6.8515 C.ar      1 RES1    0.0000
     11 C11       12.8328    5.0886    7.3865 C.ar      1 RES1    0.0000
     12 C12       11.4299    5.6579    7.2666 C.ar      1 RES1    0.0000
     13 C13       15.5204    2.1191    6.3103 C.ar      1 RES1    0.0000
     14 C14       16.8434    2.3707    6.2938 C.ar      1 RES1    0.0000
     15 C15       17.3702    3.5715    6.8226 C.ar      1 RES1    0.0000
     16 C16       16.5183    4.4955    7.4753 C.ar      1 RES1    0.0000
     17 C17       18.7663    3.8325    6.6697 C.ar      1 RES1    0.0000
     18 C18       19.2945    4.9672    7.1138 C.ar      1 RES1    0.0000
     19 C19       18.5327    5.8698    7.9173 C.ar      1 RES1    0.0000
     20 C20       17.1422    5.6050    8.1879 C.ar      1 RES1    0.0000
     21 C21       19.1161    6.9832    8.5494 C.ar      1 RES1    0.0000
     22 C22       18.4668    7.7480    9.4520 C.ar      1 RES1    0.0000
     23 C23       17.1512    7.4071    9.8052 C.ar      1 RES1    0.0000
     24 C24       16.5035    6.3604    9.1856 C.ar      1 RES1    0.0000
     25 C25       12.3964    4.7244   16.3737 C.ar      2 RES2    0.0000
     26 C26       12.5574    5.1528   15.0001 C.ar      2 RES2    0.0000
     27 C27       13.1238    6.4095   14.6593 C.ar      2 RES2    0.0000
     28 C28       13.4387    7.3367   15.7272 C.ar      2 RES2    0.0000
     29 C29       13.4518    8.2273   19.3812 C.ar      2 RES2    0.0000
     30 C30       13.1523    7.8342   20.7321 C.ar      2 RES2    0.0000
     31 C31       12.7106    6.5649   21.0295 C.ar      2 RES2    0.0000
     32 C32       12.5191    5.5755   20.0628 C.ar      2 RES2    0.0000
     33 C33       12.8267    5.9428   18.7801 C.ar      2 RES2    0.0000
     34 C34       12.8131    5.5773   17.3259 C.ar      2 RES2    0.0000
     35 C35       13.2900    6.8920   17.0016 C.ar      2 RES2    0.0000
     36 C36       13.2862    7.2417   18.4579 C.ar      2 RES2    0.0000
     37 C37       12.0383    4.3187   13.9797 C.ar      2 RES2    0.0000
     38 C38       11.9953    4.7596   12.6970 C.ar      2 RES2    0.0000
     39 C39       12.5743    5.9975   12.3108 C.ar      2 RES2    0.0000
     40 C40       13.2519    6.7806   13.2692 C.ar      2 RES2    0.0000
     41 C41       12.4707    6.4435   10.9557 C.ar      2 RES2    0.0000
     42 C42       13.0150    7.5983   10.5571 C.ar      2 RES2    0.0000
     43 C43       13.8319    8.3726   11.4494 C.ar      2 RES2    0.0000
     44 C44       14.0286    7.9172   12.7796 C.ar      2 RES2    0.0000
     45 C45       14.5113    9.5155   10.9888 C.ar      2 RES2    0.0000
     46 C46       15.3982   10.1923   11.7737 C.ar      2 RES2    0.0000
     47 C47       15.6838    9.6803   13.0399 C.ar      2 RES2    0.0000
     48 C48       15.0317    8.5645   13.5191 C.ar      2 RES2    0.0000
@<TRIPOS>BOND
     1    1    2 ar
     2    2    3 ar
     3    3    4 ar
     4    4   11 ar
     5    5    6 ar
     6    6    7 ar
     7    7    8 ar
     8    8    9 ar
     9    9   10 1
    10   10    1 ar
    11   11   10 ar
    12   12    5 ar
    13   13    2 ar
    14   14   13 ar
    15   15   14 ar
    16   16    3 ar
    17   17   15 ar
    18   18   17 ar
    19   19   18 ar
    20   20   16 ar
    21   21   19 ar
    22   22   21 ar
    23   23   22 ar
    24   24   20 ar
    25   25   26 ar
    26   26   27 ar
    27   27   28 ar
    28   28   35 ar
    29   29   30 ar
    30   30   31 ar
    31   31   32 ar
    32   32   33 ar
    33   33   34 1
    34   34   25 ar
    35   35   34 ar
    36   36   29 ar
    37   37   26 ar
    38   38   37 ar
    39   39   38 ar
    40   40   27 ar
    41   41   39 ar
    42   42   41 ar
    43   43   42 ar
    44   44   40 ar
    45   45   43 ar
    46   46   45 ar
    47   47   46 ar
    48   48   44 ar
    49    9   12 ar
    50   11   12 1
    51   15   16 ar
    52   19   20 ar
    53   23   24 ar
    54   33   36 ar
    55   35   36 1
    56   39   40 ar
    57   43   44 ar
    58   47   48 ar
@<TRIPOS>SUBSTRUCTURE
     1 RES1 1
     2 RES2 25

@<TRIPOS>CRYSIN
  23.5390    6.2900   22.5050  90.0000 113.3900  90.0000 231 1

