# MOL2 file generated by ConQuest
# Please check atom types

@<TRIPOS>MOLECULE
BIPHEB
    28    34     1
SMALL
NO_CHARGES
****
Generated from CSD

@<TRIPOS>ATOM
      1 C1        -0.1487    6.7681    7.3220 C.ar      1 RES1    0.0000
      2 C2        -0.0759    6.4649    5.9147 C.ar      1 RES1    0.0000
      3 C3         0.6914    5.3729    5.4338 C.ar      1 RES1    0.0000
      4 C4         1.3183    4.4676    6.3708 C.ar      1 RES1    0.0000
      5 C5         1.8948    3.3505    9.9554 C.ar      1 RES1    0.0000
      6 C6         1.6394    3.6176   11.3449 C.ar      1 RES1    0.0000
      7 C7         0.9201    4.6823   11.7702 C.ar      1 RES1    0.0000
      8 C8         0.3934    5.6657   10.9161 C.ar      1 RES1    0.0000
      9 C9         0.6382    5.4193    9.5763 C.ar      1 RES1    0.0000
     10 C10        0.4174    5.8913    8.1560 C.ar      1 RES1    0.0000
     11 C11        1.1358    4.7217    7.6786 C.ar      1 RES1    0.0000
     12 C12        1.3516    4.2923    9.1226 C.ar      1 RES1    0.0000
     13 C13       -0.9226    7.1871    5.0322 C.ar      1 RES1    0.0000
     14 C14       -1.1130    6.7277    3.7670 C.ar      1 RES1    0.0000
     15 C15       -0.3965    5.6056    3.2446 C.ar      1 RES1    0.0000
     16 C16        0.6616    5.0598    4.0099 C.ar      1 RES1    0.0000
     17 C17       -0.7202    4.9850    2.0032 C.ar      1 RES1    0.0000
     18 C18       -0.0520    3.9011    1.5755 C.ar      1 RES1    0.0000
     19 C19        1.1351    3.4843    2.2247 C.ar      1 RES1    0.0000
     20 C20        1.5783    4.1759    3.3666 C.ar      1 RES1    0.0000
     21 C21        1.9301    2.4054    1.7046 C.ar      1 RES1    0.0000
     22 C22        3.1454    2.1338    2.1903 C.ar      1 RES1    0.0000
     23 C23        3.7730    3.0254    3.1380 C.ar      1 RES1    0.0000
     24 C24        2.9877    4.0535    3.7422 C.ar      1 RES1    0.0000
     25 C25        5.1713    2.9593    3.4045 C.ar      1 RES1    0.0000
     26 C26        5.7789    3.9181    4.1734 C.ar      1 RES1    0.0000
     27 C27        5.0213    4.9631    4.7254 C.ar      1 RES1    0.0000
     28 C28        3.6777    5.0210    4.5181 C.ar      1 RES1    0.0000
@<TRIPOS>BOND
     1    1    2 ar
     2    2    3 ar
     3    3    4 ar
     4    4   11 ar
     5    5    6 ar
     6    6    7 ar
     7    7    8 ar
     8    8    9 ar
     9    9   10 1
    10   10    1 ar
    11   11   10 ar
    12   12    5 ar
    13   13    2 ar
    14   14   13 ar
    15   15   14 ar
    16   16    3 ar
    17   17   15 ar
    18   18   17 ar
    19   19   18 ar
    20   20   16 ar
    21   21   19 ar
    22   22   21 ar
    23   23   22 ar
    24   24   20 ar
    25   25   23 ar
    26   26   25 ar
    27   27   26 ar
    28   28   24 ar
    29    9   12 ar
    30   11   12 1
    31   15   16 ar
    32   19   20 ar
    33   23   24 ar
    34   27   28 ar
@<TRIPOS>SUBSTRUCTURE
     1 RES1 1

@<TRIPOS>CRYSIN
  13.6560    5.4630   12.4500  90.0000 107.9200  90.0000   4 1

