# MOL2 file generated by ConQuest
# Please check atom types

@<TRIPOS>MOLECULE
BITSUS
    65    70     1
SMALL
NO_CHARGES
****
Generated from CSD

@<TRIPOS>ATOM
      1 C1         4.9464    3.3466    5.9138 C.ar      1 RES1    0.0000
      2 C2         4.3611    3.8674    4.7810 C.ar      1 RES1    0.0000
      3 C3         4.7100    5.1485    4.3371 C.ar      1 RES1    0.0000
      4 C4         5.6063    5.8843    5.0460 C.ar      1 RES1    0.0000
      5 C5         7.0065    6.2123    7.0506 C.ar      1 RES1    0.0000
      6 C6         7.3666    5.8156    8.2953 C.ar      1 RES1    0.0000
      7 C7         7.2339    4.1467   10.1920 C.ar      1 RES1    0.0000
      8 C8         6.7334    2.9322   10.6229 C.ar      1 RES1    0.0000
      9 C9         5.6554    0.6206    9.9910 C.3       1 RES1    0.0000
     10 C10        5.5305   -1.3364    8.2763 C.ar      1 RES1    0.0000
     11 C11        5.7535   -1.7553    6.9856 C.ar      1 RES1    0.0000
     12 C12        6.6197   -1.3364    4.7281 C.ar      1 RES1    0.0000
     13 C13        7.2596   -0.5208    3.8422 C.ar      1 RES1    0.0000
     14 C14        7.5784    0.8156    4.2062 C.ar      1 RES1    0.0000
     15 C15        7.1849    1.3098    5.4169 C.ar      1 RES1    0.0000
     16 C16        6.4926    0.5031    6.3567 C.ar      1 RES1    0.0000
     17 C17        6.2585   -0.8644    6.0178 C.ar      1 RES1    0.0000
     18 C18        6.1013    0.9353    7.6685 C.ar      1 RES1    0.0000
     19 C19        5.7223    0.0089    8.6123 C.ar      1 RES1    0.0000
     20 C20        6.2730    2.2407    8.3513 C.ar      1 RES1    0.0000
     21 C21        6.2351    2.0013    9.7161 C.ar      1 RES1    0.0000
     22 C22        6.4547    3.5705    7.9004 C.ar      1 RES1    0.0000
     23 C23        7.0366    4.5102    8.8252 C.ar      1 RES1    0.0000
     24 C24        5.9051    4.0713    6.6507 C.ar      1 RES1    0.0000
     25 C25        6.1894    5.3878    6.2178 C.ar      1 RES1    0.0000
     26 C26        7.9195    5.0908   11.2178 C.3       1 RES1    0.0000
     27 C27        9.3565    5.4322   10.7419 C.3       1 RES1    0.0000
     28 C28        7.0712    6.3741   11.4457 C.3       1 RES1    0.0000
     29 C29        8.0656    4.4149   12.6015 C.3       1 RES1    0.0000
     30 C30        4.2039    0.6959   10.6259 C.3       1 RES1    0.0000
     31 C31        3.2519    1.4362    9.6691 C.3       1 RES1    0.0000
     32 C32        4.2240    1.4339   11.9466 C.3       1 RES1    0.0000
     33 C33        3.6610   -0.7070   10.8728 C.3       1 RES1    0.0000
     34 H1         4.6822    2.4601    6.2188 H         1 RES1    0.0000
     35 H2         3.6788    3.3688    4.2192 H         1 RES1    0.0000
     36 H3         4.3254    5.5629    3.5793 H         1 RES1    0.0000
     37 H4         5.8750    6.8040    4.7091 H         1 RES1    0.0000
     38 H5         7.1793    7.1143    6.7786 H         1 RES1    0.0000
     39 H6         7.8370    6.4716    8.8982 H         1 RES1    0.0000
     40 H7         6.7334    2.7260   11.5777 H         1 RES1    0.0000
     41 H8         6.2875    0.1551   10.6179 H         1 RES1    0.0000
     42 H9         5.2619   -2.0168    9.0582 H         1 RES1    0.0000
     43 H10        5.6186   -2.7704    6.6787 H         1 RES1    0.0000
     44 H11        6.4547   -2.3271    4.4691 H         1 RES1    0.0000
     45 H12        7.4915   -0.8200    2.9794 H         1 RES1    0.0000
     46 H13        8.0934    1.3963    3.4893 H         1 RES1    0.0000
     47 H14        7.3911    2.2606    5.6589 H         1 RES1    0.0000
     48 H15        9.7879    5.9840   11.3877 H         1 RES1    0.0000
     49 H16        9.9106    4.5877   10.5979 H         1 RES1    0.0000
     50 H17        9.4535    5.9840    9.8780 H         1 RES1    0.0000
     51 H18        7.0121    6.9813   10.5479 H         1 RES1    0.0000
     52 H19        6.2429    6.0727   11.9176 H         1 RES1    0.0000
     53 H20        7.5806    6.9592   12.0876 H         1 RES1    0.0000
     54 H21        8.5617    5.0753   13.2074 H         1 RES1    0.0000
     55 H22        7.0901    4.2331   13.0574 H         1 RES1    0.0000
     56 H23        8.6508    3.5682   12.4975 H         1 RES1    0.0000
     57 H24        3.1549    0.9087    8.8282 H         1 RES1    0.0000
     58 H25        3.7123    2.5044    9.5281 H         1 RES1    0.0000
     59 H26        2.2519    1.4406   10.1680 H         1 RES1    0.0000
     60 H27        4.4369    2.4601   11.7776 H         1 RES1    0.0000
     61 H28        3.2998    1.3076   12.4075 H         1 RES1    0.0000
     62 H29        4.8940    1.1525   12.5875 H         1 RES1    0.0000
     63 H30        3.5785   -1.1525   10.0480 H         1 RES1    0.0000
     64 H31        2.8539   -0.7092   11.3977 H         1 RES1    0.0000
     65 H32        4.1471   -1.1746   11.4577 H         1 RES1    0.0000
@<TRIPOS>BOND
     1    1    2 ar
     2    2    3 ar
     3    3    4 ar
     4    4   25 ar
     5    5    6 ar
     6    6   23 ar
     7    7    8 ar
     8    8   21 ar
     9    9   19 1
    10   10   11 ar
    11   11   17 ar
    12   12   13 ar
    13   13   14 ar
    14   14   15 ar
    15   15   16 ar
    16   16   17 ar
    17   17   12 ar
    18   18   16 ar
    19   19   10 ar
    20   20   18 1
    21   21    9 1
    22   22   20 ar
    23   23    7 ar
    24   24    1 ar
    25   25    5 ar
    26   26    7 1
    27   27   26 1
    28   28   26 1
    29   29   26 1
    30   30    9 1
    31   31   30 1
    32   32   30 1
    33   33   30 1
    34   34    1 1
    35   35    2 1
    36   36    3 1
    37   37    4 1
    38   38    5 1
    39   39    6 1
    40   40    8 1
    41   41    9 1
    42   42   10 1
    43   43   11 1
    44   44   12 1
    45   45   13 1
    46   46   14 1
    47   47   15 1
    48   48   27 1
    49   49   27 1
    50   50   27 1
    51   51   28 1
    52   52   28 1
    53   53   28 1
    54   54   29 1
    55   55   29 1
    56   56   29 1
    57   57   31 1
    58   58   31 1
    59   59   31 1
    60   60   32 1
    61   61   32 1
    62   62   32 1
    63   63   33 1
    64   64   33 1
    65   65   33 1
    66   18   19 ar
    67   20   21 ar
    68   22   23 ar
    69   22   24 ar
    70   24   25 ar
@<TRIPOS>SUBSTRUCTURE
     1 RES1 1

@<TRIPOS>CRYSIN
  11.1480   22.1630    9.9980  90.0000  90.0000  90.0000  19 1

