# MOL2 file generated by ConQuest
# Please check atom types

@<TRIPOS>MOLECULE
BNFLAN
    18    22     1
SMALL
NO_CHARGES
****
Generated from CSD

@<TRIPOS>ATOM
      1 C1        -1.8887    2.0381    0.7138 C.ar      1 RES1    0.0000
      2 C2        -3.1687    2.6810    0.5785 C.ar      1 RES1    0.0000
      3 C3        -4.2804    2.4000    1.3907 C.ar      1 RES1    0.0000
      4 C4        -4.1542    1.4905    2.4615 C.ar      1 RES1    0.0000
      5 C5        -5.1276    0.9810    3.4092 C.ar      1 RES1    0.0000
      6 C6        -4.8550    0.0143    4.3692 C.ar      1 RES1    0.0000
      7 C7        -3.4973   -0.5952    4.4553 C.ar      1 RES1    0.0000
      8 C8        -2.9277   -1.6096    5.3538 C.ar      1 RES1    0.0000
      9 C9        -1.6113   -2.0191    5.2553 C.ar      1 RES1    0.0000
     10 C10       -0.7397   -1.4667    4.2215 C.ar      1 RES1    0.0000
     11 C11        0.6494   -1.7905    3.9384 C.ar      1 RES1    0.0000
     12 C12        1.2943   -1.1619    2.8553 C.ar      1 RES1    0.0000
     13 C13        0.6454   -0.1429    2.0554 C.ar      1 RES1    0.0000
     14 C14       -0.6569    0.1952    2.3015 C.ar      1 RES1    0.0000
     15 C15       -1.7426    1.0857    1.7600 C.ar      1 RES1    0.0000
     16 C16       -2.9106    0.9143    2.5477 C.ar      1 RES1    0.0000
     17 C17       -2.6198   -0.1429    3.5322 C.ar      1 RES1    0.0000
     18 C18       -1.2927   -0.5333    3.3969 C.ar      1 RES1    0.0000
@<TRIPOS>BOND
     1    1    2 ar
     2    2    3 ar
     3    3    4 ar
     4    4    5 ar
     5    5    6 ar
     6    6    7 ar
     7    7    8 ar
     8    8    9 ar
     9    9   10 ar
    10   10   11 ar
    11   11   12 ar
    12   12   13 ar
    13   13   14 ar
    14   14   15 1
    15   15    1 ar
    16   16    4 ar
    17   17    7 ar
    18   18   10 ar
    19   14   18 ar
    20   15   16 ar
    21   16   17 ar
    22   17   18 ar
@<TRIPOS>SUBSTRUCTURE
     1 RES1 1

@<TRIPOS>CRYSIN
  19.0300    4.7620   15.8100  90.0000 128.8800  90.0000  14 2

