# MOL2 file generated by ConQuest
# Please check atom types

@<TRIPOS>MOLECULE
BNPERY03
    34    39     1
SMALL
NO_CHARGES
****
Generated from CSD

@<TRIPOS>ATOM
      1 C1         6.2487    4.1577    5.8025 C.ar      1 RES1    0.0000
      2 H1         5.9747    4.8521    5.2480 H         1 RES1    0.0000
      3 C2         7.5544    4.1415    6.2853 C.ar      1 RES1    0.0000
      4 H2         8.1366    4.8282    6.0539 H         1 RES1    0.0000
      5 C3         7.9958    3.1221    7.1002 C.ar      1 RES1    0.0000
      6 H3         8.8698    3.1295    7.4177 H         1 RES1    0.0000
      7 C4         7.1336    2.0746    7.4520 C.ar      1 RES1    0.0000
      8 C5         7.5706    0.9789    8.2663 C.ar      1 RES1    0.0000
      9 H4         8.4478    0.9623    8.5753 H         1 RES1    0.0000
     10 C6         6.7346   -0.0273    8.5929 C.ar      1 RES1    0.0000
     11 H5         7.0474   -0.7268    9.1186 H         1 RES1    0.0000
     12 C7         5.3737   -0.0396    8.1453 C.ar      1 RES1    0.0000
     13 C8         4.4920   -1.0926    8.4733 C.ar      1 RES1    0.0000
     14 H6         4.7967   -1.7991    8.9957 H         1 RES1    0.0000
     15 C9         3.1967   -1.0898    8.0354 C.ar      1 RES1    0.0000
     16 H7         2.6364   -1.7967    8.2620 H         1 RES1    0.0000
     17 C10        2.6966   -0.0334    7.2448 C.ar      1 RES1    0.0000
     18 C11        1.3403   -0.0130    6.7874 C.ar      1 RES1    0.0000
     19 H8         0.7700   -0.7113    7.0142 H         1 RES1    0.0000
     20 C12        0.8756    1.0075    6.0294 C.ar      1 RES1    0.0000
     21 H9        -0.0128    1.0029    5.7541 H         1 RES1    0.0000
     22 C13        1.7245    2.0958    5.6430 C.ar      1 RES1    0.0000
     23 C14        1.2579    3.1461    4.8408 C.ar      1 RES1    0.0000
     24 H10        0.3697    3.1582    4.5661 H         1 RES1    0.0000
     25 C15        2.1065    4.1622    4.4554 C.ar      1 RES1    0.0000
     26 H11        1.7859    4.8497    3.9168 H         1 RES1    0.0000
     27 C16        3.4394    4.1708    4.8634 C.ar      1 RES1    0.0000
     28 H12        3.9963    4.8652    4.5920 H         1 RES1    0.0000
     29 C17        3.9524    3.1569    5.6710 C.ar      1 RES1    0.0000
     30 C18        5.3442    3.1493    6.1358 C.ar      1 RES1    0.0000
     31 C19        5.7914    2.0887    6.9737 C.ar      1 RES1    0.0000
     32 C20        4.9076    1.0236    7.3414 C.ar      1 RES1    0.0000
     33 C21        3.5581    1.0277    6.8881 C.ar      1 RES1    0.0000
     34 C22        3.0827    2.1010    6.0674 C.ar      1 RES1    0.0000
@<TRIPOS>BOND
     1    1    2 1
     2    3    1 ar
     3    4    3 1
     4    5    3 ar
     5    6    5 1
     6    7    5 ar
     7    8    7 ar
     8    9    8 1
     9   10    8 ar
    10   11   10 1
    11   12   10 ar
    12   13   12 ar
    13   14   13 1
    14   15   13 ar
    15   16   15 1
    16   17   15 ar
    17   18   17 ar
    18   19   18 1
    19   20   18 ar
    20   21   20 1
    21   22   20 ar
    22   23   22 ar
    23   24   23 1
    24   25   23 ar
    25   26   25 1
    26   27   25 ar
    27   28   27 1
    28   29   27 ar
    29   30    1 ar
    30   31    7 ar
    31   32   12 ar
    32   33   17 ar
    33   34   22 ar
    34   29   30 ar
    35   29   34 ar
    36   30   31 ar
    37   31   32 ar
    38   32   33 ar
    39   33   34 ar
@<TRIPOS>SUBSTRUCTURE
     1 RES1 1

@<TRIPOS>CRYSIN
   9.7377   11.9539   11.3813  90.0000  97.9680  90.0000  14 1

