# MOL2 file generated by ConQuest
# Please check atom types

@<TRIPOS>MOLECULE
BNPERY01
    22    27     1
SMALL
NO_CHARGES
****
Generated from CSD

@<TRIPOS>ATOM
      1 C1         1.3809   -2.0849    3.2836 C.ar      1 RES1    0.0000
      2 C2         2.1403   -1.0514    3.8568 C.ar      1 RES1    0.0000
      3 C3         2.6102   -0.0166    3.0811 C.ar      1 RES1    0.0000
      4 C4         2.4062    0.0345    1.6462 C.ar      1 RES1    0.0000
      5 C5         2.8579    1.0716    0.8432 C.ar      1 RES1    0.0000
      6 C6         2.6165    1.1025   -0.5135 C.ar      1 RES1    0.0000
      7 C7         1.8568    0.0962   -1.1474 C.ar      1 RES1    0.0000
      8 C8         1.6236    0.1069   -2.5745 C.ar      1 RES1    0.0000
      9 C9         0.8834   -0.8969   -3.1036 C.ar      1 RES1    0.0000
     10 C10        0.3382   -1.9614   -2.3495 C.ar      1 RES1    0.0000
     11 C11       -0.4324   -2.9795   -2.9256 C.ar      1 RES1    0.0000
     12 C12       -0.9116   -4.0356   -2.1421 C.ar      1 RES1    0.0000
     13 C13       -0.7020   -4.0665   -0.7375 C.ar      1 RES1    0.0000
     14 C14       -0.1357   -4.1295    2.0922 C.ar      1 RES1    0.0000
     15 C15        0.0634   -4.1604    3.4968 C.ar      1 RES1    0.0000
     16 C16        0.8437   -3.1328    4.0397 C.ar      1 RES1    0.0000
     17 C17        1.0906   -2.0600    1.8780 C.ar      1 RES1    0.0000
     18 C18        1.5970   -1.0003    1.0613 C.ar      1 RES1    0.0000
     19 C19        1.3434   -0.9694   -0.3316 C.ar      1 RES1    0.0000
     20 C20        0.5741   -1.9958   -0.9635 C.ar      1 RES1    0.0000
     21 C21        0.0638   -3.0448   -0.1761 C.ar      1 RES1    0.0000
     22 C22        0.3295   -3.0745    1.2774 C.ar      1 RES1    0.0000
@<TRIPOS>BOND
     1    1    2 ar
     2    2    3 ar
     3    3    4 ar
     4    4    5 ar
     5    5    6 ar
     6    6    7 ar
     7    7    8 ar
     8    8    9 ar
     9    9   10 ar
    10   10   11 ar
    11   11   12 ar
    12   12   13 ar
    13   13   21 ar
    14   14   15 ar
    15   15   16 ar
    16   16    1 ar
    17   17    1 ar
    18   18    4 ar
    19   19    7 ar
    20   20   10 ar
    21   21   20 ar
    22   22   14 ar
    23   17   18 ar
    24   17   22 ar
    25   18   19 ar
    26   19   20 ar
    27   21   22 ar
@<TRIPOS>SUBSTRUCTURE
     1 RES1 1

@<TRIPOS>CRYSIN
  11.7200   11.8800    9.8900  90.0000  98.5000  90.0000  14 2

