# MOL2 file generated by ConQuest
# Please check atom types

@<TRIPOS>MOLECULE
BNPERY
    22    27     1
SMALL
NO_CHARGES
****
Generated from CSD

@<TRIPOS>ATOM
      1 C1         1.3442   -2.0849    3.2631 C.ar      1 RES1    0.0000
      2 C2         2.1081   -1.0514    3.8372 C.ar      1 RES1    0.0000
      3 C3         2.6118   -0.0166    3.0704 C.ar      1 RES1    0.0000
      4 C4         2.3681    0.0345    1.6658 C.ar      1 RES1    0.0000
      5 C5         2.8686    1.0716    0.8735 C.ar      1 RES1    0.0000
      6 C6         2.6165    1.1025   -0.5135 C.ar      1 RES1    0.0000
      7 C7         1.8625    0.0962   -1.1229 C.ar      1 RES1    0.0000
      8 C8         1.5962    0.1069   -2.5246 C.ar      1 RES1    0.0000
      9 C9         0.8428   -0.8969   -3.0987 C.ar      1 RES1    0.0000
     10 C10        0.3230   -1.9614   -2.3495 C.ar      1 RES1    0.0000
     11 C11       -0.4317   -2.9795   -2.9305 C.ar      1 RES1    0.0000
     12 C12       -0.9486   -4.0344   -2.1617 C.ar      1 RES1    0.0000
     13 C13       -0.6960   -4.0677   -0.7776 C.ar      1 RES1    0.0000
     14 C14       -0.1806   -4.1295    2.0629 C.ar      1 RES1    0.0000
     15 C15        0.0708   -4.1604    3.4470 C.ar      1 RES1    0.0000
     16 C16        0.8323   -3.1328    4.0299 C.ar      1 RES1    0.0000
     17 C17        1.0906   -2.0600    1.8780 C.ar      1 RES1    0.0000
     18 C18        1.5970   -1.0003    1.0613 C.ar      1 RES1    0.0000
     19 C19        1.3434   -0.9706   -0.3316 C.ar      1 RES1    0.0000
     20 C20        0.5741   -2.0077   -0.9635 C.ar      1 RES1    0.0000
     21 C21        0.0638   -3.0448   -0.1761 C.ar      1 RES1    0.0000
     22 C22        0.3295   -3.0757    1.2774 C.ar      1 RES1    0.0000
@<TRIPOS>BOND
     1    1    2 ar
     2    2    3 ar
     3    3    4 ar
     4    4    5 ar
     5    5    6 ar
     6    6    7 ar
     7    7    8 ar
     8    8    9 ar
     9    9   10 ar
    10   10   11 ar
    11   11   12 ar
    12   12   13 ar
    13   13   21 ar
    14   14   15 ar
    15   15   16 ar
    16   16    1 ar
    17   17    1 ar
    18   18    4 ar
    19   19    7 ar
    20   20   10 ar
    21   21   20 ar
    22   22   14 ar
    23   17   18 ar
    24   17   22 ar
    25   18   19 ar
    26   19   20 ar
    27   21   22 ar
@<TRIPOS>SUBSTRUCTURE
     1 RES1 1

@<TRIPOS>CRYSIN
  11.7200   11.8800    9.8900  90.0000  98.5000  90.0000  14 2

