# MOL2 file generated by ConQuest
# Please check atom types

@<TRIPOS>MOLECULE
BNPHTA05
    34    37     1
SMALL
NO_CHARGES
****
Generated from CSD

@<TRIPOS>ATOM
      1 C1         0.9100    7.0289    0.2329 C.ar      1 RES1    0.0000
      2 C2         2.0967    6.8977   -0.4326 C.ar      1 RES1    0.0000
      3 H1         2.2728    7.4418   -1.1673 H         1 RES1    0.0000
      4 C3         3.0595    5.9513   -0.0261 C.ar      1 RES1    0.0000
      5 H2         3.8568    5.8700   -0.4972 H         1 RES1    0.0000
      6 C4         2.8255    5.1590    1.0509 C.ar      1 RES1    0.0000
      7 H3         3.4652    4.5386    1.3184 H         1 RES1    0.0000
      8 C5         1.3529    4.4958    2.9060 C.ar      1 RES1    0.0000
      9 H4         1.9869    3.8782    3.1917 H         1 RES1    0.0000
     10 C6         0.1933    4.6256    3.6004 C.ar      1 RES1    0.0000
     11 H5         0.0506    4.1114    4.3618 H         1 RES1    0.0000
     12 C7        -0.7845    5.5263    3.1779 C.ar      1 RES1    0.0000
     13 H6        -1.5811    5.6012    3.6531 H         1 RES1    0.0000
     14 C8        -0.5791    6.2929    2.0793 C.ar      1 RES1    0.0000
     15 H7        -1.2430    6.8813    1.8018 H         1 RES1    0.0000
     16 C9         0.6426    6.2123    1.3420 C.ar      1 RES1    0.0000
     17 C10        1.6160    5.2745    1.7642 C.ar      1 RES1    0.0000
     18 C1F       -0.1027    8.0416   -0.2329 C.ar      1 RES1    0.0000
     19 C2F       -0.2339    9.2283    0.4326 C.ar      1 RES1    0.0000
     20 H1F        0.3102    9.4044    1.1673 H         1 RES1    0.0000
     21 C3F       -1.1803   10.1911    0.0261 C.ar      1 RES1    0.0000
     22 H2F       -1.2616   10.9884    0.4972 H         1 RES1    0.0000
     23 C4F       -1.9726    9.9571   -1.0509 C.ar      1 RES1    0.0000
     24 H3F       -2.5930   10.5968   -1.3184 H         1 RES1    0.0000
     25 C5F       -2.6358    8.4845   -2.9060 C.ar      1 RES1    0.0000
     26 H4F       -3.2534    9.1185   -3.1917 H         1 RES1    0.0000
     27 C6F       -2.5060    7.3249   -3.6004 C.ar      1 RES1    0.0000
     28 H5F       -3.0202    7.1822   -4.3618 H         1 RES1    0.0000
     29 C7F       -1.6053    6.3471   -3.1779 C.ar      1 RES1    0.0000
     30 H6F       -1.5304    5.5505   -3.6531 H         1 RES1    0.0000
     31 C8F       -0.8387    6.5525   -2.0793 C.ar      1 RES1    0.0000
     32 H7F       -0.2503    5.8886   -1.8018 H         1 RES1    0.0000
     33 C9F       -0.9193    7.7742   -1.3420 C.ar      1 RES1    0.0000
     34 C10F      -1.8571    8.7476   -1.7642 C.ar      1 RES1    0.0000
@<TRIPOS>BOND
     1    1    2 ar
     2    2    3 1
     3    4    2 ar
     4    5    4 1
     5    6    4 ar
     6    7    6 1
     7    8    9 1
     8   10    8 ar
     9   11   10 1
    10   12   10 ar
    11   13   12 1
    12   14   12 ar
    13   15   14 1
    14   16    1 ar
    15   17    6 ar
    16   18    1 1
    17   19   18 ar
    18   20   19 1
    19   21   19 ar
    20   22   21 1
    21   23   21 ar
    22   24   23 1
    23   25   26 1
    24   27   25 ar
    25   28   27 1
    26   29   27 ar
    27   30   29 1
    28   31   29 ar
    29   32   31 1
    30   33   18 ar
    31   34   23 ar
    32    8   17 ar
    33   14   16 ar
    34   16   17 ar
    35   25   34 ar
    36   31   33 ar
    37   33   34 ar
@<TRIPOS>SUBSTRUCTURE
     1 RES1 1

@<TRIPOS>CRYSIN
   7.1316    7.1316   27.4670  90.0000  90.0000  90.0000  92 1

