# MOL2 file generated by ConQuest
# Please check atom types

@<TRIPOS>MOLECULE
BNPHTA10
    34    37     1
SMALL
NO_CHARGES
****
Generated from CSD

@<TRIPOS>ATOM
      1 C1         0.8618    6.5720    0.2220 C.ar      1 RES1    0.0000
      2 C2         2.1312    6.4137   -0.4203 C.ar      1 RES1    0.0000
      3 H1         2.3483    6.9528   -1.1445 H         1 RES1    0.0000
      4 C3         3.0131    5.4817    0.0185 C.ar      1 RES1    0.0000
      5 H2         3.8195    5.3922   -0.4309 H         1 RES1    0.0000
      6 C4         2.7706    4.6593    1.1023 C.ar      1 RES1    0.0000
      7 H3         3.3892    4.0212    1.3745 H         1 RES1    0.0000
      8 C5         1.2781    4.1221    2.9869 C.ar      1 RES1    0.0000
      9 H4         1.8867    3.4894    3.2909 H         1 RES1    0.0000
     10 C6         0.1203    4.3894    3.6953 C.ar      1 RES1    0.0000
     11 H5         0.0007    3.9979    4.5306 H         1 RES1    0.0000
     12 C7        -0.8351    5.1977    3.1957 C.ar      1 RES1    0.0000
     13 H6        -1.6402    5.2833    3.6557 H         1 RES1    0.0000
     14 C8        -0.6574    5.8986    2.0433 C.ar      1 RES1    0.0000
     15 H7        -1.3248    6.4624    1.7234 H         1 RES1    0.0000
     16 C9         0.5893    5.7489    1.3216 C.ar      1 RES1    0.0000
     17 C10        1.5146    4.8370    1.7895 C.ar      1 RES1    0.0000
     18 C1F       -0.1089    7.5427   -0.2220 C.ar      1 RES1    0.0000
     19 C2F       -0.2672    8.8121    0.4203 C.ar      1 RES1    0.0000
     20 H1F        0.2719    9.0292    1.1445 H         1 RES1    0.0000
     21 C3F       -1.1992    9.6940   -0.0185 C.ar      1 RES1    0.0000
     22 H2F       -1.2887   10.5004    0.4309 H         1 RES1    0.0000
     23 C4F       -2.0216    9.4515   -1.1023 C.ar      1 RES1    0.0000
     24 H3F       -2.6597   10.0701   -1.3745 H         1 RES1    0.0000
     25 C5F       -2.5588    7.9590   -2.9869 C.ar      1 RES1    0.0000
     26 H4F       -3.1915    8.5676   -3.2909 H         1 RES1    0.0000
     27 C6F       -2.2915    6.8012   -3.6953 C.ar      1 RES1    0.0000
     28 H5F       -2.6830    6.6816   -4.5306 H         1 RES1    0.0000
     29 C7F       -1.4832    5.8458   -3.1957 C.ar      1 RES1    0.0000
     30 H6F       -1.3976    5.0407   -3.6557 H         1 RES1    0.0000
     31 C8F       -0.7823    6.0235   -2.0433 C.ar      1 RES1    0.0000
     32 H7F       -0.2185    5.3561   -1.7234 H         1 RES1    0.0000
     33 C9F       -0.9320    7.2702   -1.3216 C.ar      1 RES1    0.0000
     34 C10F      -1.8439    8.1955   -1.7895 C.ar      1 RES1    0.0000
@<TRIPOS>BOND
     1    1    2 ar
     2    2    3 1
     3    4    2 ar
     4    5    4 1
     5    6    4 ar
     6    7    6 1
     7    8    9 1
     8   10    8 ar
     9   11   10 1
    10   12   10 ar
    11   13   12 1
    12   14   12 ar
    13   15   14 1
    14   16    1 ar
    15   17    6 ar
    16   18    1 1
    17   19   18 ar
    18   20   19 1
    19   21   19 ar
    20   22   21 1
    21   23   21 ar
    22   24   23 1
    23   25   26 1
    24   27   25 ar
    25   28   27 1
    26   29   27 ar
    27   30   29 1
    28   31   29 ar
    29   32   31 1
    30   33   18 ar
    31   34   23 ar
    32    8   17 ar
    33   14   16 ar
    34   16   17 ar
    35   25   34 ar
    36   31   33 ar
    37   33   34 ar
@<TRIPOS>SUBSTRUCTURE
     1 RES1 1

@<TRIPOS>CRYSIN
   6.6809    6.6809   26.4330  90.0000  90.0000  90.0000  92 1

