# MOL2 file generated by ConQuest
# Please check atom types

@<TRIPOS>MOLECULE
BNPHTA08
    34    37     1
SMALL
NO_CHARGES
****
Generated from CSD

@<TRIPOS>ATOM
      1 C1         0.8767    6.7763    0.2135 C.ar      1 RES1    0.0000
      2 C2         2.1289    6.5619   -0.4110 C.ar      1 RES1    0.0000
      3 H1         2.3474    7.0839   -1.1504 H         1 RES1    0.0000
      4 C3         3.0172    5.6475    0.0053 C.ar      1 RES1    0.0000
      5 H2         3.8234    5.5763   -0.4537 H         1 RES1    0.0000
      6 C4         2.7994    4.8064    1.0756 C.ar      1 RES1    0.0000
      7 H3         3.4173    4.1611    1.3372 H         1 RES1    0.0000
      8 C5         1.3048    4.2605    2.9333 C.ar      1 RES1    0.0000
      9 H4         1.9234    3.6330    3.2323 H         1 RES1    0.0000
     10 C6         0.1425    4.4755    3.6300 C.ar      1 RES1    0.0000
     11 H5        -0.0007    4.0255    4.4334 H         1 RES1    0.0000
     12 C7        -0.8076    5.3386    3.1682 C.ar      1 RES1    0.0000
     13 H6        -1.6049    5.4317    3.6407 H         1 RES1    0.0000
     14 C8        -0.6151    6.0633    2.0419 C.ar      1 RES1    0.0000
     15 H7        -1.2733    6.6462    1.7376 H         1 RES1    0.0000
     16 C9         0.5987    5.9208    1.3346 C.ar      1 RES1    0.0000
     17 C10        1.5494    4.9968    1.7669 C.ar      1 RES1    0.0000
     18 C1F       -0.0733    7.7263   -0.2135 C.ar      1 RES1    0.0000
     19 C2F       -0.2877    8.9785    0.4110 C.ar      1 RES1    0.0000
     20 H1F        0.2343    9.1970    1.1504 H         1 RES1    0.0000
     21 C3F       -1.2021    9.8668   -0.0053 C.ar      1 RES1    0.0000
     22 H2F       -1.2733   10.6730    0.4537 H         1 RES1    0.0000
     23 C4F       -2.0432    9.6490   -1.0756 C.ar      1 RES1    0.0000
     24 H3F       -2.6885   10.2669   -1.3372 H         1 RES1    0.0000
     25 C5F       -2.5891    8.1544   -2.9333 C.ar      1 RES1    0.0000
     26 H4F       -3.2166    8.7730   -3.2323 H         1 RES1    0.0000
     27 C6F       -2.3741    6.9921   -3.6300 C.ar      1 RES1    0.0000
     28 H5F       -2.8241    6.8489   -4.4334 H         1 RES1    0.0000
     29 C7F       -1.5110    6.0420   -3.1682 C.ar      1 RES1    0.0000
     30 H6F       -1.4179    5.2447   -3.6407 H         1 RES1    0.0000
     31 C8F       -0.7863    6.2345   -2.0419 C.ar      1 RES1    0.0000
     32 H7F       -0.2034    5.5763   -1.7376 H         1 RES1    0.0000
     33 C9F       -0.9288    7.4483   -1.3346 C.ar      1 RES1    0.0000
     34 C10F      -1.8528    8.3990   -1.7669 C.ar      1 RES1    0.0000
@<TRIPOS>BOND
     1    1    2 ar
     2    2    3 1
     3    4    2 ar
     4    5    4 1
     5    6    4 ar
     6    7    6 1
     7    8    9 1
     8   10    8 ar
     9   11   10 1
    10   12   10 ar
    11   13   12 1
    12   14   12 ar
    13   15   14 1
    14   16    1 ar
    15   17    6 ar
    16   18    1 1
    17   19   18 ar
    18   20   19 1
    19   21   19 ar
    20   22   21 1
    21   23   21 ar
    22   24   23 1
    23   25   26 1
    24   27   25 ar
    25   28   27 1
    26   29   27 ar
    27   30   29 1
    28   31   29 ar
    29   32   31 1
    30   33   18 ar
    31   34   23 ar
    32    8   17 ar
    33   14   16 ar
    34   16   17 ar
    35   25   34 ar
    36   31   33 ar
    37   33   34 ar
@<TRIPOS>SUBSTRUCTURE
     1 RES1 1

@<TRIPOS>CRYSIN
   6.8496    6.8496   26.6910  90.0000  90.0000  90.0000  92 1

