# MOL2 file generated by ConQuest
# Please check atom types

@<TRIPOS>MOLECULE
BNPHTA
    34    37     1
SMALL
NO_CHARGES
****
Generated from CSD

@<TRIPOS>ATOM
      1 C1         3.4864    2.6871    7.1500 C.ar      1 RES1    0.0000
      2 C2         3.3499    1.4936    6.4915 C.ar      1 RES1    0.0000
      3 C3         2.4085    0.5335    6.8998 C.ar      1 RES1    0.0000
      4 C4         1.6150    0.7662    7.9721 C.ar      1 RES1    0.0000
      5 C5         1.7220    1.9798    8.6938 C.ar      1 RES1    0.0000
      6 C6         0.9393    2.2369    9.8409 C.ar      1 RES1    0.0000
      7 C7         1.0685    3.3930   10.5398 C.ar      1 RES1    0.0000
      8 C8         1.9733    4.3754   10.1119 C.ar      1 RES1    0.0000
      9 C9         2.7518    4.1722    9.0060 C.ar      1 RES1    0.0000
     10 C10        2.6613    2.9571    8.2700 C.ar      1 RES1    0.0000
     11 H1         3.9352    1.2998    5.7023 H         1 RES1    0.0000
     12 H2         2.3266   -0.3231    6.3943 H         1 RES1    0.0000
     13 H3         0.9479    0.0790    8.2572 H         1 RES1    0.0000
     14 H4         0.2729    1.5511   10.1451 H         1 RES1    0.0000
     15 H5         0.5170    3.5474   11.3603 H         1 RES1    0.0000
     16 H6         2.0466    5.2349   10.6212 H         1 RES1    0.0000
     17 H7         3.3894    4.8831    8.7112 H         1 RES1    0.0000
     18 C1F        4.4939    3.6946    6.6905 C.ar      1 RES1    0.0000
     19 C2F        5.6874    3.8311    7.3490 C.ar      1 RES1    0.0000
     20 C10F       4.2239    4.5197    5.5705 C.ar      1 RES1    0.0000
     21 C3F        6.6475    4.7725    6.9407 C.ar      1 RES1    0.0000
     22 H1F        5.8812    3.2458    8.1382 H         1 RES1    0.0000
     23 C5F        5.2012    5.4590    5.1467 C.ar      1 RES1    0.0000
     24 C9F        3.0088    4.4292    4.8345 C.ar      1 RES1    0.0000
     25 C4F        6.4148    5.5660    5.8684 C.ar      1 RES1    0.0000
     26 H2F        7.5041    4.8544    7.4462 H         1 RES1    0.0000
     27 C6F        4.9441    6.2417    3.9996 C.ar      1 RES1    0.0000
     28 C8F        2.8056    5.2077    3.7286 C.ar      1 RES1    0.0000
     29 H7F        2.2979    3.7916    5.1293 H         1 RES1    0.0000
     30 H3F        7.1020    6.2331    5.5833 H         1 RES1    0.0000
     31 C7F        3.7880    6.1125    3.3007 C.ar      1 RES1    0.0000
     32 H4F        5.6299    6.9081    3.6954 H         1 RES1    0.0000
     33 H6F        1.9461    5.1344    3.2193 H         1 RES1    0.0000
     34 H5F        3.6336    6.6640    2.4802 H         1 RES1    0.0000
@<TRIPOS>BOND
     1    1    2 ar
     2    2    3 ar
     3    3    4 ar
     4    4    5 ar
     5    5    6 ar
     6    6    7 ar
     7    7    8 ar
     8    8    9 ar
     9    9   10 ar
    10   10    1 ar
    11   11    2 1
    12   12    3 1
    13   13    4 1
    14   14    6 1
    15   15    7 1
    16   16    8 1
    17   17    9 1
    18   18    1 1
    19   19   18 ar
    20   20   18 ar
    21   21   19 ar
    22   22   19 1
    23   23   20 ar
    24   24   20 ar
    25   25   21 ar
    26   26   21 1
    27   27   23 ar
    28   28   24 ar
    29   29   24 1
    30   30   25 1
    31   31   27 ar
    32   32   27 1
    33   33   28 1
    34   34   31 1
    35    5   10 ar
    36   23   25 ar
    37   28   31 ar
@<TRIPOS>SUBSTRUCTURE
     1 RES1 1

@<TRIPOS>CRYSIN
   7.1810    7.1810   27.6810  90.0000  90.0000  90.0000  92 1

