# MOL2 file generated by ConQuest
# Please check atom types

@<TRIPOS>MOLECULE
BNPHTA07
    34    37     1
SMALL
NO_CHARGES
****
Generated from CSD

@<TRIPOS>ATOM
      1 C1         0.9116    7.1018    0.2236 C.ar      1 RES1    0.0000
      2 C2         2.0999    6.9707   -0.4266 C.ar      1 RES1    0.0000
      3 H1         2.2772    7.5169   -1.1580 H         1 RES1    0.0000
      4 C3         3.0663    6.0331   -0.0259 C.ar      1 RES1    0.0000
      5 H2         3.8662    5.9582   -0.4951 H         1 RES1    0.0000
      6 C4         2.8306    5.2390    1.0455 C.ar      1 RES1    0.0000
      7 H3         3.4720    4.6207    1.3120 H         1 RES1    0.0000
      8 C5         1.3555    4.5702    2.9052 C.ar      1 RES1    0.0000
      9 H4         1.9933    3.9563    3.1907 H         1 RES1    0.0000
     10 C6         0.2025    4.6949    3.6027 C.ar      1 RES1    0.0000
     11 H5         0.0649    4.1833    4.3679 H         1 RES1    0.0000
     12 C7        -0.7812    5.5885    3.1764 C.ar      1 RES1    0.0000
     13 H6        -1.5796    5.6562    3.6473 H         1 RES1    0.0000
     14 C8        -0.5787    6.3646    2.0712 C.ar      1 RES1    0.0000
     15 H7        -1.2438    6.9526    1.7934 H         1 RES1    0.0000
     16 C9         0.6421    6.2825    1.3393 C.ar      1 RES1    0.0000
     17 C10        1.6135    5.3442    1.7617 C.ar      1 RES1    0.0000
     18 C1F       -0.1045    8.1179   -0.2236 C.ar      1 RES1    0.0000
     19 C2F       -0.2356    9.3062    0.4266 C.ar      1 RES1    0.0000
     20 H1F        0.3106    9.4835    1.1580 H         1 RES1    0.0000
     21 C3F       -1.1732   10.2726    0.0259 C.ar      1 RES1    0.0000
     22 H2F       -1.2481   11.0725    0.4951 H         1 RES1    0.0000
     23 C4F       -1.9673   10.0369   -1.0455 C.ar      1 RES1    0.0000
     24 H3F       -2.5856   10.6783   -1.3120 H         1 RES1    0.0000
     25 C5F       -2.6361    8.5618   -2.9052 C.ar      1 RES1    0.0000
     26 H4F       -3.2500    9.1996   -3.1907 H         1 RES1    0.0000
     27 C6F       -2.5114    7.4088   -3.6027 C.ar      1 RES1    0.0000
     28 H5F       -3.0230    7.2712   -4.3679 H         1 RES1    0.0000
     29 C7F       -1.6178    6.4251   -3.1764 C.ar      1 RES1    0.0000
     30 H6F       -1.5501    5.6267   -3.6473 H         1 RES1    0.0000
     31 C8F       -0.8417    6.6276   -2.0712 C.ar      1 RES1    0.0000
     32 H7F       -0.2537    5.9625   -1.7934 H         1 RES1    0.0000
     33 C9F       -0.9238    7.8484   -1.3393 C.ar      1 RES1    0.0000
     34 C10F      -1.8621    8.8198   -1.7617 C.ar      1 RES1    0.0000
@<TRIPOS>BOND
     1    1    2 ar
     2    2    3 1
     3    4    2 ar
     4    5    4 1
     5    6    4 ar
     6    7    6 1
     7    8    9 1
     8   10    8 ar
     9   11   10 1
    10   12   10 ar
    11   13   12 1
    12   14   12 ar
    13   15   14 1
    14   16    1 ar
    15   17    6 ar
    16   18    1 1
    17   19   18 ar
    18   20   19 1
    19   21   19 ar
    20   22   21 1
    21   23   21 ar
    22   24   23 1
    23   25   26 1
    24   27   25 ar
    25   28   27 1
    26   29   27 ar
    27   30   29 1
    28   31   29 ar
    29   32   31 1
    30   33   18 ar
    31   34   23 ar
    32    8   17 ar
    33   14   16 ar
    34   16   17 ar
    35   25   34 ar
    36   31   33 ar
    37   33   34 ar
@<TRIPOS>SUBSTRUCTURE
     1 RES1 1

@<TRIPOS>CRYSIN
   7.2063    7.2063   27.5057  90.0000  90.0000  90.0000  92 1

