# MOL2 file generated by ConQuest
# Please check atom types

@<TRIPOS>MOLECULE
BNPHTA09
    34    37     1
SMALL
NO_CHARGES
****
Generated from CSD

@<TRIPOS>ATOM
      1 C1         0.8574    6.6299    0.2412 C.ar      1 RES1    0.0000
      2 C2         2.0794    6.4881   -0.3764 C.ar      1 RES1    0.0000
      3 H1         2.2955    7.0620   -1.0735 H         1 RES1    0.0000
      4 C3         2.9976    5.5429   -0.0159 C.ar      1 RES1    0.0000
      5 H2         3.7680    5.4423   -0.5275 H         1 RES1    0.0000
      6 C4         2.8153    4.7327    1.0762 C.ar      1 RES1    0.0000
      7 H3         3.4675    4.1305    1.3625 H         1 RES1    0.0000
      8 C5         1.2895    4.2601    2.9873 C.ar      1 RES1    0.0000
      9 H4         1.9471    3.7315    3.3743 H         1 RES1    0.0000
     10 C6         0.0878    4.4357    3.6209 C.ar      1 RES1    0.0000
     11 H5        -0.0938    3.9550    4.3949 H         1 RES1    0.0000
     12 C7        -0.8372    5.2863    3.1358 C.ar      1 RES1    0.0000
     13 H6        -1.6338    5.4200    3.5997 H         1 RES1    0.0000
     14 C8        -0.6076    5.9615    1.9774 C.ar      1 RES1    0.0000
     15 H7        -1.2659    6.5083    1.6090 H         1 RES1    0.0000
     16 C9         0.6144    5.8197    1.3492 C.ar      1 RES1    0.0000
     17 C10        1.5123    4.8745    1.7707 C.ar      1 RES1    0.0000
     18 C1F       -0.1215    7.6088   -0.2412 C.ar      1 RES1    0.0000
     19 C2F       -0.2633    8.8308    0.3764 C.ar      1 RES1    0.0000
     20 H1F        0.3106    9.0469    1.0735 H         1 RES1    0.0000
     21 C3F       -1.2085    9.7490    0.0159 C.ar      1 RES1    0.0000
     22 H2F       -1.3091   10.5194    0.5275 H         1 RES1    0.0000
     23 C4F       -2.0187    9.5667   -1.0762 C.ar      1 RES1    0.0000
     24 H3F       -2.6209   10.2189   -1.3625 H         1 RES1    0.0000
     25 C5F       -2.4913    8.0409   -2.9873 C.ar      1 RES1    0.0000
     26 H4F       -3.0199    8.6985   -3.3743 H         1 RES1    0.0000
     27 C6F       -2.3157    6.8392   -3.6209 C.ar      1 RES1    0.0000
     28 H5F       -2.7964    6.6576   -4.3949 H         1 RES1    0.0000
     29 C7F       -1.4651    5.9142   -3.1358 C.ar      1 RES1    0.0000
     30 H6F       -1.3314    5.1176   -3.5997 H         1 RES1    0.0000
     31 C8F       -0.7899    6.1438   -1.9774 C.ar      1 RES1    0.0000
     32 H7F       -0.2431    5.4855   -1.6090 H         1 RES1    0.0000
     33 C9F       -0.9317    7.3658   -1.3492 C.ar      1 RES1    0.0000
     34 C10F      -1.8769    8.2637   -1.7707 C.ar      1 RES1    0.0000
@<TRIPOS>BOND
     1    1    2 ar
     2    2    3 1
     3    4    2 ar
     4    5    4 1
     5    6    4 ar
     6    7    6 1
     7    8    9 1
     8   10    8 ar
     9   11   10 1
    10   12   10 ar
    11   13   12 1
    12   14   12 ar
    13   15   14 1
    14   16    1 ar
    15   17    6 ar
    16   18    1 1
    17   19   18 ar
    18   20   19 1
    19   21   19 ar
    20   22   21 1
    21   23   21 ar
    22   24   23 1
    23   25   26 1
    24   27   25 ar
    25   28   27 1
    26   29   27 ar
    27   30   29 1
    28   31   29 ar
    29   32   31 1
    30   33   18 ar
    31   34   23 ar
    32    8   17 ar
    33   14   16 ar
    34   16   17 ar
    35   25   34 ar
    36   31   33 ar
    37   33   34 ar
@<TRIPOS>SUBSTRUCTURE
     1 RES1 1

@<TRIPOS>CRYSIN
   6.7514    6.7514   26.5070  90.0000  90.0000  90.0000  92 1

