# MOL2 file generated by ConQuest
# Please check atom types

@<TRIPOS>MOLECULE
BNPHTA01
    32    35     1
SMALL
NO_CHARGES
****
Generated from CSD

@<TRIPOS>ATOM
      1 C1         0.9131    0.1082    6.6574 C.ar      1 RES1    0.0000
      2 C2         2.1032    0.2380    7.3067 C.ar      1 RES1    0.0000
      3 C3         3.0617    1.1850    6.9050 C.ar      1 RES1    0.0000
      4 C4         2.8367    1.9726    5.8266 C.ar      1 RES1    0.0000
      5 C5         1.6178    1.8645    5.1114 C.ar      1 RES1    0.0000
      6 C6         1.3646    2.6521    3.9642 C.ar      1 RES1    0.0000
      7 C7         0.2041    2.5244    3.2764 C.ar      1 RES1    0.0000
      8 C8        -0.7948    1.6221    3.6973 C.ar      1 RES1    0.0000
      9 C9        -0.5885    0.8424    4.8005 C.ar      1 RES1    0.0000
     10 C10        0.6405    0.9225    5.5378 C.ar      1 RES1    0.0000
     11 H1         2.3080   -0.3462    8.1155 H         1 RES1    0.0000
     12 H2         3.9237    1.2117    7.3727 H         1 RES1    0.0000
     13 H3         3.5125    2.6037    5.5295 H         1 RES1    0.0000
     14 H4         2.1205    3.3683    3.6863 H         1 RES1    0.0000
     15 H5         0.0505    3.0221    2.3934 H         1 RES1    0.0000
     16 H6        -1.6373    2.1854    3.1912 H         1 RES1    0.0000
     17 C1F       -0.1082   -0.9131    7.0976 C.ar      1 RES1    0.0000
     18 C2F       -0.2380   -2.1032    6.4483 C.ar      1 RES1    0.0000
     19 C10F      -0.9225   -0.6405    8.2172 C.ar      1 RES1    0.0000
     20 C3F       -1.1850   -3.0617    6.8500 C.ar      1 RES1    0.0000
     21 H1F        0.3462   -2.3080    5.6395 H         1 RES1    0.0000
     22 C5F       -1.8645   -1.6178    8.6436 C.ar      1 RES1    0.0000
     23 C9F       -0.8424    0.5885    8.9545 C.ar      1 RES1    0.0000
     24 C4F       -1.9726   -2.8367    7.9284 C.ar      1 RES1    0.0000
     25 H2F       -1.2117   -3.9237    6.3823 H         1 RES1    0.0000
     26 C6F       -2.6521   -1.3646    9.7908 C.ar      1 RES1    0.0000
     27 C8F       -1.6221    0.7948   10.0577 C.ar      1 RES1    0.0000
     28 H3F       -2.6037   -3.5125    8.2255 H         1 RES1    0.0000
     29 C7F       -2.5244   -0.2041   10.4786 C.ar      1 RES1    0.0000
     30 H4F       -3.3683   -2.1205   10.0687 H         1 RES1    0.0000
     31 H6F       -2.1854    1.6373   10.5638 H         1 RES1    0.0000
     32 H5F       -3.0221   -0.0505   11.3616 H         1 RES1    0.0000
@<TRIPOS>BOND
     1    1    2 ar
     2    2    3 ar
     3    3    4 ar
     4    4    5 ar
     5    5    6 ar
     6    6    7 ar
     7    7    8 ar
     8    8    9 ar
     9    9   10 ar
    10   10    1 ar
    11   11    2 1
    12   12    3 1
    13   13    4 1
    14   14    6 1
    15   15    7 1
    16   16    8 1
    17   17    1 1
    18   18   17 ar
    19   19   17 ar
    20   20   18 ar
    21   21   18 1
    22   22   19 ar
    23   23   19 ar
    24   24   20 ar
    25   25   20 1
    26   26   22 ar
    27   27   23 ar
    28   28   24 1
    29   29   26 ar
    30   30   26 1
    31   31   27 1
    32   32   29 1
    33    5   10 ar
    34   22   24 ar
    35   27   29 ar
@<TRIPOS>SUBSTRUCTURE
     1 RES1 1

@<TRIPOS>CRYSIN
   7.2126    7.2126   27.5100  90.0000  90.0000  90.0000  92 1

