# MOL2 file generated by ConQuest
# Please check atom types

@<TRIPOS>MOLECULE
BNPHTA02
    20    23     1
SMALL
NO_CHARGES
****
Generated from CSD

@<TRIPOS>ATOM
      1 C1         3.4760    2.6815    7.1521 C.ar      1 RES1    0.0000
      2 C2         3.3384    1.4858    6.5012 C.ar      1 RES1    0.0000
      3 C3         2.4021    0.5301    6.9056 C.ar      1 RES1    0.0000
      4 C4         1.6140    0.7665    7.9721 C.ar      1 RES1    0.0000
      5 C5         0.9306    2.2323    9.8501 C.ar      1 RES1    0.0000
      6 C6         1.0624    3.3879   10.5454 C.ar      1 RES1    0.0000
      7 C7         1.9658    4.3672   10.1160 C.ar      1 RES1    0.0000
      8 C8         2.7445    4.1644    9.0136 C.ar      1 RES1    0.0000
      9 C9         2.6521    2.9494    8.2795 C.ar      1 RES1    0.0000
     10 C10        1.7172    1.9737    8.7006 C.ar      1 RES1    0.0000
     11 C1F        4.4825    3.6880    6.6979 C.ar      1 RES1    0.0000
     12 C2F        5.6782    3.8256    7.3488 C.ar      1 RES1    0.0000
     13 C9F        4.2146    4.5119    5.5705 C.ar      1 RES1    0.0000
     14 C3F        6.6339    4.7619    6.9444 C.ar      1 RES1    0.0000
     15 C8F        2.9996    4.4195    4.8364 C.ar      1 RES1    0.0000
     16 C10F       5.1903    5.4468    5.1494 C.ar      1 RES1    0.0000
     17 C4F        6.3975    5.5500    5.8779 C.ar      1 RES1    0.0000
     18 C7F        2.7968    5.1982    3.7340 C.ar      1 RES1    0.0000
     19 C5F        4.9317    6.2334    3.9999 C.ar      1 RES1    0.0000
     20 C6F        3.7761    6.1016    3.3046 C.ar      1 RES1    0.0000
@<TRIPOS>BOND
     1    1    2 ar
     2    2    3 ar
     3    3    4 ar
     4    4   10 ar
     5    5    6 ar
     6    6    7 ar
     7    7    8 ar
     8    8    9 ar
     9    9    1 ar
    10   10    5 ar
    11   11    1 1
    12   12   11 ar
    13   13   11 ar
    14   14   12 ar
    15   15   13 ar
    16   16   13 ar
    17   17   14 ar
    18   18   15 ar
    19   19   16 ar
    20   20   18 ar
    21    9   10 ar
    22   16   17 ar
    23   19   20 ar
@<TRIPOS>SUBSTRUCTURE
     1 RES1 1

@<TRIPOS>CRYSIN
   7.1640    7.1640   27.7000  90.0000  90.0000  90.0000  92 1

