# MOL2 file generated by ConQuest
# Please check atom types

@<TRIPOS>MOLECULE
BNPHTA06
    34    37     1
SMALL
NO_CHARGES
****
Generated from CSD

@<TRIPOS>ATOM
      1 C1         0.9117    7.0532    0.2297 C.ar      1 RES1    0.0000
      2 C2         2.0946    6.9251   -0.4264 C.ar      1 RES1    0.0000
      3 H1         2.2714    7.4725   -1.1566 H         1 RES1    0.0000
      4 C3         3.0571    5.9804   -0.0239 C.ar      1 RES1    0.0000
      5 H2         3.8550    5.9010   -0.4945 H         1 RES1    0.0000
      6 C4         2.8253    5.1882    1.0486 C.ar      1 RES1    0.0000
      7 H3         3.4665    4.5699    1.3160 H         1 RES1    0.0000
      8 C5         1.3461    4.5234    2.9047 C.ar      1 RES1    0.0000
      9 H4         1.9808    3.9066    3.1896 H         1 RES1    0.0000
     10 C6         0.1911    4.6530    3.5954 C.ar      1 RES1    0.0000
     11 H5         0.0501    4.1406    4.3572 H         1 RES1    0.0000
     12 C7        -0.7850    5.5461    3.1737 C.ar      1 RES1    0.0000
     13 H6        -1.5844    5.6162    3.6429 H         1 RES1    0.0000
     14 C8        -0.5754    6.3161    2.0775 C.ar      1 RES1    0.0000
     15 H7        -1.2373    6.9079    1.8022 H         1 RES1    0.0000
     16 C9         0.6419    6.2352    1.3393 C.ar      1 RES1    0.0000
     17 C10        1.6073    5.2992    1.7657 C.ar      1 RES1    0.0000
     18 C1F       -0.1030    8.0679   -0.2297 C.ar      1 RES1    0.0000
     19 C2F       -0.2311    9.2508    0.4264 C.ar      1 RES1    0.0000
     20 H1F        0.3163    9.4276    1.1566 H         1 RES1    0.0000
     21 C3F       -1.1758   10.2133    0.0239 C.ar      1 RES1    0.0000
     22 H2F       -1.2552   11.0112    0.4945 H         1 RES1    0.0000
     23 C4F       -1.9680    9.9815   -1.0486 C.ar      1 RES1    0.0000
     24 H3F       -2.5863   10.6227   -1.3160 H         1 RES1    0.0000
     25 C5F       -2.6328    8.5023   -2.9047 C.ar      1 RES1    0.0000
     26 H4F       -3.2496    9.1370   -3.1896 H         1 RES1    0.0000
     27 C6F       -2.5032    7.3473   -3.5954 C.ar      1 RES1    0.0000
     28 H5F       -3.0156    7.2063   -4.3572 H         1 RES1    0.0000
     29 C7F       -1.6101    6.3712   -3.1737 C.ar      1 RES1    0.0000
     30 H6F       -1.5400    5.5718   -3.6429 H         1 RES1    0.0000
     31 C8F       -0.8401    6.5808   -2.0775 C.ar      1 RES1    0.0000
     32 H7F       -0.2483    5.9189   -1.8022 H         1 RES1    0.0000
     33 C9F       -0.9210    7.7981   -1.3393 C.ar      1 RES1    0.0000
     34 C10F      -1.8570    8.7635   -1.7657 C.ar      1 RES1    0.0000
@<TRIPOS>BOND
     1    1    2 ar
     2    2    3 1
     3    4    2 ar
     4    5    4 1
     5    6    4 ar
     6    7    6 1
     7    8    9 1
     8   10    8 ar
     9   11   10 1
    10   12   10 ar
    11   13   12 1
    12   14   12 ar
    13   15   14 1
    14   16    1 ar
    15   17    6 ar
    16   18    1 1
    17   19   18 ar
    18   20   19 1
    19   21   19 ar
    20   22   21 1
    21   23   21 ar
    22   24   23 1
    23   25   26 1
    24   27   25 ar
    25   28   27 1
    26   29   27 ar
    27   30   29 1
    28   31   29 ar
    29   32   31 1
    30   33   18 ar
    31   34   23 ar
    32    8   17 ar
    33   14   16 ar
    34   16   17 ar
    35   25   34 ar
    36   31   33 ar
    37   33   34 ar
@<TRIPOS>SUBSTRUCTURE
     1 RES1 1

@<TRIPOS>CRYSIN
   7.1562    7.1562   27.4730  90.0000  90.0000  90.0000  92 1

