# MOL2 file generated by ConQuest
# Please check atom types

@<TRIPOS>MOLECULE
BNPHTA04
    34    37     1
SMALL
NO_CHARGES
****
Generated from CSD

@<TRIPOS>ATOM
      1 C1         0.9140    7.0097    0.2304 C.ar      1 RES1    0.0000
      2 C2         2.0980    6.8733   -0.4315 C.ar      1 RES1    0.0000
      3 H1         2.2743    7.4170   -1.1646 H         1 RES1    0.0000
      4 C3         3.0589    5.9302   -0.0288 C.ar      1 RES1    0.0000
      5 H2         3.8570    5.8506   -0.4999 H         1 RES1    0.0000
      6 C4         2.8258    5.1327    1.0503 C.ar      1 RES1    0.0000
      7 H3         3.4654    4.5130    1.3184 H         1 RES1    0.0000
      8 C5         1.3489    4.4704    2.9078 C.ar      1 RES1    0.0000
      9 H4         1.9822    3.8513    3.1915 H         1 RES1    0.0000
     10 C6         0.1919    4.6026    3.6104 C.ar      1 RES1    0.0000
     11 H5         0.0505    4.0930    4.3753 H         1 RES1    0.0000
     12 C7        -0.7860    5.5066    3.1795 C.ar      1 RES1    0.0000
     13 H6        -1.5849    5.5812    3.6502 H         1 RES1    0.0000
     14 C8        -0.5785    6.2777    2.0762 C.ar      1 RES1    0.0000
     15 H7        -1.2395    6.8697    1.7990 H         1 RES1    0.0000
     16 C9         0.6411    6.1903    1.3406 C.ar      1 RES1    0.0000
     17 C10        1.6133    5.2486    1.7628 C.ar      1 RES1    0.0000
     18 C1F       -0.0974    8.0211   -0.2304 C.ar      1 RES1    0.0000
     19 C2F       -0.2338    9.2051    0.4315 C.ar      1 RES1    0.0000
     20 H1F        0.3099    9.3814    1.1646 H         1 RES1    0.0000
     21 C3F       -1.1769   10.1660    0.0288 C.ar      1 RES1    0.0000
     22 H2F       -1.2565   10.9641    0.4999 H         1 RES1    0.0000
     23 C4F       -1.9744    9.9329   -1.0503 C.ar      1 RES1    0.0000
     24 H3F       -2.5941   10.5725   -1.3184 H         1 RES1    0.0000
     25 C5F       -2.6367    8.4560   -2.9078 C.ar      1 RES1    0.0000
     26 H4F       -3.2558    9.0893   -3.1915 H         1 RES1    0.0000
     27 C6F       -2.5045    7.2990   -3.6104 C.ar      1 RES1    0.0000
     28 H5F       -3.0141    7.1576   -4.3753 H         1 RES1    0.0000
     29 C7F       -1.6005    6.3211   -3.1795 C.ar      1 RES1    0.0000
     30 H6F       -1.5259    5.5222   -3.6502 H         1 RES1    0.0000
     31 C8F       -0.8294    6.5286   -2.0762 C.ar      1 RES1    0.0000
     32 H7F       -0.2374    5.8676   -1.7990 H         1 RES1    0.0000
     33 C9F       -0.9168    7.7482   -1.3406 C.ar      1 RES1    0.0000
     34 C10F      -1.8585    8.7204   -1.7628 C.ar      1 RES1    0.0000
@<TRIPOS>BOND
     1    1    2 ar
     2    2    3 1
     3    4    2 ar
     4    5    4 1
     5    6    4 ar
     6    7    6 1
     7    8    9 1
     8   10    8 ar
     9   11   10 1
    10   12   10 ar
    11   13   12 1
    12   14   12 ar
    13   15   14 1
    14   16    1 ar
    15   17    6 ar
    16   18    1 1
    17   19   18 ar
    18   20   19 1
    19   21   19 ar
    20   22   21 1
    21   23   21 ar
    22   24   23 1
    23   25   26 1
    24   27   25 ar
    25   28   27 1
    26   29   27 ar
    27   30   29 1
    28   31   29 ar
    29   32   31 1
    30   33   18 ar
    31   34   23 ar
    32    8   17 ar
    33   14   16 ar
    34   16   17 ar
    35   25   34 ar
    36   31   33 ar
    37   33   34 ar
@<TRIPOS>SUBSTRUCTURE
     1 RES1 1

@<TRIPOS>CRYSIN
   7.1071    7.1071   27.4660  90.0000  90.0000  90.0000  92 1

