# MOL2 file generated by ConQuest
# Please check atom types

@<TRIPOS>MOLECULE
BNPHTA03
    34    37     1
SMALL
NO_CHARGES
****
Generated from CSD

@<TRIPOS>ATOM
      1 C1         0.9185    6.9929    0.2272 C.ar      1 RES1    0.0000
      2 C2         2.1070    6.8562   -0.4330 C.ar      1 RES1    0.0000
      3 H1         2.2856    7.4005   -1.1650 H         1 RES1    0.0000
      4 C3         3.0652    5.9086   -0.0272 C.ar      1 RES1    0.0000
      5 H2         3.8625    5.8228   -0.4973 H         1 RES1    0.0000
      6 C4         2.8271    5.1155    1.0557 C.ar      1 RES1    0.0000
      7 H3         3.4671    4.4982    1.3271 H         1 RES1    0.0000
      8 C5         1.3529    4.4472    2.9142 C.ar      1 RES1    0.0000
      9 H4         1.9858    3.8271    3.1956 H         1 RES1    0.0000
     10 C6         0.1921    4.5861    3.6157 C.ar      1 RES1    0.0000
     11 H5         0.0496    4.0780    4.3826 H         1 RES1    0.0000
     12 C7        -0.7881    5.4919    3.1873 C.ar      1 RES1    0.0000
     13 H6        -1.5854    5.5698    3.6599 H         1 RES1    0.0000
     14 C8        -0.5755    6.2580    2.0830 C.ar      1 RES1    0.0000
     15 H7        -1.2374    6.8491    1.8052 H         1 RES1    0.0000
     16 C9         0.6421    6.1722    1.3417 C.ar      1 RES1    0.0000
     17 C10        1.6102    5.2275    1.7673 C.ar      1 RES1    0.0000
     18 C1F       -0.0943    8.0057   -0.2272 C.ar      1 RES1    0.0000
     19 C2F       -0.2310    9.1942    0.4330 C.ar      1 RES1    0.0000
     20 H1F        0.3133    9.3728    1.1650 H         1 RES1    0.0000
     21 C3F       -1.1786   10.1524    0.0272 C.ar      1 RES1    0.0000
     22 H2F       -1.2644   10.9497    0.4973 H         1 RES1    0.0000
     23 C4F       -1.9717    9.9143   -1.0557 C.ar      1 RES1    0.0000
     24 H3F       -2.5890   10.5543   -1.3271 H         1 RES1    0.0000
     25 C5F       -2.6400    8.4401   -2.9142 C.ar      1 RES1    0.0000
     26 H4F       -3.2601    9.0730   -3.1956 H         1 RES1    0.0000
     27 C6F       -2.5011    7.2793   -3.6157 C.ar      1 RES1    0.0000
     28 H5F       -3.0092    7.1368   -4.3826 H         1 RES1    0.0000
     29 C7F       -1.5953    6.2991   -3.1873 C.ar      1 RES1    0.0000
     30 H6F       -1.5174    5.5018   -3.6599 H         1 RES1    0.0000
     31 C8F       -0.8292    6.5117   -2.0830 C.ar      1 RES1    0.0000
     32 H7F       -0.2381    5.8498   -1.8052 H         1 RES1    0.0000
     33 C9F       -0.9150    7.7293   -1.3417 C.ar      1 RES1    0.0000
     34 C10F      -1.8597    8.6974   -1.7673 C.ar      1 RES1    0.0000
@<TRIPOS>BOND
     1    1    2 ar
     2    2    3 1
     3    4    2 ar
     4    5    4 1
     5    6    4 ar
     6    7    6 1
     7    8    9 1
     8   10    8 ar
     9   11   10 1
    10   12   10 ar
    11   13   12 1
    12   14   12 ar
    13   15   14 1
    14   16    1 ar
    15   17    6 ar
    16   18    1 1
    17   19   18 ar
    18   20   19 1
    19   21   19 ar
    20   22   21 1
    21   23   21 ar
    22   24   23 1
    23   25   26 1
    24   27   25 ar
    25   28   27 1
    26   29   27 ar
    27   30   29 1
    28   31   29 ar
    29   32   31 1
    30   33   18 ar
    31   34   23 ar
    32    8   17 ar
    33   14   16 ar
    34   16   17 ar
    35   25   34 ar
    36   31   33 ar
    37   33   34 ar
@<TRIPOS>SUBSTRUCTURE
     1 RES1 1

@<TRIPOS>CRYSIN
   7.0872    7.0872   27.4770  90.0000  90.0000  90.0000  92 1

