# MOL2 file generated by ConQuest
# Please check atom types

@<TRIPOS>MOLECULE
BOBNEN
    80    88     2
SMALL
NO_CHARGES
****
Generated from CSD

@<TRIPOS>ATOM
      1 C1         3.6581    7.6407   12.6152 C.ar      1 RES1    0.0000
      2 C2         4.9983    7.3897   12.3207 C.ar      1 RES1    0.0000
      3 H1         5.2684    6.5129   12.1680 H         1 RES1    0.0000
      4 C3         5.9519    8.4172   12.2475 C.ar      1 RES1    0.0000
      5 H2         6.8223    8.2312   11.9780 H         1 RES1    0.0000
      6 C4         5.5907    9.6953   12.5772 C.ar      1 RES1    0.0000
      7 H3         6.2343   10.3670   12.5982 H         1 RES1    0.0000
      8 C5         4.2506    9.9996   12.8840 C.ar      1 RES1    0.0000
      9 C6         3.9202   11.2931   13.4096 C.ar      1 RES1    0.0000
     10 H4         4.5721   11.9545   13.4476 H         1 RES1    0.0000
     11 C7         2.6677   11.5594   13.8499 C.ar      1 RES1    0.0000
     12 H5         2.5026   12.3412   14.3248 H         1 RES1    0.0000
     13 C8         1.5991   10.6514   13.5912 C.ar      1 RES1    0.0000
     14 C9         0.2589   10.9874   13.9698 C.ar      1 RES1    0.0000
     15 H6         0.1061   11.7458   14.4869 H         1 RES1    0.0000
     16 C10       -0.7890   10.2223   13.5889 C.ar      1 RES1    0.0000
     17 H7        -1.6374   10.3999   13.9262 H         1 RES1    0.0000
     18 C11       -0.6030    9.1448   12.6735 C.ar      1 RES1    0.0000
     19 C12       -1.7121    8.5176   12.0611 C.ar      1 RES1    0.0000
     20 H8        -2.5723    8.7300   12.3449 H         1 RES1    0.0000
     21 C13       -1.5409    7.6001   11.0559 C.ar      1 RES1    0.0000
     22 H9        -2.2791    7.1951   10.6631 H         1 RES1    0.0000
     23 C14       -0.2399    7.2747   10.6225 C.ar      1 RES1    0.0000
     24 H10       -0.1220    6.6755    9.9199 H         1 RES1    0.0000
     25 C15        0.8571    7.8394   11.2330 C.ar      1 RES1    0.0000
     26 H11        1.7083    7.6071   10.9406 H         1 RES1    0.0000
     27 C16        0.7193    8.7668   12.2974 C.ar      1 RES1    0.0000
     28 C17        1.8494    9.4365   12.9035 C.ar      1 RES1    0.0000
     29 C18        3.2284    9.0025   12.7711 C.ar      1 RES1    0.0000
     30 C19        2.8054    6.4636   12.9454 C.ar      1 RES1    0.0000
     31 C20        1.9374    6.4914   14.0462 C.ar      1 RES1    0.0000
     32 H12        1.8609    7.2709   14.5483 H         1 RES1    0.0000
     33 C21        1.1898    5.3760   14.4006 C.ar      1 RES1    0.0000
     34 H13        0.6140    5.4142   15.1294 H         1 RES1    0.0000
     35 C22        1.3023    4.1981   13.6619 C.ar      1 RES1    0.0000
     36 H14        0.8038    3.4487   13.8964 H         1 RES1    0.0000
     37 C23        2.1646    4.1526   12.5727 C.ar      1 RES1    0.0000
     38 H15        2.2430    3.3685   12.0786 H         1 RES1    0.0000
     39 C24        2.9092    5.2691   12.2168 C.ar      1 RES1    0.0000
     40 H16        3.4835    5.2241   11.4863 H         1 RES1    0.0000
     41 C25        4.7702    5.8058    8.3967 C.ar      2 RES2    0.0000
     42 C26        3.4469    6.0501    8.7364 C.ar      2 RES2    0.0000
     43 H17        3.1838    6.9238    8.9160 H         2 RES2    0.0000
     44 C27        2.4930    5.0258    8.8173 C.ar      2 RES2    0.0000
     45 H18        1.6333    5.2065    9.1227 H         2 RES2    0.0000
     46 C28        2.8427    3.7496    8.4386 C.ar      2 RES2    0.0000
     47 H19        2.1963    3.0817    8.4075 H         2 RES2    0.0000
     48 C29        4.1858    3.4520    8.0959 C.ar      2 RES2    0.0000
     49 C30        4.4925    2.1703    7.5370 C.ar      2 RES2    0.0000
     50 H20        3.8362    1.5129    7.4949 H         2 RES2    0.0000
     51 C31        5.7401    1.9130    7.0695 C.ar      2 RES2    0.0000
     52 H21        5.8973    1.1393    6.5785 H         2 RES2    0.0000
     53 C32        6.8167    2.8193    7.3248 C.ar      2 RES2    0.0000
     54 C33        8.1471    2.4699    6.9272 C.ar      2 RES2    0.0000
     55 H22        8.2841    1.7249    6.3885 H         2 RES2    0.0000
     56 C34        9.2090    3.2087    7.3252 C.ar      2 RES2    0.0000
     57 H23       10.0557    3.0136    6.9957 H         2 RES2    0.0000
     58 C35        9.0383    4.2876    8.2481 C.ar      2 RES2    0.0000
     59 C36       10.1659    4.9013    8.8545 C.ar      2 RES2    0.0000
     60 H24       11.0213    4.6737    8.5714 H         2 RES2    0.0000
     61 C37       10.0065    5.8282    9.8556 C.ar      2 RES2    0.0000
     62 H25       10.7495    6.2371   10.2365 H         2 RES2    0.0000
     63 C38        8.7139    6.1565   10.3034 C.ar      2 RES2    0.0000
     64 H26        8.6064    6.7535   11.0095 H         2 RES2    0.0000
     65 C39        7.6056    5.5994    9.7029 C.ar      2 RES2    0.0000
     66 H27        6.7578    5.8350   10.0056 H         2 RES2    0.0000
     67 C40        7.7260    4.6802    8.6390 C.ar      2 RES2    0.0000
     68 C41        6.5833    4.0210    8.0302 C.ar      2 RES2    0.0000
     69 C42        5.1969    4.4519    8.2052 C.ar      2 RES2    0.0000
     70 C43        5.6146    6.9924    8.0670 C.ar      2 RES2    0.0000
     71 C44        6.4316    6.9988    6.9277 C.ar      2 RES2    0.0000
     72 H28        6.4768    6.2437    6.3867 H         2 RES2    0.0000
     73 C45        7.1750    8.1270    6.6007 C.ar      2 RES2    0.0000
     74 H29        7.7245    8.1158    5.8502 H         2 RES2    0.0000
     75 C46        7.1045    9.2762    7.3883 C.ar      2 RES2    0.0000
     76 H30        7.6074   10.0275    7.1671 H         2 RES2    0.0000
     77 C47        6.2807    9.2902    8.5012 C.ar      2 RES2    0.0000
     78 H31        6.2214   10.0560    9.0240 H         2 RES2    0.0000
     79 C48        5.5416    8.1597    8.8376 C.ar      2 RES2    0.0000
     80 H32        4.9901    8.1795    9.5865 H         2 RES2    0.0000
@<TRIPOS>BOND
     1    1    2 ar
     2    2    3 1
     3    4    2 ar
     4    5    4 1
     5    6    4 ar
     6    7    6 1
     7    8    6 ar
     8    9    8 ar
     9   10    9 1
    10   11    9 ar
    11   12   11 1
    12   13   11 ar
    13   14   13 ar
    14   15   14 1
    15   16   14 ar
    16   17   16 1
    17   18   16 ar
    18   19   18 ar
    19   20   19 1
    20   21   19 ar
    21   22   21 1
    22   23   21 ar
    23   24   23 1
    24   25   23 ar
    25   26   25 1
    26   27   18 ar
    27   28   13 ar
    28   29    1 ar
    29   30    1 1
    30   31   30 ar
    31   32   31 1
    32   33   31 ar
    33   34   33 1
    34   35   33 ar
    35   36   35 1
    36   37   35 ar
    37   38   37 1
    38   39   30 ar
    39   40   39 1
    40   41   42 ar
    41   42   43 1
    42   44   42 ar
    43   45   44 1
    44   46   44 ar
    45   47   46 1
    46   48   46 ar
    47   49   48 ar
    48   50   49 1
    49   51   49 ar
    50   52   51 1
    51   53   51 ar
    52   54   53 ar
    53   55   54 1
    54   56   54 ar
    55   57   56 1
    56   58   56 ar
    57   59   58 ar
    58   60   59 1
    59   61   59 ar
    60   62   61 1
    61   63   61 ar
    62   64   63 1
    63   65   63 ar
    64   66   65 1
    65   67   58 ar
    66   68   53 ar
    67   69   41 ar
    68   70   41 1
    69   71   70 ar
    70   72   71 1
    71   73   71 ar
    72   74   73 1
    73   75   73 ar
    74   76   75 1
    75   77   75 ar
    76   78   77 1
    77   79   70 ar
    78   80   79 1
    79    8   29 ar
    80   25   27 ar
    81   27   28 ar
    82   28   29 ar
    83   37   39 ar
    84   48   69 ar
    85   65   67 ar
    86   67   68 ar
    87   68   69 ar
    88   77   79 ar
@<TRIPOS>SUBSTRUCTURE
     1 RES1 1
     2 RES2 41

@<TRIPOS>CRYSIN
  15.4509   10.9866   19.2350  90.0000 104.4630  90.0000   9 1

