# MOL2 file generated by ConQuest
# Please check atom types

@<TRIPOS>MOLECULE
BONJUJ
    41    45     1
SMALL
NO_CHARGES
****
Generated from CSD

@<TRIPOS>ATOM
      1 C1         1.3727    3.5755    2.8177 C.ar      1 RES1    0.0000
      2 C2         2.4551    2.7808    3.1413 C.ar      1 RES1    0.0000
      3 C3         2.4779    1.4040    2.8750 C.ar      1 RES1    0.0000
      4 C4         1.4116    0.8216    2.3078 C.ar      1 RES1    0.0000
      5 C5        -0.8159    0.9157    1.3126 C.ar      1 RES1    0.0000
      6 C6        -1.8997    1.5957    0.8990 C.ar      1 RES1    0.0000
      7 C7        -1.9384    2.9888    1.0546 C.ar      1 RES1    0.0000
      8 C8        -0.9207    3.6948    1.6341 C.ar      1 RES1    0.0000
      9 C9         0.2432    2.9966    2.1379 C.ar      1 RES1    0.0000
     10 C10        0.2765    1.5736    1.9198 C.ar      1 RES1    0.0000
     11 C11        1.4847    5.0008    3.2518 C.ar      1 RES1    0.0000
     12 C12        0.6092    5.5355    4.1784 C.ar      1 RES1    0.0000
     13 C13        0.6005    6.8869    4.5061 C.ar      1 RES1    0.0000
     14 C14        1.6145    7.6872    3.9798 C.ar      1 RES1    0.0000
     15 C15        2.5726    7.1473    3.1535 C.ar      1 RES1    0.0000
     16 C16        2.5036    5.8241    2.7563 C.ar      1 RES1    0.0000
     17 C17       -1.0824    5.1810    1.6863 C.ar      1 RES1    0.0000
     18 C18       -1.7302    5.7859    2.7460 C.ar      1 RES1    0.0000
     19 C19       -1.6632    7.1596    2.9631 C.ar      1 RES1    0.0000
     20 C20       -1.1327    7.9415    1.9331 C.ar      1 RES1    0.0000
     21 C21       -0.6097    7.3655    0.8078 C.ar      1 RES1    0.0000
     22 C22       -0.5316    5.9925    0.6932 C.ar      1 RES1    0.0000
     23 C23       -0.5875    7.4642    5.2320 C.3       1 RES1    0.0000
     24 C24       -1.8396    7.7091    4.3392 C.3       1 RES1    0.0000
     25 H1         3.2190    3.1920    3.6962 H         1 RES1    0.0000
     26 H2         3.3110    0.8795    3.2457 H         1 RES1    0.0000
     27 H3         1.4055   -0.1042    2.0170 H         1 RES1    0.0000
     28 H4        -0.7285   -0.0498    1.0853 H         1 RES1    0.0000
     29 H5        -2.6268    1.1194    0.3891 H         1 RES1    0.0000
     30 H6        -0.1077    4.9398    4.5460 H         1 RES1    0.0000
     31 H7         1.6389    8.6210    4.3208 H         1 RES1    0.0000
     32 H8         3.3505    7.6751    2.9181 H         1 RES1    0.0000
     33 H9         3.1457    5.4314    2.0887 H         1 RES1    0.0000
     34 H10       -2.1073    5.2030    3.5426 H         1 RES1    0.0000
     35 H11       -1.0909    8.8881    2.0887 H         1 RES1    0.0000
     36 H12       -0.2539    7.8869    0.0410 H         1 RES1    0.0000
     37 H13       -0.0898    5.5179   -0.0512 H         1 RES1    0.0000
     38 H14       -2.5663    7.3697    4.8327 H         1 RES1    0.0000
     39 H15       -1.9593    8.7044    4.3924 H         1 RES1    0.0000
     40 H16       -0.8125    6.9279    5.9078 H         1 RES1    0.0000
     41 H17       -0.3290    8.3457    5.6416 H         1 RES1    0.0000
@<TRIPOS>BOND
     1    1    2 ar
     2    2    3 ar
     3    3    4 ar
     4    4   10 ar
     5    5    6 ar
     6    6    7 ar
     7    7    8 ar
     8    8    9 ar
     9    9    1 ar
    10   10    5 ar
    11   11    1 1
    12   12   11 ar
    13   13   12 ar
    14   14   13 ar
    15   15   14 ar
    16   16   11 ar
    17   17    8 1
    18   18   17 ar
    19   19   18 ar
    20   20   19 ar
    21   21   20 ar
    22   22   17 ar
    23   23   13 1
    24   24   19 1
    25   25    2 1
    26   26    3 1
    27   27    4 1
    28   28    5 1
    29   29    6 1
    30   30   12 1
    31   31   14 1
    32   32   15 1
    33   33   16 1
    34   34   18 1
    35   35   20 1
    36   36   21 1
    37   37   22 1
    38   38   24 1
    39   39   24 1
    40   40   23 1
    41   41   23 1
    42    9   10 ar
    43   15   16 ar
    44   21   22 ar
    45   23   24 1
@<TRIPOS>SUBSTRUCTURE
     1 RES1 1

@<TRIPOS>CRYSIN
   7.8480   10.2870   11.1630  99.7300 112.7900  78.4300   2 1

