# MOL2 file generated by ConQuest
# Please check atom types

@<TRIPOS>MOLECULE
BOWSOX
    54    61     1
SMALL
NO_CHARGES
****
Generated from CSD

@<TRIPOS>ATOM
      1 C1         3.3457    1.5919   16.0144 C.ar      1 RES1    0.0000
      2 C2         7.6663    2.5586   11.6416 C.ar      1 RES1    0.0000
      3 C3         4.6508    1.9853   15.5363 C.ar      1 RES1    0.0000
      4 C4         7.1645    1.6890   14.3071 C.ar      1 RES1    0.0000
      5 C5         3.1389    0.9240   17.2479 C.ar      1 RES1    0.0000
      6 H1         3.9273    0.7321   17.8067 H         1 RES1    0.0000
      7 C6         7.0623    1.6793   15.7536 C.ar      1 RES1    0.0000
      8 C7         2.2149    1.7548   15.1766 C.ar      1 RES1    0.0000
      9 C8         5.8409    1.9951   16.3704 C.ar      1 RES1    0.0000
     10 C9         8.1914    1.7554   17.9057 C.ar      1 RES1    0.0000
     11 H2         9.0470    1.6710   18.4925 H         1 RES1    0.0000
     12 C10        9.7393    1.1396   11.6168 C.ar      1 RES1    0.0000
     13 H3         9.9724    1.4987   10.6887 H         1 RES1    0.0000
     14 C11        4.7966    3.4566   19.6810 C.ar      1 RES1    0.0000
     15 H4         4.0362    3.9879   20.0572 H         1 RES1    0.0000
     16 C12        7.9448    3.1523   10.3889 C.ar      1 RES1    0.0000
     17 H5         8.7713    2.9199    9.8807 H         1 RES1    0.0000
     18 C13        5.8377    2.3890   17.7610 C.ar      1 RES1    0.0000
     19 C14        6.1448    2.3048   13.5929 C.ar      1 RES1    0.0000
     20 C15        4.7614    3.0777   18.3667 C.ar      1 RES1    0.0000
     21 H6         3.9881    3.3247   17.8110 H         1 RES1    0.0000
     22 C16        6.4560    2.8935   12.2947 C.ar      1 RES1    0.0000
     23 C17        7.1079    4.0864    9.8374 C.ar      1 RES1    0.0000
     24 H7         7.3500    4.4703    8.9462 H         1 RES1    0.0000
     25 C18       10.1674   -0.3820   13.4062 C.ar      1 RES1    0.0000
     26 C19        8.5845    1.6240   12.2711 C.ar      1 RES1    0.0000
     27 C20        4.8142    2.2860   14.1712 C.ar      1 RES1    0.0000
     28 C21        8.2366    1.5708   16.5689 C.ar      1 RES1    0.0000
     29 H8         9.1006    1.3523   16.1370 H         1 RES1    0.0000
     30 C22        5.9219    3.1648   20.4740 C.ar      1 RES1    0.0000
     31 H9         5.9647    3.4797   21.4246 H         1 RES1    0.0000
     32 C23        7.0054    2.5692   19.9112 C.ar      1 RES1    0.0000
     33 C24       10.5302    0.1757   12.1871 C.ar      1 RES1    0.0000
     34 H10       11.2745   -0.1550   11.6746 H         1 RES1    0.0000
     35 C25        9.0806    0.0959   14.0921 C.ar      1 RES1    0.0000
     36 H11        8.7954   -0.3359   14.9475 H         1 RES1    0.0000
     37 C26        3.6547    2.3485   13.3379 C.ar      1 RES1    0.0000
     38 H12        3.8241    2.4978   12.3755 H         1 RES1    0.0000
     39 C27        8.3068    1.1621   13.5794 C.ar      1 RES1    0.0000
     40 C28        5.9772    4.5042   10.5419 C.ar      1 RES1    0.0000
     41 C29        0.9271    1.4031   15.6475 C.ar      1 RES1    0.0000
     42 H13        0.1155    1.5590   15.0032 H         1 RES1    0.0000
     43 C30        7.0095    2.2021   18.5412 C.ar      1 RES1    0.0000
     44 C31        1.8921    0.5486   17.6594 C.ar      1 RES1    0.0000
     45 C32        2.4112    2.1523   13.8336 C.ar      1 RES1    0.0000
     46 H14        1.5701    2.2394   13.2436 H         1 RES1    0.0000
     47 C33        5.6613    3.9189   11.7419 C.ar      1 RES1    0.0000
     48 H15        4.9101    4.2291   12.1976 H         1 RES1    0.0000
     49 C34        0.7657    0.8131   16.8670 C.ar      1 RES1    0.0000
     50 H16        7.8503    2.4117   20.4365 H         1 RES1    0.0000
     51 H17        1.8102    0.0775   18.5354 H         1 RES1    0.0000
     52 H18       10.6816   -1.0939   13.8008 H         1 RES1    0.0000
     53 H19       -0.1223    0.5254   17.1765 H         1 RES1    0.0000
     54 H20        5.4026    5.2885   10.1850 H         1 RES1    0.0000
@<TRIPOS>BOND
     1    1    3 ar
     2    2   16 ar
     3    3    9 1
     4    4    7 1
     5    5    1 ar
     6    6    5 1
     7    7    9 ar
     8    8    1 ar
     9    9   18 ar
    10   10   11 1
    11   12   13 1
    12   14   15 1
    13   16   17 1
    14   18   20 ar
    15   19    4 ar
    16   20   14 ar
    17   21   20 1
    18   22    2 ar
    19   23   16 ar
    20   24   23 1
    21   25   33 ar
    22   26    2 ar
    23   27    3 ar
    24   28    7 ar
    25   29   28 1
    26   30   14 ar
    27   31   30 1
    28   32   30 ar
    29   33   12 ar
    30   34   33 1
    31   35   25 ar
    32   36   35 1
    33   37   27 ar
    34   38   37 1
    35   39    4 ar
    36   40   23 ar
    37   41    8 ar
    38   42   41 1
    39   43   10 ar
    40   44    5 ar
    41   45    8 ar
    42   46   45 1
    43   47   22 ar
    44   48   47 1
    45   49   41 ar
    46   50   32 1
    47   51   44 1
    48   52   25 1
    49   53   49 1
    50   54   40 1
    51   10   28 ar
    52   12   26 ar
    53   18   43 ar
    54   19   22 ar
    55   19   27 1
    56   26   39 ar
    57   32   43 ar
    58   35   39 ar
    59   37   45 ar
    60   40   47 ar
    61   44   49 ar
@<TRIPOS>SUBSTRUCTURE
     1 RES1 1

@<TRIPOS>CRYSIN
  11.2186    8.6132   21.8653  90.0000 101.4100  90.0000 231 1

