# MOL2 file generated by ConQuest
# Please check atom types

@<TRIPOS>MOLECULE
BOWTAK
    98   108     1
SMALL
NO_CHARGES
****
Generated from CSD

@<TRIPOS>ATOM
      1 C1         6.5442    7.4616    3.1730 C.3       1 RES1    0.0000
      2 C2         7.5588    8.4741    2.6463 C.ar      1 RES1    0.0000
      3 C3         8.6915    8.9591    3.3349 C.ar      1 RES1    0.0000
      4 H1         8.8635    8.6846    4.2283 H         1 RES1    0.0000
      5 C4         9.5374    9.8251    2.7078 C.ar      1 RES1    0.0000
      6 H2        10.2832   10.1738    3.1802 H         1 RES1    0.0000
      7 C5         9.3192   10.2168    1.3499 C.ar      1 RES1    0.0000
      8 C6         8.1747    9.7202    0.6366 C.ar      1 RES1    0.0000
      9 C7         8.0316   10.0964   -0.7059 C.ar      1 RES1    0.0000
     10 H3         7.2841    9.7738   -1.1947 H         1 RES1    0.0000
     11 C8         7.2705    8.8517    1.3465 C.ar      1 RES1    0.0000
     12 C9         6.0166    8.2007    0.9348 C.ar      1 RES1    0.0000
     13 C10        5.2491    8.2741   -0.2318 C.ar      1 RES1    0.0000
     14 H4         5.5245    8.8295   -0.9518 H         1 RES1    0.0000
     15 C11        4.0830    7.5299   -0.3308 C.ar      1 RES1    0.0000
     16 H5         3.5677    7.5702   -1.1274 H         1 RES1    0.0000
     17 C12        3.6575    6.7243    0.7224 C.ar      1 RES1    0.0000
     18 H6         2.8581    6.2186    0.6389 H         1 RES1    0.0000
     19 C13        4.4011    6.6582    1.8962 C.ar      1 RES1    0.0000
     20 H7         4.1078    6.1186    2.6217 H         1 RES1    0.0000
     21 C14        5.5714    7.3867    1.9942 C.ar      1 RES1    0.0000
     22 C15        7.2966    6.1384    3.3997 C.ar      1 RES1    0.0000
     23 C16        7.3732    5.1669    2.4059 C.ar      1 RES1    0.0000
     24 H8         6.8803    5.2830    1.6026 H         1 RES1    0.0000
     25 C17        8.1558    4.0321    2.5671 C.ar      1 RES1    0.0000
     26 H9         8.1924    3.3882    1.8693 H         1 RES1    0.0000
     27 C18        8.8888    3.8191    3.7325 C.ar      1 RES1    0.0000
     28 C19        8.8084    4.7849    4.7317 C.ar      1 RES1    0.0000
     29 H10        9.2955    4.6629    5.5379 H         1 RES1    0.0000
     30 C20        8.0305    5.9219    4.5725 C.ar      1 RES1    0.0000
     31 H11        7.9950    6.5651    5.2712 H         1 RES1    0.0000
     32 C21        9.7398    2.5913    3.9027 C.3       1 RES1    0.0000
     33 H12        9.2587    1.8102    3.5577 H         1 RES1    0.0000
     34 H13        9.9364    2.4589    4.8541 H         1 RES1    0.0000
     35 H14       10.5782    2.7035    3.4085 H         1 RES1    0.0000
     36 C22        5.8002    7.9342    4.4278 C.ar      1 RES1    0.0000
     37 C23        5.0396    7.0327    5.1784 C.ar      1 RES1    0.0000
     38 H15        5.0496    6.1106    4.9518 H         1 RES1    0.0000
     39 C24        4.2694    7.4645    6.2513 C.ar      1 RES1    0.0000
     40 H16        3.7621    6.8324    6.7458 H         1 RES1    0.0000
     41 C25        4.2300    8.8079    6.6129 C.ar      1 RES1    0.0000
     42 C26        4.9915    9.7030    5.8721 C.ar      1 RES1    0.0000
     43 H17        4.9822   10.6246    6.1016 H         1 RES1    0.0000
     44 C27        5.7698    9.2723    4.7972 C.ar      1 RES1    0.0000
     45 H18        6.2866    9.9040    4.3102 H         1 RES1    0.0000
     46 C28        3.3822    9.2823    7.7644 C.3       1 RES1    0.0000
     47 H19        3.6673   10.1808    8.0316 H         1 RES1    0.0000
     48 H20        3.4864    8.6688    8.5213 H         1 RES1    0.0000
     49 H21        2.4423    9.3065    7.4903 H         1 RES1    0.0000
     50 C1A       11.7246   13.6833   -3.1730 C.3       1 RES1    0.0000
     51 C2A       10.7100   12.6708   -2.6463 C.ar      1 RES1    0.0000
     52 C3A        9.5773   12.1859   -3.3349 C.ar      1 RES1    0.0000
     53 H1A        9.4053   12.4603   -4.2283 H         1 RES1    0.0000
     54 C4A        8.7314   11.3199   -2.7078 C.ar      1 RES1    0.0000
     55 H2A        7.9856   10.9712   -3.1802 H         1 RES1    0.0000
     56 C5A        8.9496   10.9281   -1.3499 C.ar      1 RES1    0.0000
     57 C6A       10.0941   11.4247   -0.6366 C.ar      1 RES1    0.0000
     58 C7A       10.2372   11.0486    0.7059 C.ar      1 RES1    0.0000
     59 H3A       10.9847   11.3711    1.1947 H         1 RES1    0.0000
     60 C8A       10.9983   12.2933   -1.3465 C.ar      1 RES1    0.0000
     61 C9A       12.2522   12.9442   -0.9348 C.ar      1 RES1    0.0000
     62 C10A      13.0196   12.8708    0.2318 C.ar      1 RES1    0.0000
     63 H4A       12.7443   12.3154    0.9518 H         1 RES1    0.0000
     64 C11A      14.1858   13.6150    0.3308 C.ar      1 RES1    0.0000
     65 H5A       14.7011   13.5747    1.1274 H         1 RES1    0.0000
     66 C12A      14.6113   14.4207   -0.7224 C.ar      1 RES1    0.0000
     67 H6A       15.4107   14.9263   -0.6389 H         1 RES1    0.0000
     68 C13A      13.8677   14.4868   -1.8962 C.ar      1 RES1    0.0000
     69 H7A       14.1610   15.0264   -2.6217 H         1 RES1    0.0000
     70 C14A      12.6974   13.7583   -1.9942 C.ar      1 RES1    0.0000
     71 C15A      10.9722   15.0066   -3.3997 C.ar      1 RES1    0.0000
     72 C16A      10.8956   15.9781   -2.4059 C.ar      1 RES1    0.0000
     73 H8A       11.3885   15.8619   -1.6026 H         1 RES1    0.0000
     74 C17A      10.1130   17.1129   -2.5671 C.ar      1 RES1    0.0000
     75 H9A       10.0764   17.7567   -1.8693 H         1 RES1    0.0000
     76 C18A       9.3800   17.3259   -3.7325 C.ar      1 RES1    0.0000
     77 C19A       9.4604   16.3601   -4.7317 C.ar      1 RES1    0.0000
     78 H10A       8.9733   16.4820   -5.5379 H         1 RES1    0.0000
     79 C20A      10.2383   15.2231   -4.5725 C.ar      1 RES1    0.0000
     80 H11A      10.2738   14.5798   -5.2712 H         1 RES1    0.0000
     81 C21A       8.5290   18.5537   -3.9027 C.3       1 RES1    0.0000
     82 H12A       9.0101   19.3347   -3.5577 H         1 RES1    0.0000
     83 H13A       8.3324   18.6861   -4.8541 H         1 RES1    0.0000
     84 H14A       7.6906   18.4414   -3.4085 H         1 RES1    0.0000
     85 C22A      12.4686   13.2108   -4.4278 C.ar      1 RES1    0.0000
     86 C23A      13.2292   14.1123   -5.1784 C.ar      1 RES1    0.0000
     87 H15A      13.2192   15.0344   -4.9518 H         1 RES1    0.0000
     88 C24A      13.9994   13.6805   -6.2513 C.ar      1 RES1    0.0000
     89 H16A      14.5067   14.3126   -6.7458 H         1 RES1    0.0000
     90 C25A      14.0388   12.3371   -6.6129 C.ar      1 RES1    0.0000
     91 C26A      13.2773   11.4420   -5.8721 C.ar      1 RES1    0.0000
     92 H17A      13.2866   10.5203   -6.1016 H         1 RES1    0.0000
     93 C27A      12.4990   11.8726   -4.7972 C.ar      1 RES1    0.0000
     94 H18A      11.9821   11.2410   -4.3102 H         1 RES1    0.0000
     95 C28A      14.8866   11.8626   -7.7644 C.3       1 RES1    0.0000
     96 H19A      14.6015   10.9642   -8.0316 H         1 RES1    0.0000
     97 H20A      14.7824   12.4762   -8.5213 H         1 RES1    0.0000
     98 H21A      15.8265   11.8384   -7.4903 H         1 RES1    0.0000
@<TRIPOS>BOND
     1    1    2 1
     2    2    3 ar
     3    3    4 1
     4    5    3 ar
     5    6    5 1
     6    7    5 ar
     7    8    7 ar
     8    9    8 ar
     9   10    9 1
    10   11    2 ar
    11   12   11 1
    12   13   12 ar
    13   14   13 1
    14   15   13 ar
    15   16   15 1
    16   17   15 ar
    17   18   17 1
    18   19   17 ar
    19   20   19 1
    20   21    1 1
    21   22    1 1
    22   23   22 ar
    23   24   23 1
    24   25   23 ar
    25   26   25 1
    26   27   25 ar
    27   28   27 ar
    28   29   28 1
    29   30   22 ar
    30   31   30 1
    31   32   27 1
    32   33   32 1
    33   34   32 1
    34   35   32 1
    35   36    1 1
    36   37   36 ar
    37   38   37 1
    38   39   37 ar
    39   40   39 1
    40   41   39 ar
    41   42   41 ar
    42   43   42 1
    43   44   36 ar
    44   45   44 1
    45   46   41 1
    46   47   46 1
    47   48   46 1
    48   49   46 1
    49   50   51 1
    50   51   52 ar
    51   52   53 1
    52   54   52 ar
    53   55   54 1
    54   56    9 ar
    55   57   56 ar
    56   58    7 ar
    57   59   58 1
    58   60   51 ar
    59   61   60 1
    60   62   61 ar
    61   63   62 1
    62   64   62 ar
    63   65   64 1
    64   66   64 ar
    65   67   66 1
    66   68   66 ar
    67   69   68 1
    68   70   50 1
    69   71   50 1
    70   72   71 ar
    71   73   72 1
    72   74   72 ar
    73   75   74 1
    74   76   74 ar
    75   77   76 ar
    76   78   77 1
    77   79   71 ar
    78   80   79 1
    79   81   76 1
    80   82   81 1
    81   83   81 1
    82   84   81 1
    83   85   50 1
    84   86   85 ar
    85   87   86 1
    86   88   86 ar
    87   89   88 1
    88   90   88 ar
    89   91   90 ar
    90   92   91 1
    91   93   85 ar
    92   94   93 1
    93   95   90 1
    94   96   95 1
    95   97   95 1
    96   98   95 1
    97    8   11 ar
    98   12   21 ar
    99   19   21 ar
   100   28   30 ar
   101   42   44 ar
   102   54   56 ar
   103   57   58 ar
   104   57   60 ar
   105   61   70 ar
   106   68   70 ar
   107   77   79 ar
   108   91   93 ar
@<TRIPOS>SUBSTRUCTURE
     1 RES1 1

@<TRIPOS>CRYSIN
   6.6302   10.8650   13.2296  86.9585  87.1522  76.6745   2 1

