# MOL2 file generated by ConQuest
# Please check atom types

@<TRIPOS>MOLECULE
BOWTEO
    92   101     1
SMALL
NO_CHARGES
****
Generated from CSD

@<TRIPOS>ATOM
      1 C1         9.1373    6.9020    5.8915 C.3       1 RES1    0.0000
      2 C2         9.8481    5.5634    5.6653 C.ar      1 RES1    0.0000
      3 C3         9.2026    4.3610    5.8576 C.ar      1 RES1    0.0000
      4 H1         8.3912    4.3434    6.3514 H         1 RES1    0.0000
      5 C4         9.7177    3.1617    5.3401 C.ar      1 RES1    0.0000
      6 H2         9.2489    2.3496    5.4935 H         1 RES1    0.0000
      7 C5        10.8908    3.1377    4.6139 C.ar      1 RES1    0.0000
      8 C6        11.6603    4.3365    4.5247 C.ar      1 RES1    0.0000
      9 C7        11.3289    1.9649    3.8290 C.ar      1 RES1    0.0000
     10 C8        10.4320    0.9325    3.5205 C.ar      1 RES1    0.0000
     11 H3         9.5383    0.9866    3.8372 H         1 RES1    0.0000
     12 C9        10.8157   -0.1618    2.7676 C.ar      1 RES1    0.0000
     13 H4        10.1975   -0.8601    2.5878 H         1 RES1    0.0000
     14 C10       12.1134   -0.2304    2.2758 C.ar      1 RES1    0.0000
     15 H5        12.3895   -0.9810    1.7635 H         1 RES1    0.0000
     16 C11       13.0044    0.8013    2.5351 C.ar      1 RES1    0.0000
     17 H6        13.8832    0.7579    2.1781 H         1 RES1    0.0000
     18 C12       12.6346    1.9042    3.3119 C.ar      1 RES1    0.0000
     19 C13        8.0918    6.7603    7.0133 C.ar      1 RES1    0.0000
     20 C14        6.7283    6.9319    6.8260 C.ar      1 RES1    0.0000
     21 H7         6.3953    7.1334    5.9588 H         1 RES1    0.0000
     22 C15        5.8369    6.8120    7.8978 C.ar      1 RES1    0.0000
     23 H8         4.9066    6.9320    7.7463 H         1 RES1    0.0000
     24 C16        6.2857    6.5202    9.1805 C.ar      1 RES1    0.0000
     25 C17        7.6587    6.3374    9.3625 C.ar      1 RES1    0.0000
     26 H9         7.9923    6.1334   10.2278 H         1 RES1    0.0000
     27 C18        8.5415    6.4485    8.3001 C.ar      1 RES1    0.0000
     28 H10        9.4699    6.3108    8.4490 H         1 RES1    0.0000
     29 C19        5.3320    6.3801   10.3425 C.3       1 RES1    0.0000
     30 H11        4.9748    5.4682   10.3638 H         1 RES1    0.0000
     31 H12        4.5947    7.0176   10.2384 H         1 RES1    0.0000
     32 H13        5.8074    6.5640   11.1795 H         1 RES1    0.0000
     33 C20        8.4701    7.3197    4.5470 C.ar      1 RES1    0.0000
     34 C21        8.1775    8.6576    4.2940 C.ar      1 RES1    0.0000
     35 H14        8.3624    9.3081    4.9612 H         1 RES1    0.0000
     36 C22        7.6210    9.0606    3.0862 C.ar      1 RES1    0.0000
     37 H15        7.4416    9.9821    2.9392 H         1 RES1    0.0000
     38 C23        7.3214    8.1381    2.0876 C.ar      1 RES1    0.0000
     39 C24        7.5627    6.7959    2.3589 C.ar      1 RES1    0.0000
     40 H16        7.3331    6.1416    1.7089 H         1 RES1    0.0000
     41 C25        8.1328    6.3896    3.5619 C.ar      1 RES1    0.0000
     42 H17        8.2942    5.4657    3.7147 H         1 RES1    0.0000
     43 C26        6.7931    8.5963    0.7524 C.3       1 RES1    0.0000
     44 H18        5.8367    8.3911    0.6922 H         1 RES1    0.0000
     45 H19        7.2730    8.1327    0.0345 H         1 RES1    0.0000
     46 H20        6.9260    9.5634    0.6625 H         1 RES1    0.0000
     47 C1A       13.6557    2.9911    3.6824 C.3       1 RES1    0.0000
     48 C2A       12.9449    4.3297    3.9087 C.ar      1 RES1    0.0000
     49 C3A       13.5904    5.5321    3.7163 C.ar      1 RES1    0.0000
     50 H1A       14.4018    5.5497    3.2226 H         1 RES1    0.0000
     51 C4A       13.0753    6.7313    4.2339 C.ar      1 RES1    0.0000
     52 H2A       13.5441    7.5435    4.0804 H         1 RES1    0.0000
     53 C5A       11.9022    6.7554    4.9601 C.ar      1 RES1    0.0000
     54 C6A       11.1327    5.5566    5.0492 C.ar      1 RES1    0.0000
     55 C7A       11.4640    7.9282    5.7449 C.ar      1 RES1    0.0000
     56 C8A       12.3610    8.9606    6.0534 C.ar      1 RES1    0.0000
     57 H3A       13.2546    8.9065    5.7367 H         1 RES1    0.0000
     58 C9A       11.9773   10.0548    6.8063 C.ar      1 RES1    0.0000
     59 H4A       12.5954   10.7532    6.9861 H         1 RES1    0.0000
     60 C10A      10.6796   10.1235    7.2981 C.ar      1 RES1    0.0000
     61 H5A       10.4035   10.8740    7.8104 H         1 RES1    0.0000
     62 C11A       9.7886    9.0918    7.0389 C.ar      1 RES1    0.0000
     63 H6A        8.9098    9.1352    7.3959 H         1 RES1    0.0000
     64 C12A      10.1583    7.9889    6.2620 C.ar      1 RES1    0.0000
     65 C13A      14.7012    3.1328    2.5606 C.ar      1 RES1    0.0000
     66 C14A      16.0646    2.9612    2.7479 C.ar      1 RES1    0.0000
     67 H7A       16.3977    2.7597    3.6151 H         1 RES1    0.0000
     68 C15A      16.9561    3.0811    1.6761 C.ar      1 RES1    0.0000
     69 H8A       17.8864    2.9611    1.8277 H         1 RES1    0.0000
     70 C16A      16.5073    3.3729    0.3935 C.ar      1 RES1    0.0000
     71 C17A      15.1343    3.5557    0.2115 C.ar      1 RES1    0.0000
     72 H9A       14.8007    3.7597   -0.6539 H         1 RES1    0.0000
     73 C18A      14.2515    3.4446    1.2738 C.ar      1 RES1    0.0000
     74 H10A      13.3231    3.5823    1.1249 H         1 RES1    0.0000
     75 C19A      17.4610    3.5129   -0.7686 C.3       1 RES1    0.0000
     76 H11A      17.8182    4.4249   -0.7899 H         1 RES1    0.0000
     77 H12A      18.1982    2.8755   -0.6644 H         1 RES1    0.0000
     78 H13A      16.9856    3.3290   -1.6055 H         1 RES1    0.0000
     79 C20A      14.3229    2.5733    5.0269 C.ar      1 RES1    0.0000
     80 C21A      14.6155    1.2355    5.2799 C.ar      1 RES1    0.0000
     81 H14A      14.4306    0.5850    4.6127 H         1 RES1    0.0000
     82 C22A      15.1720    0.8324    6.4878 C.ar      1 RES1    0.0000
     83 H15A      15.3514   -0.0890    6.6347 H         1 RES1    0.0000
     84 C23A      15.4715    1.7549    7.4863 C.ar      1 RES1    0.0000
     85 C24A      15.2302    3.0972    7.2150 C.ar      1 RES1    0.0000
     86 H16A      15.4598    3.7515    7.8650 H         1 RES1    0.0000
     87 C25A      14.6602    3.5035    6.0121 C.ar      1 RES1    0.0000
     88 H17A      14.4987    4.4274    5.8593 H         1 RES1    0.0000
     89 C26A      15.9999    1.2968    8.8215 C.3       1 RES1    0.0000
     90 H18A      16.9563    1.5020    8.8817 H         1 RES1    0.0000
     91 H19A      15.5200    1.7604    9.5395 H         1 RES1    0.0000
     92 H20A      15.8669    0.3297    8.9114 H         1 RES1    0.0000
@<TRIPOS>BOND
     1    1    2 1
     2    2    3 ar
     3    3    4 1
     4    5    3 ar
     5    6    5 1
     6    7    5 ar
     7    8    7 ar
     8    9    7 1
     9   10    9 ar
    10   11   10 1
    11   12   10 ar
    12   13   12 1
    13   14   12 ar
    14   15   14 1
    15   16   14 ar
    16   17   16 1
    17   18    9 ar
    18   19    1 1
    19   20   19 ar
    20   21   20 1
    21   22   20 ar
    22   23   22 1
    23   24   22 ar
    24   25   24 ar
    25   26   25 1
    26   27   19 ar
    27   28   27 1
    28   29   24 1
    29   30   29 1
    30   31   29 1
    31   32   29 1
    32   33    1 1
    33   34   33 ar
    34   35   34 1
    35   36   34 ar
    36   37   36 1
    37   38   36 ar
    38   39   38 ar
    39   40   39 1
    40   41   33 ar
    41   42   41 1
    42   43   38 1
    43   44   43 1
    44   45   43 1
    45   46   43 1
    46   47   18 1
    47   48    8 ar
    48   49   48 ar
    49   50   49 1
    50   51   49 ar
    51   52   51 1
    52   53   51 ar
    53   54    2 ar
    54   55   53 1
    55   56   55 ar
    56   57   56 1
    57   58   56 ar
    58   59   58 1
    59   60   58 ar
    60   61   60 1
    61   62   60 ar
    62   63   62 1
    63   64    1 1
    64   65   47 1
    65   66   65 ar
    66   67   66 1
    67   68   66 ar
    68   69   68 1
    69   70   68 ar
    70   71   70 ar
    71   72   71 1
    72   73   65 ar
    73   74   73 1
    74   75   70 1
    75   76   75 1
    76   77   75 1
    77   78   75 1
    78   79   47 1
    79   80   79 ar
    80   81   80 1
    81   82   80 ar
    82   83   82 1
    83   84   82 ar
    84   85   84 ar
    85   86   85 1
    86   87   79 ar
    87   88   87 1
    88   89   84 1
    89   90   89 1
    90   91   89 1
    91   92   89 1
    92    8   54 ar
    93   16   18 ar
    94   25   27 ar
    95   39   41 ar
    96   47   48 1
    97   53   54 ar
    98   55   64 ar
    99   62   64 ar
   100   71   73 ar
   101   85   87 ar
@<TRIPOS>SUBSTRUCTURE
     1 RES1 1

@<TRIPOS>CRYSIN
   9.2298    9.9650   10.3638  89.5556  67.4893  87.8978   2 1

