# MOL2 file generated by ConQuest
# Please check atom types

@<TRIPOS>MOLECULE
BOXGAW01
    56    66     1
SMALL
NO_CHARGES
****
Generated from CSD

@<TRIPOS>ATOM
      1 C1         1.9548    0.5480   -3.6560 C.ar      1 RES1    0.0000
      2 C2         0.8243    0.5170   -2.8446 C.ar      1 RES1    0.0000
      3 C3         0.8576    0.9768   -1.5369 C.ar      1 RES1    0.0000
      4 C4         2.0189    1.4862   -1.0049 C.ar      1 RES1    0.0000
      5 C5         3.2048    1.5403   -1.7644 C.ar      1 RES1    0.0000
      6 C6         4.4243    2.0391   -1.2629 C.ar      1 RES1    0.0000
      7 C7         5.5652    2.0989   -2.0206 C.ar      1 RES1    0.0000
      8 C8         6.7888    2.6692   -1.5387 C.ar      1 RES1    0.0000
      9 C9         7.9022    2.7040   -2.2928 C.ar      1 RES1    0.0000
     10 C10        7.9445    2.1708   -3.6381 C.ar      1 RES1    0.0000
     11 C11        9.1173    2.1692   -4.4245 C.ar      1 RES1    0.0000
     12 C12       10.4623    2.3523   -3.8727 C.ar      1 RES1    0.0000
     13 C13       10.7923    2.0437   -2.5508 C.ar      1 RES1    0.0000
     14 C14       12.0558    2.3262   -2.0403 C.ar      1 RES1    0.0000
     15 C15       13.0265    2.8976   -2.8374 C.ar      1 RES1    0.0000
     16 C16       12.7875    3.1026   -4.2059 C.ar      1 RES1    0.0000
     17 C17       13.8086    3.5727   -5.0819 C.ar      1 RES1    0.0000
     18 C18       13.6028    3.6336   -6.4164 C.ar      1 RES1    0.0000
     19 C19       12.3612    3.2365   -6.9914 C.ar      1 RES1    0.0000
     20 C20       12.1699    3.1979   -8.3886 C.ar      1 RES1    0.0000
     21 C21       11.0140    2.7316   -8.9331 C.ar      1 RES1    0.0000
     22 C22        9.9372    2.3050   -8.0948 C.ar      1 RES1    0.0000
     23 C23        8.7131    1.8353   -8.6358 C.ar      1 RES1    0.0000
     24 C24        7.6787    1.4825   -7.8368 C.ar      1 RES1    0.0000
     25 C25        7.7672    1.5937   -6.4217 C.ar      1 RES1    0.0000
     26 C26        6.6327    1.3293   -5.5583 C.ar      1 RES1    0.0000
     27 C27        5.4313    0.7828   -6.0545 C.ar      1 RES1    0.0000
     28 C28        4.3037    0.6747   -5.2610 C.ar      1 RES1    0.0000
     29 C29        3.0683    0.1324   -5.7715 C.ar      1 RES1    0.0000
     30 C30        1.9594    0.0840   -5.0102 C.ar      1 RES1    0.0000
     31 C31        3.1694    1.0691   -3.1150 C.ar      1 RES1    0.0000
     32 C32        4.3414    1.1281   -3.9139 C.ar      1 RES1    0.0000
     33 C33        5.5420    1.6432   -3.3891 C.ar      1 RES1    0.0000
     34 C34        6.7093    1.7207   -4.2041 C.ar      1 RES1    0.0000
     35 C35        8.9820    2.0138   -5.8396 C.ar      1 RES1    0.0000
     36 C36       10.0840    2.3716   -6.7012 C.ar      1 RES1    0.0000
     37 C37       11.3139    2.8295   -6.1459 C.ar      1 RES1    0.0000
     38 C38       11.5106    2.7766   -4.7290 C.ar      1 RES1    0.0000
     39 H1        -0.0415    0.1513   -3.2960 H         1 RES1    0.0000
     40 H2         0.0185    0.9681   -1.0389 H         1 RES1    0.0000
     41 H3         2.0138    1.8455   -0.0179 H         1 RES1    0.0000
     42 H4         4.4606    2.3788   -0.3045 H         1 RES1    0.0000
     43 H5         6.8120    3.0443   -0.6807 H         1 RES1    0.0000
     44 H6         8.7038    3.1465   -1.8988 H         1 RES1    0.0000
     45 H7        10.0921    1.6073   -1.9167 H         1 RES1    0.0000
     46 H8        12.2840    2.0724   -1.0927 H         1 RES1    0.0000
     47 H9        13.9430    3.1843   -2.3824 H         1 RES1    0.0000
     48 H10       14.6823    3.8083   -4.7111 H         1 RES1    0.0000
     49 H11       14.3826    3.8953   -7.0756 H         1 RES1    0.0000
     50 H12       12.9460    3.5171   -9.0101 H         1 RES1    0.0000
     51 H13       10.8882    2.6700  -10.0312 H         1 RES1    0.0000
     52 H14        8.6238    1.7812   -9.6908 H         1 RES1    0.0000
     53 H15        6.8063    1.1875   -8.1682 H         1 RES1    0.0000
     54 H16        5.3995    0.4387   -7.1114 H         1 RES1    0.0000
     55 H17        3.0969   -0.1815   -6.8069 H         1 RES1    0.0000
     56 H18        1.1162   -0.2307   -5.3201 H         1 RES1    0.0000
@<TRIPOS>BOND
     1    1    2 ar
     2    2    3 ar
     3    3    4 ar
     4    4    5 ar
     5    5    6 ar
     6    6    7 ar
     7    7    8 ar
     8    8    9 ar
     9    9   10 ar
    10   10   11 ar
    11   11   12 ar
    12   12   13 ar
    13   13   14 ar
    14   14   15 ar
    15   15   16 ar
    16   16   17 ar
    17   17   18 ar
    18   18   19 ar
    19   19   20 ar
    20   20   21 ar
    21   21   22 ar
    22   22   23 ar
    23   23   24 ar
    24   24   25 ar
    25   25   26 ar
    26   26   27 ar
    27   27   28 ar
    28   28   29 ar
    29   29   30 ar
    30   30    1 ar
    31   31    1 ar
    32   32   28 ar
    33   33    7 ar
    34   34   10 ar
    35   35   11 ar
    36   36   22 ar
    37   37   19 ar
    38   38   12 ar
    39   39    2 1
    40   40    3 1
    41   41    4 1
    42   42    6 1
    43   43    8 1
    44   44    9 1
    45   45   13 1
    46   46   14 1
    47   47   15 1
    48   48   17 1
    49   49   18 1
    50   50   20 1
    51   51   21 1
    52   52   23 1
    53   53   24 1
    54   54   27 1
    55   55   29 1
    56   56   30 1
    57    5   31 ar
    58   16   38 ar
    59   25   35 ar
    60   26   34 ar
    61   31   32 ar
    62   32   33 ar
    63   33   34 ar
    64   35   36 ar
    65   36   37 ar
    66   37   38 ar
@<TRIPOS>SUBSTRUCTURE
     1 RES1 1

@<TRIPOS>CRYSIN
  31.2760    3.7818   21.6630  90.0000 124.2200  90.0000  14 2

