# MOL2 file generated by ConQuest
# Please check atom types

@<TRIPOS>MOLECULE
BOXGAW
   112   132     2
SMALL
NO_CHARGES
****
Generated from CSD

@<TRIPOS>ATOM
      1 C1        -4.6433    0.5446    5.5351 C.ar      1 RES1    0.0000
      2 C2        -5.8080    0.5060    6.3232 C.ar      1 RES1    0.0000
      3 C3        -5.7749    0.9545    7.6541 C.ar      1 RES1    0.0000
      4 C4        -4.5764    1.4409    8.2005 C.ar      1 RES1    0.0000
      5 C5        -3.4084    1.4802    7.4213 C.ar      1 RES1    0.0000
      6 C6        -2.2209    2.0259    7.9515 C.ar      1 RES1    0.0000
      7 C7        -1.0182    2.1250    7.2224 C.ar      1 RES1    0.0000
      8 C8         0.1970    2.6272    7.7258 C.ar      1 RES1    0.0000
      9 C9         1.3324    2.6703    6.9072 C.ar      1 RES1    0.0000
     10 C10        1.2692    2.2067    5.5745 C.ar      1 RES1    0.0000
     11 C11        2.5008    2.1764    4.8168 C.ar      1 RES1    0.0000
     12 C12        3.9099    2.2324    5.3201 C.ar      1 RES1    0.0000
     13 C13        4.1831    1.9941    6.6797 C.ar      1 RES1    0.0000
     14 C14        5.4513    2.2872    7.2063 C.ar      1 RES1    0.0000
     15 C15        6.4520    2.8197    6.3787 C.ar      1 RES1    0.0000
     16 C16        6.1925    3.0466    5.0174 C.ar      1 RES1    0.0000
     17 C17        7.2413    3.4467    4.1880 C.ar      1 RES1    0.0000
     18 C18        7.0293    3.5923    2.8535 C.ar      1 RES1    0.0000
     19 C19        5.8077    3.2183    2.2445 C.ar      1 RES1    0.0000
     20 C20        5.5686    3.1990    0.8670 C.ar      1 RES1    0.0000
     21 C21        4.4259    2.6571    0.3260 C.ar      1 RES1    0.0000
     22 C22        3.3623    2.2286    1.1679 C.ar      1 RES1    0.0000
     23 C23        2.1583    1.7884    0.5929 C.ar      1 RES1    0.0000
     24 C24        1.0698    1.4560    1.4115 C.ar      1 RES1    0.0000
     25 C25        1.1743    1.5607    2.8123 C.ar      1 RES1    0.0000
     26 C26        0.0333    1.3100    3.6667 C.ar      1 RES1    0.0000
     27 C27       -1.1819    0.8524    3.1634 C.ar      1 RES1    0.0000
     28 C28       -2.2844    0.6357    3.9659 C.ar      1 RES1    0.0000
     29 C29       -3.5302    0.1388    3.4661 C.ar      1 RES1    0.0000
     30 C30       -4.6740    0.0843    4.2006 C.ar      1 RES1    0.0000
     31 C31       -3.4398    1.0302    6.0832 C.ar      1 RES1    0.0000
     32 C32       -2.2711    1.1266    5.3076 C.ar      1 RES1    0.0000
     33 C33       -1.0895    1.6727    5.8879 C.ar      1 RES1    0.0000
     34 C34        0.0495    1.7196    5.0639 C.ar      1 RES1    0.0000
     35 C35        2.3821    1.9972    3.3909 C.ar      1 RES1    0.0000
     36 C36        3.4749    2.3288    2.5705 C.ar      1 RES1    0.0000
     37 C37        4.7247    2.8242    3.0828 C.ar      1 RES1    0.0000
     38 C38        4.9205    2.7505    4.4872 C.ar      1 RES1    0.0000
     39 H1        -6.7291    0.1210    5.8933 H         1 RES1    0.0000
     40 H2        -6.6361    0.9417    8.2399 H         1 RES1    0.0000
     41 H3        -4.5539    1.7737    9.2251 H         1 RES1    0.0000
     42 H4        -2.2131    2.3788    8.9564 H         1 RES1    0.0000
     43 H5         0.2597    2.9725    8.7235 H         1 RES1    0.0000
     44 H6         2.2351    3.0595    7.2905 H         1 RES1    0.0000
     45 H7         3.4305    1.5770    7.3263 H         1 RES1    0.0000
     46 H8         5.6553    2.0800    8.2399 H         1 RES1    0.0000
     47 H9         7.4240    3.0595    6.7889 H         1 RES1    0.0000
     48 H10        8.1910    3.6305    4.6036 H         1 RES1    0.0000
     49 H11        7.7974    3.9860    2.2391 H         1 RES1    0.0000
     50 H12        6.2845    3.6154    0.2329 H         1 RES1    0.0000
     51 H13        4.3395    2.5376   -0.7703 H         1 RES1    0.0000
     52 H14        2.0560    1.7018   -0.4478 H         1 RES1    0.0000
     53 H15        0.1431    1.1345    0.9852 H         1 RES1    0.0000
     54 H16       -1.2377    0.6316    2.0958 H         1 RES1    0.0000
     55 H17       -3.5578   -0.1891    2.4720 H         1 RES1    0.0000
     56 H18       -5.5609   -0.2761    3.7617 H         1 RES1    0.0000
     57 C39        7.0735   -1.3467   12.8274 C.ar      2 RES2    0.0000
     58 C40        8.1807   -1.3686   12.0410 C.ar      2 RES2    0.0000
     59 C41        8.1705   -0.8883   10.7316 C.ar      2 RES2    0.0000
     60 C42        7.0231   -0.3536   10.2067 C.ar      2 RES2    0.0000
     61 C43        5.8342   -0.3105   10.9752 C.ar      2 RES2    0.0000
     62 C44        4.5716    0.1675   10.4772 C.ar      2 RES2    0.0000
     63 C45        3.4851    0.1989   11.2976 C.ar      2 RES2    0.0000
     64 C46        2.2747    0.8097   10.7871 C.ar      2 RES2    0.0000
     65 C47        1.1337    0.8373   11.5036 C.ar      2 RES2    0.0000
     66 C48        1.0621    0.2814   12.8506 C.ar      2 RES2    0.0000
     67 C49       -0.0858    0.2817   13.6693 C.ar      2 RES2    0.0000
     68 C50       -1.4174    0.5079   13.0978 C.ar      2 RES2    0.0000
     69 C51       -1.7424    0.2106   11.7777 C.ar      2 RES2    0.0000
     70 C52       -3.0226    0.4720   11.2779 C.ar      2 RES2    0.0000
     71 C53       -3.9852    1.0449   12.0679 C.ar      2 RES2    0.0000
     72 C54       -3.7295    1.2968   13.4256 C.ar      2 RES2    0.0000
     73 C55       -4.7543    1.7544   14.3392 C.ar      2 RES2    0.0000
     74 C56       -4.5464    1.7805   15.6844 C.ar      2 RES2    0.0000
     75 C57       -3.2847    1.3781   16.2344 C.ar      2 RES2    0.0000
     76 C58       -3.1320    1.3009   17.6423 C.ar      2 RES2    0.0000
     77 C59       -1.9571    0.9069   18.1958 C.ar      2 RES2    0.0000
     78 C60       -0.8749    0.4678   17.3450 C.ar      2 RES2    0.0000
     79 C61        0.3542   -0.0061   17.8877 C.ar      2 RES2    0.0000
     80 C62        1.3658   -0.3831   17.0763 C.ar      2 RES2    0.0000
     81 C63        1.2697   -0.2704   15.6540 C.ar      2 RES2    0.0000
     82 C64        2.4095   -0.5249   14.8013 C.ar      2 RES2    0.0000
     83 C65        3.6105   -1.1451   15.2796 C.ar      2 RES2    0.0000
     84 C66        4.7479   -1.1754   14.4717 C.ar      2 RES2    0.0000
     85 C67        5.9637   -1.7729   15.0109 C.ar      2 RES2    0.0000
     86 C68        7.0570   -1.8081   14.2174 C.ar      2 RES2    0.0000
     87 C69        5.8585   -0.7968   12.3007 C.ar      2 RES2    0.0000
     88 C70        4.6821   -0.7526   13.1337 C.ar      2 RES2    0.0000
     89 C71        3.4611   -0.2700   12.6572 C.ar      2 RES2    0.0000
     90 C72        2.2758   -0.1974   13.4436 C.ar      2 RES2    0.0000
     91 C73        0.0450    0.1645   15.0772 C.ar      2 RES2    0.0000
     92 C74       -1.0436    0.5208   15.9513 C.ar      2 RES2    0.0000
     93 C75       -2.2614    0.9356   15.3781 C.ar      2 RES2    0.0000
     94 C76       -2.4327    0.9810   13.9469 C.ar      2 RES2    0.0000
     95 H19        9.0911   -1.7774   12.4315 H         2 RES2    0.0000
     96 H20        9.0363   -0.9228   10.1207 H         2 RES2    0.0000
     97 H21        7.0304    0.0189    9.2072 H         2 RES2    0.0000
     98 H22        4.4707    0.5143    9.4759 H         2 RES2    0.0000
     99 H23        2.2879    1.2518    9.8341 H         2 RES2    0.0000
    100 H24        0.2779    1.2934   11.0880 H         2 RES2    0.0000
    101 H25       -1.0097   -0.2307   11.1418 H         2 RES2    0.0000
    102 H26       -3.2588    0.2042   10.2640 H         2 RES2    0.0000
    103 H27       -4.9284    1.3161   11.6612 H         2 RES2    0.0000
    104 H28       -5.6746    2.0989   13.9541 H         2 RES2    0.0000
    105 H29       -5.3367    2.0876   16.3544 H         2 RES2    0.0000
    106 H30       -3.9505    1.5468   18.2711 H         2 RES2    0.0000
    107 H31       -1.8179    0.9190   19.2742 H         2 RES2    0.0000
    108 H32        0.4656   -0.0529   18.9517 H         2 RES2    0.0000
    109 H33        2.2777   -0.7601   17.4829 H         2 RES2    0.0000
    110 H34        3.6257   -1.5997   16.2827 H         2 RES2    0.0000
    111 H35        5.9665   -2.1443   16.0140 H         2 RES2    0.0000
    112 H36        7.9610   -2.1897   14.5989 H         2 RES2    0.0000
@<TRIPOS>BOND
     1    1    2 ar
     2    2    3 ar
     3    3    4 ar
     4    4    5 ar
     5    5    6 ar
     6    6    7 ar
     7    7    8 ar
     8    8    9 ar
     9    9   10 ar
    10   10   11 ar
    11   11   12 ar
    12   12   13 ar
    13   13   14 ar
    14   14   15 ar
    15   15   16 ar
    16   16   17 ar
    17   17   18 ar
    18   18   19 ar
    19   19   20 ar
    20   20   21 ar
    21   21   22 ar
    22   22   23 ar
    23   23   24 ar
    24   24   25 ar
    25   25   26 ar
    26   26   27 ar
    27   27   28 ar
    28   28   29 ar
    29   29   30 ar
    30   30    1 ar
    31   31    1 ar
    32   32   28 ar
    33   33    7 ar
    34   34   10 ar
    35   35   11 ar
    36   36   22 ar
    37   37   19 ar
    38   38   12 ar
    39   39    2 1
    40   40    3 1
    41   41    4 1
    42   42    6 1
    43   43    8 1
    44   44    9 1
    45   45   13 1
    46   46   14 1
    47   47   15 1
    48   48   17 1
    49   49   18 1
    50   50   20 1
    51   51   21 1
    52   52   23 1
    53   53   24 1
    54   54   27 1
    55   55   29 1
    56   56   30 1
    57   57   58 ar
    58   58   59 ar
    59   59   60 ar
    60   60   61 ar
    61   61   62 ar
    62   62   63 ar
    63   63   64 ar
    64   64   65 ar
    65   65   66 ar
    66   66   67 ar
    67   67   68 ar
    68   68   69 ar
    69   69   70 ar
    70   70   71 ar
    71   71   72 ar
    72   72   73 ar
    73   73   74 ar
    74   74   75 ar
    75   75   76 ar
    76   76   77 ar
    77   77   78 ar
    78   78   79 ar
    79   79   80 ar
    80   80   81 ar
    81   81   82 ar
    82   82   83 ar
    83   83   84 ar
    84   84   85 ar
    85   85   86 ar
    86   86   57 ar
    87   87   57 ar
    88   88   84 ar
    89   89   63 ar
    90   90   66 ar
    91   91   67 ar
    92   92   78 ar
    93   93   75 ar
    94   94   68 ar
    95   95   58 1
    96   96   59 1
    97   97   60 1
    98   98   62 1
    99   99   64 1
   100  100   65 1
   101  101   69 1
   102  102   70 1
   103  103   71 1
   104  104   73 1
   105  105   74 1
   106  106   76 1
   107  107   77 1
   108  108   79 1
   109  109   80 1
   110  110   83 1
   111  111   85 1
   112  112   86 1
   113    5   31 ar
   114   16   38 ar
   115   25   35 ar
   116   26   34 ar
   117   31   32 ar
   118   32   33 ar
   119   33   34 ar
   120   35   36 ar
   121   36   37 ar
   122   37   38 ar
   123   61   87 ar
   124   72   94 ar
   125   81   91 ar
   126   82   90 ar
   127   87   88 ar
   128   88   89 ar
   129   89   90 ar
   130   91   92 ar
   131   92   93 ar
   132   93   94 ar
@<TRIPOS>SUBSTRUCTURE
     1 RES1 1
     2 RES2 57

@<TRIPOS>CRYSIN
  31.2760    3.7818   21.6630  90.0000 124.2200  90.0000   7 2

