# MOL2 file generated by ConQuest
# Please check atom types

@<TRIPOS>MOLECULE
BOXSUE
   212   226     2
SMALL
NO_CHARGES
****
Generated from CSD

@<TRIPOS>ATOM
      1 C1         9.8372    6.2682   38.7599 C.ar      1 RES1    0.0000
      2 C2         9.3051    5.9438   37.4975 C.ar      1 RES1    0.0000
      3 H1         8.3619    5.8656   37.4111 H         1 RES1    0.0000
      4 C3        10.0863    5.7339   36.3824 C.ar      1 RES1    0.0000
      5 C4        11.5100    5.8948   36.4675 C.ar      1 RES1    0.0000
      6 C5        12.4121    5.9420   35.3371 C.ar      1 RES1    0.0000
      7 C6        11.9358    6.2736   34.0211 C.ar      1 RES1    0.0000
      8 H2        11.0043    6.3925   33.8828 H         1 RES1    0.0000
      9 C7        12.7859    6.4202   32.9780 C.ar      1 RES1    0.0000
     10 H3        12.4415    6.7043   32.1378 H         1 RES1    0.0000
     11 C8        14.1880    6.1599   33.1001 C.ar      1 RES1    0.0000
     12 C9        15.0199    6.2992   31.9829 C.ar      1 RES1    0.0000
     13 H4        14.6410    6.5477   31.1504 H         1 RES1    0.0000
     14 C10       16.3809    6.0826   32.0697 C.ar      1 RES1    0.0000
     15 C11       16.8884    5.6531   33.3150 C.ar      1 RES1    0.0000
     16 H5        17.8150    5.4569   33.3806 H         1 RES1    0.0000
     17 C12       16.1099    5.5049   34.4374 C.ar      1 RES1    0.0000
     18 C13       14.7081    5.8129   34.3833 C.ar      1 RES1    0.0000
     19 C14       13.8135    5.8378   35.5329 C.ar      1 RES1    0.0000
     20 C15       14.3053    5.9309   36.8753 C.ar      1 RES1    0.0000
     21 H6        15.2416    5.8755   37.0281 H         1 RES1    0.0000
     22 C16       13.4717    6.0967   37.9316 C.ar      1 RES1    0.0000
     23 H7        13.8389    6.2244   38.7986 H         1 RES1    0.0000
     24 C17       12.0533    6.0827   37.7703 C.ar      1 RES1    0.0000
     25 C18       11.2179    6.2881   38.8790 C.ar      1 RES1    0.0000
     26 H8        11.6076    6.4452   39.7307 H         1 RES1    0.0000
     27 C19        8.9462    6.5156   39.9188 C.ar      1 RES1    0.0000
     28 C20        9.2655    7.4275   40.9271 C.ar      1 RES1    0.0000
     29 H9        10.0829    7.9091   40.8798 H         1 RES1    0.0000
     30 C21        8.4061    7.6429   41.9992 C.ar      1 RES1    0.0000
     31 H10        8.6510    8.2651   42.6759 H         1 RES1    0.0000
     32 C22        7.1924    6.9648   42.1030 C.ar      1 RES1    0.0000
     33 C23        6.8746    6.0565   41.0990 C.ar      1 RES1    0.0000
     34 H11        6.0524    5.5836   41.1437 H         1 RES1    0.0000
     35 C24        7.7287    5.8258   40.0342 C.ar      1 RES1    0.0000
     36 H12        7.4869    5.1906   39.3689 H         1 RES1    0.0000
     37 C25        6.2287    7.1995   43.2381 C.3       1 RES1    0.0000
     38 H13        6.7444    7.3138   44.0762 H         1 RES1    0.0000
     39 H14        5.6586    6.3967   43.3441 H         1 RES1    0.0000
     40 C26        5.3285    8.4203   43.0441 C.3       1 RES1    0.0000
     41 H15        5.8641    9.2434   43.1739 H         1 RES1    0.0000
     42 H16        4.9824    8.4260   42.1184 H         1 RES1    0.0000
     43 C27        4.1525    8.4274   44.0183 C.3       1 RES1    0.0000
     44 H17        3.6884    7.5545   43.9613 H         1 RES1    0.0000
     45 H18        4.5051    8.5200   44.9402 H         1 RES1    0.0000
     46 C28        3.1475    9.5253   43.7723 C.3       1 RES1    0.0000
     47 H19        2.8492    9.4798   42.8291 H         1 RES1    0.0000
     48 H20        3.5930   10.3997   43.9017 H         1 RES1    0.0000
     49 C29        1.9145    9.4570   44.6856 C.3       1 RES1    0.0000
     50 H21        1.5724    8.5285   44.6933 H         1 RES1    0.0000
     51 H22        2.1863    9.6863   45.6084 H         1 RES1    0.0000
     52 C30        0.8034   10.3855   44.2588 C.3       1 RES1    0.0000
     53 H23        1.1296   11.3096   44.2677 H         1 RES1    0.0000
     54 H24        0.0504   10.2986   44.8806 H         1 RES1    0.0000
     55 H25        0.5118   10.1505   43.3526 H         1 RES1    0.0000
     56 C31        9.3806    5.2786   35.1554 C.ar      1 RES1    0.0000
     57 C32        8.2872    5.9858   34.6651 C.ar      1 RES1    0.0000
     58 H26        7.9775    6.7528   35.1298 H         1 RES1    0.0000
     59 C33        7.6444    5.5828   33.5027 C.ar      1 RES1    0.0000
     60 H27        6.9115    6.0863   33.1678 H         1 RES1    0.0000
     61 C34        8.0677    4.4522   32.8324 C.ar      1 RES1    0.0000
     62 H28        7.6314    4.1795   32.0357 H         1 RES1    0.0000
     63 C35        9.1372    3.7132   33.3316 C.ar      1 RES1    0.0000
     64 H29        9.4200    2.9264   32.8784 H         1 RES1    0.0000
     65 C36        9.7880    4.1182   34.4787 C.ar      1 RES1    0.0000
     66 H30       10.5164    3.6085   34.8106 H         1 RES1    0.0000
     67 C37       17.3122    6.3082   30.9397 C.ar      1 RES1    0.0000
     68 C38       17.1080    7.3397   30.0166 C.ar      1 RES1    0.0000
     69 H31       16.3182    7.8663   30.0693 H         1 RES1    0.0000
     70 C39       18.0424    7.6073   29.0228 C.ar      1 RES1    0.0000
     71 H32       17.8866    8.3206   28.4137 H         1 RES1    0.0000
     72 C40       19.2117    6.8426   28.9002 C.ar      1 RES1    0.0000
     73 C41       19.3944    5.8016   29.8029 C.ar      1 RES1    0.0000
     74 H33       20.1710    5.2589   29.7331 H         1 RES1    0.0000
     75 C42       18.4745    5.5349   30.8005 C.ar      1 RES1    0.0000
     76 H34       18.6317    4.8161   31.4015 H         1 RES1    0.0000
     77 C43       20.2081    7.0875   27.7915 C.3       1 RES1    0.0000
     78 H35       21.1243    6.9379   28.1328 H         1 RES1    0.0000
     79 H36       20.1432    8.0287   27.4944 H         1 RES1    0.0000
     80 C44       19.9523    6.1575   26.6028 C.3       1 RES1    0.0000
     81 H37       19.0348    6.3141   26.2644 H         1 RES1    0.0000
     82 H38       20.0026    5.2191   26.9156 H         1 RES1    0.0000
     83 C45       20.9427    6.3526   25.4523 C.3       1 RES1    0.0000
     84 H39       20.6417    5.8143   24.6769 H         1 RES1    0.0000
     85 H40       20.9294    7.3038   25.1791 H         1 RES1    0.0000
     86 C46       22.3745    5.9610   25.7945 C.3       1 RES1    0.0000
     87 H41       22.3600    5.0952   26.2729 H         1 RES1    0.0000
     88 H42       22.7484    6.6374   26.4134 H         1 RES1    0.0000
     89 C47       23.3013    5.8357   24.5913 C.3       1 RES1    0.0000
     90 H43       22.9738    5.1080   24.0044 H         1 RES1    0.0000
     91 H44       23.2708    6.6787   24.0725 H         1 RES1    0.0000
     92 C48       24.7318    5.5494   24.9786 C.3       1 RES1    0.0000
     93 H45       25.1031    6.3227   25.4515 H         1 RES1    0.0000
     94 H46       25.2608    5.3771   24.1704 H         1 RES1    0.0000
     95 H47       24.7610    4.7634   25.5621 H         1 RES1    0.0000
     96 C49       16.8199    4.9800   35.6431 C.ar      1 RES1    0.0000
     97 C50       17.8092    5.7522   36.2518 C.ar      1 RES1    0.0000
     98 H48       18.0338    6.6018   35.8874 H         1 RES1    0.0000
     99 C51       18.4704    5.2874   37.3877 C.ar      1 RES1    0.0000
    100 H49       19.1250    5.8300   37.8112 H         1 RES1    0.0000
    101 C52       18.1730    4.0371   37.8959 C.ar      1 RES1    0.0000
    102 H50       18.6172    3.7224   38.6752 H         1 RES1    0.0000
    103 C53       17.2237    3.2381   37.2664 C.ar      1 RES1    0.0000
    104 H51       17.0421    2.3667   37.5984 H         1 RES1    0.0000
    105 C54       16.5408    3.7129   36.1526 C.ar      1 RES1    0.0000
    106 H52       15.8807    3.1713   35.7385 H         1 RES1    0.0000
    107 C55        3.2624    8.7542   38.7305 C.ar      2 RES2    0.0000
    108 C56        2.7132    9.1639   37.5005 C.ar      2 RES2    0.0000
    109 H53        1.7686    9.2434   37.4324 H         2 RES2    0.0000
    110 C57        3.4780    9.4544   36.3926 C.ar      2 RES2    0.0000
    111 C58        4.9017    9.2992   36.4578 C.ar      2 RES2    0.0000
    112 C59        5.7969    9.2922   35.3031 C.ar      2 RES2    0.0000
    113 C60        5.3156    8.9920   33.9913 C.ar      2 RES2    0.0000
    114 H54        4.3818    8.8831   33.8530 H         2 RES2    0.0000
    115 C61        6.1575    8.8589   32.9405 C.ar      2 RES2    0.0000
    116 H55        5.8071    8.5983   32.0953 H         2 RES2    0.0000
    117 C62        7.5625    9.0997   33.0678 C.ar      2 RES2    0.0000
    118 C63        8.3919    8.9633   31.9352 C.ar      2 RES2    0.0000
    119 H56        8.0080    8.7293   31.0993 H         2 RES2    0.0000
    120 C64        9.7619    9.1655   32.0276 C.ar      2 RES2    0.0000
    121 C65       10.2622    9.5777   33.2712 C.ar      2 RES2    0.0000
    122 H57       11.1926    9.7617   33.3380 H         2 RES2    0.0000
    123 C66        9.4915    9.7342   34.4072 C.ar      2 RES2    0.0000
    124 C67        8.0896    9.4356   34.3467 C.ar      2 RES2    0.0000
    125 C68        7.2032    9.3889   35.4993 C.ar      2 RES2    0.0000
    126 C69        7.7091    9.2425   36.8293 C.ar      2 RES2    0.0000
    127 H58        8.6457    9.3046   36.9770 H         2 RES2    0.0000
    128 C70        6.8871    9.0178   37.8797 C.ar      2 RES2    0.0000
    129 H59        7.2655    8.8404   38.7348 H         2 RES2    0.0000
    130 C71        5.4660    9.0393   37.7397 C.ar      2 RES2    0.0000
    131 C72        4.6418    8.7566   38.8437 C.ar      2 RES2    0.0000
    132 H60        5.0394    8.5627   39.6839 H         2 RES2    0.0000
    133 C73        2.3873    8.2948   39.8316 C.ar      2 RES2    0.0000
    134 C74        2.7621    7.1808   40.5904 C.ar      2 RES2    0.0000
    135 H61        3.5890    6.7499   40.4117 H         2 RES2    0.0000
    136 C75        1.9437    6.6946   41.6059 C.ar      2 RES2    0.0000
    137 H62        2.2287    5.9467   42.1184 H         2 RES2    0.0000
    138 C76        0.7093    7.2846   41.8873 C.ar      2 RES2    0.0000
    139 C77        0.3362    8.3932   41.1297 C.ar      2 RES2    0.0000
    140 H63       -0.4959    8.8176   41.3012 H         2 RES2    0.0000
    141 C78        1.1616    8.8908   40.1244 C.ar      2 RES2    0.0000
    142 H64        0.8843    9.6521   39.6285 H         2 RES2    0.0000
    143 C79       -0.1684    6.7129   42.9798 C.3       2 RES2    0.0000
    144 H65       -0.7849    7.4192   43.2973 H         2 RES2    0.0000
    145 H66        0.4030    6.4437   43.7442 H         2 RES2    0.0000
    146 C80       -0.9920    5.5019   42.5252 C.3       2 RES2    0.0000
    147 H67       -1.7289    5.8143   41.9439 H         2 RES2    0.0000
    148 H68       -0.4150    4.9044   41.9864 H         2 RES2    0.0000
    149 C81       -1.5830    4.7078   43.6893 C.3       2 RES2    0.0000
    150 H69       -0.8419    4.3020   44.2081 H         2 RES2    0.0000
    151 H70       -2.0630    5.3316   44.2890 H         2 RES2    0.0000
    152 C82       -2.5431    3.6009   43.2603 C.3       2 RES2    0.0000
    153 H71       -2.5933    2.9250   43.9825 H         2 RES2    0.0000
    154 H72       -2.1770    3.1557   42.4546 H         2 RES2    0.0000
    155 C83       -3.9562    4.0951   42.9487 C.3       2 RES2    0.0000
    156 H73       -3.8992    4.9357   42.4291 H         2 RES2    0.0000
    157 H74       -4.4190    3.4219   42.3908 H         2 RES2    0.0000
    158 C84       -4.7756    4.3447   44.2119 C.3       2 RES2    0.0000
    159 H75       -4.8565    3.5088   44.7188 H         2 RES2    0.0000
    160 H76       -5.6679    4.6651   43.9655 H         2 RES2    0.0000
    161 H77       -4.3275    5.0183   44.7657 H         2 RES2    0.0000
    162 C85        2.7606    9.9645   35.1911 C.ar      2 RES2    0.0000
    163 C86        3.1578   11.1437   34.5472 C.ar      2 RES2    0.0000
    164 H78        3.8873   11.6471   34.8873 H         2 RES2    0.0000
    165 C87        2.4884   11.5804   33.4121 C.ar      2 RES2    0.0000
    166 H79        2.7564   12.3848   32.9848 H         2 RES2    0.0000
    167 C88        1.4226   10.8403   32.9005 C.ar      2 RES2    0.0000
    168 H80        0.9824   11.1259   32.1080 H         2 RES2    0.0000
    169 C89        1.0082    9.6929   33.5449 C.ar      2 RES2    0.0000
    170 H81        0.2705    9.1992   33.2061 H         2 RES2    0.0000
    171 C90        1.6658    9.2582   34.6842 C.ar      2 RES2    0.0000
    172 H82        1.3696    8.4716   35.1256 H         2 RES2    0.0000
    173 C91       10.6907    8.9429   30.8929 C.ar      2 RES2    0.0000
    174 C92       10.4772    7.9318   29.9625 C.ar      2 RES2    0.0000
    175 H83        9.6851    7.4107   30.0098 H         2 RES2    0.0000
    176 C93       11.4087    7.6740   28.9623 C.ar      2 RES2    0.0000
    177 H84       11.2496    6.9664   28.3499 H         2 RES2    0.0000
    178 C94       12.5713    8.4342   28.8427 C.ar      2 RES2    0.0000
    179 C95       12.7752    9.4548   29.7684 C.ar      2 RES2    0.0000
    180 H85       13.5631    9.9839   29.7118 H         2 RES2    0.0000
    181 C96       11.8536    9.7146   30.7673 C.ar      2 RES2    0.0000
    182 H86       12.0119   10.4267   31.3760 H         2 RES2    0.0000
    183 C97       13.5578    8.2167   27.7093 C.3       2 RES2    0.0000
    184 H87       13.4345    7.3095   27.3327 H         2 RES2    0.0000
    185 H88       14.4819    8.2807   28.0562 H         2 RES2    0.0000
    186 C98       13.3497    9.2647   26.6074 C.3       2 RES2    0.0000
    187 H89       12.4243    9.1836   26.2644 H         2 RES2    0.0000
    188 H90       13.4425   10.1662   27.0050 H         2 RES2    0.0000
    189 C99       14.3215    9.1508   25.4251 C.3       2 RES2    0.0000
    190 H91       14.1969    8.2679   24.9961 H         2 RES2    0.0000
    191 H92       14.0935    9.8443   24.7577 H         2 RES2    0.0000
    192 C100      15.7733    9.3022   25.8026 C.3       2 RES2    0.0000
    193 H93       16.0557    8.5057   26.3197 H         2 RES2    0.0000
    194 H94       15.8701   10.0921   26.3921 H         2 RES2    0.0000
    195 C101      16.7014    9.4655   24.5994 C.3       2 RES2    0.0000
    196 H95       16.5370    8.7322   23.9576 H         2 RES2    0.0000
    197 H96       16.5012   10.3214   24.1449 H         2 RES2    0.0000
    198 C102      18.1664    9.4484   25.0203 C.3       2 RES2    0.0000
    199 H97       18.3189   10.1362   25.7026 H         2 RES2    0.0000
    200 H98       18.7325    9.6279   24.2427 H         2 RES2    0.0000
    201 H99       18.3891    8.5684   25.3876 H         2 RES2    0.0000
    202 C103      10.2218   10.2499   35.6006 C.ar      2 RES2    0.0000
    203 C104       9.9651   11.5214   36.1015 C.ar      2 RES2    0.0000
    204 H100       9.2887   12.0601   35.7087 H         2 RES2    0.0000
    205 C105      10.7020   12.0003   37.1775 C.ar      2 RES2    0.0000
    206 H101      10.5376   12.8747   37.5090 H         2 RES2    0.0000
    207 C106      11.6805   11.2043   37.7720 C.ar      2 RES2    0.0000
    208 H102      12.1763   11.5318   38.5134 H         2 RES2    0.0000
    209 C107      11.9271    9.9440   37.2779 C.ar      2 RES2    0.0000
    210 H103      12.5834    9.3943   37.6878 H         2 RES2    0.0000
    211 C108      11.2220    9.4755   36.1866 C.ar      2 RES2    0.0000
    212 H104      11.4206    8.6182   35.8321 H         2 RES2    0.0000
@<TRIPOS>BOND
     1    1    2 ar
     2    2    3 1
     3    4    2 ar
     4    5    4 ar
     5    6    5 ar
     6    7    6 ar
     7    8    7 1
     8    9    7 ar
     9   10    9 1
    10   11    9 ar
    11   12   11 ar
    12   13   12 1
    13   14   12 ar
    14   15   14 ar
    15   16   15 1
    16   17   15 ar
    17   18   11 ar
    18   19    6 ar
    19   20   19 ar
    20   21   20 1
    21   22   20 ar
    22   23   22 1
    23   24    5 ar
    24   25    1 ar
    25   26   25 1
    26   27    1 1
    27   28   27 ar
    28   29   28 1
    29   30   28 ar
    30   31   30 1
    31   32   30 ar
    32   33   32 ar
    33   34   33 1
    34   35   27 ar
    35   36   35 1
    36   37   32 1
    37   38   37 1
    38   39   37 1
    39   40   37 1
    40   41   40 1
    41   42   40 1
    42   43   40 1
    43   44   43 1
    44   45   43 1
    45   46   43 1
    46   47   46 1
    47   48   46 1
    48   49   46 1
    49   50   49 1
    50   51   49 1
    51   52   49 1
    52   53   52 1
    53   54   52 1
    54   55   52 1
    55   56    4 1
    56   57   56 ar
    57   58   57 1
    58   59   57 ar
    59   60   59 1
    60   61   59 ar
    61   62   61 1
    62   63   61 ar
    63   64   63 1
    64   65   56 ar
    65   66   65 1
    66   67   14 1
    67   68   67 ar
    68   69   68 1
    69   70   68 ar
    70   71   70 1
    71   72   70 ar
    72   73   72 ar
    73   74   73 1
    74   75   67 ar
    75   76   75 1
    76   77   72 1
    77   78   77 1
    78   79   77 1
    79   80   77 1
    80   81   80 1
    81   82   80 1
    82   83   80 1
    83   84   83 1
    84   85   83 1
    85   86   83 1
    86   87   86 1
    87   88   86 1
    88   89   86 1
    89   90   89 1
    90   91   89 1
    91   92   89 1
    92   93   92 1
    93   94   92 1
    94   95   92 1
    95   96   17 1
    96   97   96 ar
    97   98   97 1
    98   99   97 ar
    99  100   99 1
   100  101   99 ar
   101  102  101 1
   102  103  101 ar
   103  104  103 1
   104  105   96 ar
   105  106  105 1
   106  107  108 ar
   107  108  109 1
   108  110  108 ar
   109  111  110 ar
   110  112  111 ar
   111  113  112 ar
   112  114  113 1
   113  115  113 ar
   114  116  115 1
   115  117  115 ar
   116  118  117 ar
   117  119  118 1
   118  120  118 ar
   119  121  120 ar
   120  122  121 1
   121  123  121 ar
   122  124  117 ar
   123  125  112 ar
   124  126  125 ar
   125  127  126 1
   126  128  126 ar
   127  129  128 1
   128  130  111 ar
   129  131  107 ar
   130  132  131 1
   131  133  107 1
   132  134  133 ar
   133  135  134 1
   134  136  134 ar
   135  137  136 1
   136  138  136 ar
   137  139  138 ar
   138  140  139 1
   139  141  133 ar
   140  142  141 1
   141  143  138 1
   142  144  143 1
   143  145  143 1
   144  146  143 1
   145  147  146 1
   146  148  146 1
   147  149  146 1
   148  150  149 1
   149  151  149 1
   150  152  149 1
   151  153  152 1
   152  154  152 1
   153  155  152 1
   154  156  155 1
   155  157  155 1
   156  158  155 1
   157  159  158 1
   158  160  158 1
   159  161  158 1
   160  162  110 1
   161  163  162 ar
   162  164  163 1
   163  165  163 ar
   164  166  165 1
   165  167  165 ar
   166  168  167 1
   167  169  167 ar
   168  170  169 1
   169  171  162 ar
   170  172  171 1
   171  173  120 1
   172  174  173 ar
   173  175  174 1
   174  176  174 ar
   175  177  176 1
   176  178  176 ar
   177  179  178 ar
   178  180  179 1
   179  181  173 ar
   180  182  181 1
   181  183  178 1
   182  184  183 1
   183  185  183 1
   184  186  183 1
   185  187  186 1
   186  188  186 1
   187  189  186 1
   188  190  189 1
   189  191  189 1
   190  192  189 1
   191  193  192 1
   192  194  192 1
   193  195  192 1
   194  196  195 1
   195  197  195 1
   196  198  195 1
   197  199  198 1
   198  200  198 1
   199  201  198 1
   200  202  123 1
   201  203  202 ar
   202  204  203 1
   203  205  203 ar
   204  206  205 1
   205  207  205 ar
   206  208  207 1
   207  209  207 ar
   208  210  209 1
   209  211  202 ar
   210  212  211 1
   211   17   18 ar
   212   18   19 ar
   213   22   24 ar
   214   24   25 ar
   215   33   35 ar
   216   63   65 ar
   217   73   75 ar
   218  103  105 ar
   219  123  124 ar
   220  124  125 ar
   221  128  130 ar
   222  130  131 ar
   223  139  141 ar
   224  169  171 ar
   225  179  181 ar
   226  209  211 ar
@<TRIPOS>SUBSTRUCTURE
     1 RES1 1
     2 RES2 107

@<TRIPOS>CRYSIN
  13.2582   14.2403   42.5610  90.0000  90.0000  90.0000  19 1

