# MOL2 file generated by ConQuest
# Please check atom types

@<TRIPOS>MOLECULE
BPSIND
    43    49     1
SMALL
NO_CHARGES
****
Generated from CSD

@<TRIPOS>ATOM
      1 C1         2.0336    4.8651   -1.6644 C.3       1 RES1    0.0000
      2 C10        5.2843    0.3712    1.3520 C.ar      1 RES1    0.0000
      3 C11        4.7789    1.6929    1.1319 C.ar      1 RES1    0.0000
      4 C12        4.9337    2.7129    2.0935 C.ar      1 RES1    0.0000
      5 C13        4.4135    3.9839    1.8563 C.ar      1 RES1    0.0000
      6 C14        3.6922    4.2696    0.7006 C.ar      1 RES1    0.0000
      7 C15        3.1422    5.6047    0.4559 C.2       1 RES1    0.0000
      8 C16        2.3930    5.8878   -0.6143 C.2       1 RES1    0.0000
      9 C17        3.5147    3.2710   -0.2781 C.ar      1 RES1    0.0000
     10 C18        4.0830    1.9973   -0.0699 C.ar      1 RES1    0.0000
     11 C19        3.9562    0.9853   -1.0650 C.ar      1 RES1    0.0000
     12 C2         2.7829    3.5380   -1.4948 C.ar      1 RES1    0.0000
     13 C20        0.5167    4.6088   -1.6674 C.ar      1 RES1    0.0000
     14 C21       -0.2824    4.1602   -0.6418 C.ar      1 RES1    0.0000
     15 C22       -1.6411    3.9652   -0.9088 C.ar      1 RES1    0.0000
     16 C23       -2.1613    4.2189   -2.1649 C.ar      1 RES1    0.0000
     17 C24       -1.3683    4.6969   -3.1689 C.ar      1 RES1    0.0000
     18 C25       -0.0009    4.8998   -2.9175 C.ar      1 RES1    0.0000
     19 C26        1.0728    5.4178   -3.7601 C.2       1 RES1    0.0000
     20 C27        2.2067    5.4125   -3.0752 C.2       1 RES1    0.0000
     21 C3         2.7051    2.5767   -2.4490 C.ar      1 RES1    0.0000
     22 C4         3.2847    1.2790   -2.2772 C.ar      1 RES1    0.0000
     23 C5         3.1825    0.2964   -3.2626 C.ar      1 RES1    0.0000
     24 C6         3.7132   -0.9746   -3.0336 C.ar      1 RES1    0.0000
     25 C7         4.3295   -1.2737   -1.8444 C.ar      1 RES1    0.0000
     26 C8         4.4825   -0.3124   -0.8396 C.ar      1 RES1    0.0000
     27 C9         5.1251   -0.5821    0.4098 C.ar      1 RES1    0.0000
     28 H10        5.7267    0.2403    2.1716 H         1 RES1    0.0000
     29 H12        5.3595    2.5901    3.0269 H         1 RES1    0.0000
     30 H13        4.5289    4.7530    2.4616 H         1 RES1    0.0000
     31 H15        3.3398    6.2750    1.1527 H         1 RES1    0.0000
     32 H16        1.9409    6.7823   -0.7809 H         1 RES1    0.0000
     33 H21        0.1749    3.9786    0.2900 H         1 RES1    0.0000
     34 H22       -2.1245    3.6048   -0.0446 H         1 RES1    0.0000
     35 H23       -3.1999    4.2189   -2.2608 H         1 RES1    0.0000
     36 H24       -1.6961    4.9666   -4.1201 H         1 RES1    0.0000
     37 H26        0.9268    5.6875   -4.6704 H         1 RES1    0.0000
     38 H27        3.1038    5.7142   -3.1830 H         1 RES1    0.0000
     39 H3         2.2557    2.7503   -3.3169 H         1 RES1    0.0000
     40 H5         2.7453    0.5607   -4.0606 H         1 RES1    0.0000
     41 H6         3.5846   -1.6822   -3.7780 H         1 RES1    0.0000
     42 H7         4.7037   -2.1629   -1.7403 H         1 RES1    0.0000
     43 H9         5.5081   -1.4686    0.5950 H         1 RES1    0.0000
@<TRIPOS>BOND
     1    1    8 1
     2    2    3 ar
     3    3    4 ar
     4    4    5 ar
     5    5    6 ar
     6    6    7 1
     7    7    8 2
     8    8   32 1
     9    9    6 ar
    10   10    3 ar
    11   11   10 ar
    12   12    1 1
    13   13    1 1
    14   14   13 ar
    15   15   14 ar
    16   16   15 ar
    17   17   16 ar
    18   18   13 ar
    19   19   18 1
    20   20    1 1
    21   21   12 ar
    22   22   11 ar
    23   23   22 ar
    24   24   23 ar
    25   25   24 ar
    26   26   11 ar
    27   27    2 ar
    28   28    2 1
    29   29    4 1
    30   30    5 1
    31   31    7 1
    32   33   14 1
    33   34   15 1
    34   35   16 1
    35   36   17 1
    36   37   19 1
    37   38   20 1
    38   39   21 1
    39   40   23 1
    40   41   24 1
    41   42   25 1
    42   43   27 1
    43    9   10 ar
    44    9   12 ar
    45   17   18 ar
    46   19   20 2
    47   21   22 ar
    48   25   26 ar
    49   26   27 ar
@<TRIPOS>SUBSTRUCTURE
     1 RES1 1

@<TRIPOS>CRYSIN
   8.7430   26.7020    7.4370  90.0000  90.0000  90.0000  19 1

