# MOL2 file generated by ConQuest
# Please check atom types

@<TRIPOS>MOLECULE
BUFDUB
    70    76     1
SMALL
NO_CHARGES
****
Generated from CSD

@<TRIPOS>ATOM
      1 C1         6.3562   -1.8402    7.3554 C.3       1 RES1    0.0000
      2 C2         5.6850   -1.7630    5.9936 C.3       1 RES1    0.0000
      3 C3         6.3466   -0.7943    5.0225 C.3       1 RES1    0.0000
      4 C4         5.6520   -0.7656    3.6678 C.3       1 RES1    0.0000
      5 C5         6.3467    0.1581    2.6556 C.3       1 RES1    0.0000
      6 C6         5.6988    0.0827    1.2995 C.ar      1 RES1    0.0000
      7 C7         4.6789    0.9668    0.9159 C.ar      1 RES1    0.0000
      8 C8         4.0292    2.0721    1.6605 C.ar      1 RES1    0.0000
      9 C9         4.1302    2.6040    2.9331 C.ar      1 RES1    0.0000
     10 C10        3.2745    3.6787    3.2927 C.ar      1 RES1    0.0000
     11 C11        2.3495    4.2142    2.4306 C.ar      1 RES1    0.0000
     12 C12        2.2248    3.6787    1.1183 C.ar      1 RES1    0.0000
     13 C13        1.3145    4.1082    0.1203 C.ar      1 RES1    0.0000
     14 C14        1.3091    3.4864   -1.1042 C.ar      1 RES1    0.0000
     15 C15        2.1850    2.4117   -1.4213 C.ar      1 RES1    0.0000
     16 C16        3.0569    1.9588   -0.4629 C.ar      1 RES1    0.0000
     17 C17        6.0697   -0.8860    0.3695 C.ar      1 RES1    0.0000
     18 C18        3.0708    2.6310    0.7857 C.ar      1 RES1    0.0000
     19 H1         6.3268   -0.9165    7.7716 H         1 RES1    0.0000
     20 H2         5.8545   -2.4441    7.9698 H         1 RES1    0.0000
     21 H3         7.2768   -2.1206    7.2903 H         1 RES1    0.0000
     22 H4         4.7454   -1.5096    6.1154 H         1 RES1    0.0000
     23 H5         5.6449   -2.6597    5.5491 H         1 RES1    0.0000
     24 H6         7.3156   -1.0783    4.8838 H         1 RES1    0.0000
     25 H7         6.3705    0.1258    5.4359 H         1 RES1    0.0000
     26 H8         4.6876   -0.4852    3.7796 H         1 RES1    0.0000
     27 H9         5.6123   -1.6893    3.2700 H         1 RES1    0.0000
     28 H10        7.2933   -0.0899    2.5622 H         1 RES1    0.0000
     29 H11        6.3283    1.0783    3.0011 H         1 RES1    0.0000
     30 H12        4.7846    2.2284    3.5956 H         1 RES1    0.0000
     31 H13        3.3981    4.0794    4.2043 H         1 RES1    0.0000
     32 H14        1.7349    4.9600    2.7179 H         1 RES1    0.0000
     33 H15        0.6734    4.8342    0.3114 H         1 RES1    0.0000
     34 H16        0.6605    3.7919   -1.8120 H         1 RES1    0.0000
     35 H17        2.1430    1.9948   -2.3216 H         1 RES1    0.0000
     36 C17B       4.0723    0.8860   -0.3695 C.ar      1 RES1    0.0000
     37 C7B        5.4631   -0.9668   -0.9159 C.ar      1 RES1    0.0000
     38 C16B       7.0851   -1.9588    0.4629 C.ar      1 RES1    0.0000
     39 C6B        4.4432   -0.0827   -1.2995 C.ar      1 RES1    0.0000
     40 C8B        6.1128   -2.0721   -1.6605 C.ar      1 RES1    0.0000
     41 C15B       7.9570   -2.4117    1.4213 C.ar      1 RES1    0.0000
     42 C18B       7.0712   -2.6310   -0.7857 C.ar      1 RES1    0.0000
     43 C5B        3.7953   -0.1581   -2.6556 C.3       1 RES1    0.0000
     44 C9B        6.0118   -2.6040   -2.9331 C.ar      1 RES1    0.0000
     45 C14B       8.8329   -3.4864    1.1042 C.ar      1 RES1    0.0000
     46 H17B       7.9990   -1.9948    2.3216 H         1 RES1    0.0000
     47 C12B       7.9172   -3.6787   -1.1183 C.ar      1 RES1    0.0000
     48 C4B        4.4900    0.7656   -3.6678 C.3       1 RES1    0.0000
     49 H10B       2.8487    0.0899   -2.5622 H         1 RES1    0.0000
     50 H11B       3.8137   -1.0783   -3.0011 H         1 RES1    0.0000
     51 C10B       6.8675   -3.6787   -3.2927 C.ar      1 RES1    0.0000
     52 H12B       5.3574   -2.2284   -3.5956 H         1 RES1    0.0000
     53 C13B       8.8275   -4.1082   -0.1203 C.ar      1 RES1    0.0000
     54 H16B       9.4815   -3.7919    1.8120 H         1 RES1    0.0000
     55 C11B       7.7925   -4.2142   -2.4306 C.ar      1 RES1    0.0000
     56 C3B        3.7954    0.7943   -5.0225 C.3       1 RES1    0.0000
     57 H8B        5.4544    0.4852   -3.7796 H         1 RES1    0.0000
     58 H9B        4.5297    1.6893   -3.2700 H         1 RES1    0.0000
     59 H13B       6.7439   -4.0794   -4.2043 H         1 RES1    0.0000
     60 H15B       9.4686   -4.8342   -0.3114 H         1 RES1    0.0000
     61 H14B       8.4071   -4.9600   -2.7179 H         1 RES1    0.0000
     62 C2B        4.4570    1.7630   -5.9936 C.3       1 RES1    0.0000
     63 H6B        2.8264    1.0783   -4.8838 H         1 RES1    0.0000
     64 H7B        3.7715   -0.1258   -5.4359 H         1 RES1    0.0000
     65 C1B        3.7858    1.8402   -7.3554 C.3       1 RES1    0.0000
     66 H4B        5.3966    1.5096   -6.1154 H         1 RES1    0.0000
     67 H5B        4.4971    2.6597   -5.5491 H         1 RES1    0.0000
     68 H1B        3.8152    0.9165   -7.7716 H         1 RES1    0.0000
     69 H2B        4.2875    2.4441   -7.9698 H         1 RES1    0.0000
     70 H3B        2.8652    2.1206   -7.2903 H         1 RES1    0.0000
@<TRIPOS>BOND
     1    1    2 1
     2    2    3 1
     3    3    4 1
     4    4    5 1
     5    5    6 1
     6    6    7 ar
     7    7    8 1
     8    8    9 ar
     9    9   10 ar
    10   10   11 ar
    11   11   12 ar
    12   12   13 ar
    13   13   14 ar
    14   14   15 ar
    15   15   16 ar
    16   16   18 ar
    17   17    6 ar
    18   18    8 ar
    19   19    1 1
    20   20    1 1
    21   21    1 1
    22   22    2 1
    23   23    2 1
    24   24    3 1
    25   25    3 1
    26   26    4 1
    27   27    4 1
    28   28    5 1
    29   29    5 1
    30   30    9 1
    31   31   10 1
    32   32   11 1
    33   33   13 1
    34   34   14 1
    35   35   15 1
    36   36    7 ar
    37   37   17 ar
    38   38   17 1
    39   39   36 ar
    40   40   37 1
    41   41   38 ar
    42   42   38 ar
    43   43   39 1
    44   44   40 ar
    45   45   41 ar
    46   46   41 1
    47   47   42 ar
    48   48   43 1
    49   49   43 1
    50   50   43 1
    51   51   44 ar
    52   52   44 1
    53   53   45 ar
    54   54   45 1
    55   55   47 ar
    56   56   48 1
    57   57   48 1
    58   58   48 1
    59   59   51 1
    60   60   53 1
    61   61   55 1
    62   62   56 1
    63   63   56 1
    64   64   56 1
    65   65   62 1
    66   66   62 1
    67   67   62 1
    68   68   65 1
    69   69   65 1
    70   70   65 1
    71   12   18 ar
    72   16   36 1
    73   37   39 ar
    74   40   42 ar
    75   47   53 ar
    76   51   55 ar
@<TRIPOS>SUBSTRUCTURE
     1 RES1 1

@<TRIPOS>CRYSIN
   5.0710   17.9710   14.1560  90.0000  90.2000  90.0000  14 1

