# MOL2 file generated by ConQuest
# Please check atom types

@<TRIPOS>MOLECULE
BURUBC
    34    40     1
SMALL
NO_CHARGES
****
Generated from CSD

@<TRIPOS>ATOM
      1 C1        10.3232    2.4884   -0.0173 C.ar      1 RES1    0.0000
      2 C2         9.7679    1.4900    0.7236 C.ar      1 RES1    0.0000
      3 C3         8.3713    1.3665    0.9334 C.ar      1 RES1    0.0000
      4 C4         5.0624    1.7184    0.8524 C.ar      1 RES1    0.0000
      5 C5         3.7289    2.1028    0.6519 C.ar      1 RES1    0.0000
      6 C6         3.4831    3.2876   -0.0358 C.ar      1 RES1    0.0000
      7 C7         4.5039    4.0857   -0.5431 C.ar      1 RES1    0.0000
      8 C8         6.6491    6.3691   -2.2001 C.ar      1 RES1    0.0000
      9 C9         7.2058    7.3873   -2.9290 C.ar      1 RES1    0.0000
     10 C10        8.6002    7.4642   -3.1773 C.ar      1 RES1    0.0000
     11 C11       11.8871    6.9306   -3.3659 C.ar      1 RES1    0.0000
     12 C12       13.1801    6.4366   -3.2729 C.ar      1 RES1    0.0000
     13 C13       13.4886    5.2914   -2.5374 C.ar      1 RES1    0.0000
     14 C14       12.4387    4.6041   -1.9040 C.ar      1 RES1    0.0000
     15 C15       11.1468    5.0829   -1.9837 C.ar      1 RES1    0.0000
     16 C16        9.8727    4.5738   -1.4380 C.ar      1 RES1    0.0000
     17 C17        9.4981    3.4892   -0.6333 C.ar      1 RES1    0.0000
     18 C18        8.1090    3.3680   -0.3877 C.ar      1 RES1    0.0000
     19 C19        7.5523    2.2939    0.3625 C.ar      1 RES1    0.0000
     20 C20        6.0868    2.4966    0.3426 C.ar      1 RES1    0.0000
     21 C21        5.8164    3.6802   -0.3864 C.ar      1 RES1    0.0000
     22 C22        7.0980    4.2336   -0.8538 C.ar      1 RES1    0.0000
     23 C23        7.4734    5.3427   -1.6318 C.ar      1 RES1    0.0000
     24 C24        8.8699    5.4452   -1.8934 C.ar      1 RES1    0.0000
     25 C25        9.4188    6.5124   -2.6675 C.ar      1 RES1    0.0000
     26 C26       10.8685    6.2572   -2.7246 C.ar      1 RES1    0.0000
     27 C27        2.5948    1.2128    1.1764 C.3       1 RES1    0.0000
     28 C28        1.2241    1.6566    0.6679 C.3       1 RES1    0.0000
     29 C29        2.6234    1.2326    2.6622 C.3       1 RES1    0.0000
     30 C30        2.8196   -0.2144    0.7422 C.3       1 RES1    0.0000
     31 C31       14.9691    4.6891   -2.4351 C.3       1 RES1    0.0000
     32 C32       15.9546    5.8145   -2.8401 C.3       1 RES1    0.0000
     33 C33       15.0043    3.4915   -3.3619 C.3       1 RES1    0.0000
     34 C34       15.2356    4.2767   -1.0357 C.3       1 RES1    0.0000
@<TRIPOS>BOND
     1    1    2 ar
     2    2    3 ar
     3    3   19 ar
     4    4    5 ar
     5    5    6 ar
     6    6    7 ar
     7    7   21 ar
     8    8    9 ar
     9    9   10 ar
    10   10   25 ar
    11   11   12 ar
    12   12   13 ar
    13   13   14 ar
    14   14   15 ar
    15   15   16 1
    16   16   17 ar
    17   17    1 ar
    18   18   17 ar
    19   19   18 ar
    20   20    4 ar
    21   21   20 ar
    22   22   18 ar
    23   23    8 ar
    24   24   16 ar
    25   25   24 ar
    26   26   11 ar
    27   27    5 1
    28   28   27 1
    29   29   27 1
    30   30   27 1
    31   31   13 1
    32   32   31 1
    33   33   31 1
    34   34   31 1
    35   15   26 ar
    36   19   20 1
    37   21   22 1
    38   22   23 ar
    39   23   24 ar
    40   25   26 1
@<TRIPOS>SUBSTRUCTURE
     1 RES1 1

@<TRIPOS>CRYSIN
  16.2810   11.6500   13.4340  90.0000  98.7500  90.0000  14 1

