# MOL2 file generated by ConQuest
# Please check atom types

@<TRIPOS>MOLECULE
BUTPYR10
    50    53     1
SMALL
NO_CHARGES
****
Generated from CSD

@<TRIPOS>ATOM
      1 C1        -2.2650    1.0963   -0.3117 C.ar      1 RES1    0.0000
      2 C2         3.8991    3.5749   -1.9940 C.3       1 RES1    0.0000
      3 C3         4.2709    1.6765   -3.5648 C.3       1 RES1    0.0000
      4 C4         2.4989    3.3426   -4.0533 C.3       1 RES1    0.0000
      5 C5        -1.4246    1.7703   -1.1176 C.ar      1 RES1    0.0000
      6 C6        -0.0276    1.4294   -1.2039 C.ar      1 RES1    0.0000
      7 C7         0.8679    2.1145   -2.0166 C.ar      1 RES1    0.0000
      8 C8         2.2159    1.7742   -2.0962 C.ar      1 RES1    0.0000
      9 C9         2.6641    0.7050   -1.3287 C.ar      1 RES1    0.0000
     10 C10       -1.8138    0.0103    0.4960 C.ar      1 RES1    0.0000
     11 C11        0.4436    0.3522   -0.4256 C.ar      1 RES1    0.0000
     12 C12        3.2053    2.5853   -2.9365 C.3       1 RES1    0.0000
     13 H1        -3.2032    1.3640   -0.2513 H         1 RES1    0.0000
     14 H2         4.5475    4.0663   -2.4715 H         1 RES1    0.0000
     15 H3         4.4312    3.0849   -1.1897 H         1 RES1    0.0000
     16 H4         3.1743    4.1465   -1.6253 H         1 RES1    0.0000
     17 H5         4.8612    2.1782   -4.1303 H         1 RES1    0.0000
     18 H6         3.9095    0.9719   -4.1303 H         1 RES1    0.0000
     19 H7         4.8878    1.2081   -2.9155 H         1 RES1    0.0000
     20 H8         3.1491    3.8057   -4.5911 H         1 RES1    0.0000
     21 H9         1.9225    4.0546   -3.6528 H         1 RES1    0.0000
     22 H10        1.9984    2.7482   -4.5576 H         1 RES1    0.0000
     23 H11       -1.7451    2.5497   -1.6253 H         1 RES1    0.0000
     24 H12        0.5462    2.8533   -2.5134 H         1 RES1    0.0000
     25 H13        3.5580    0.4545   -1.3405 H         1 RES1    0.0000
     26 C10A       1.8138   -0.0103   -0.4960 C.ar      1 RES1    0.0000
     27 C9A       -2.6641   -0.7050    1.3287 C.ar      1 RES1    0.0000
     28 C11A      -0.4436   -0.3522    0.4256 C.ar      1 RES1    0.0000
     29 C1A        2.2650   -1.0963    0.3117 C.ar      1 RES1    0.0000
     30 C8A       -2.2159   -1.7742    2.0962 C.ar      1 RES1    0.0000
     31 H13A      -3.5580   -0.4545    1.3405 H         1 RES1    0.0000
     32 C6A        0.0276   -1.4294    1.2039 C.ar      1 RES1    0.0000
     33 C5A        1.4246   -1.7703    1.1176 C.ar      1 RES1    0.0000
     34 H1A        3.2032   -1.3640    0.2513 H         1 RES1    0.0000
     35 C7A       -0.8679   -2.1145    2.0166 C.ar      1 RES1    0.0000
     36 C12A      -3.2053   -2.5853    2.9365 C.3       1 RES1    0.0000
     37 H11A       1.7451   -2.5497    1.6253 H         1 RES1    0.0000
     38 H12A      -0.5462   -2.8533    2.5134 H         1 RES1    0.0000
     39 C2A       -3.8991   -3.5749    1.9940 C.3       1 RES1    0.0000
     40 C3A       -4.2709   -1.6765    3.5648 C.3       1 RES1    0.0000
     41 C4A       -2.4989   -3.3426    4.0533 C.3       1 RES1    0.0000
     42 H2A       -4.5475   -4.0663    2.4715 H         1 RES1    0.0000
     43 H3A       -4.4312   -3.0849    1.1897 H         1 RES1    0.0000
     44 H4A       -3.1743   -4.1465    1.6253 H         1 RES1    0.0000
     45 H5A       -4.8612   -2.1782    4.1303 H         1 RES1    0.0000
     46 H6A       -3.9095   -0.9719    4.1303 H         1 RES1    0.0000
     47 H7A       -4.8878   -1.2081    2.9155 H         1 RES1    0.0000
     48 H8A       -3.1491   -3.8057    4.5911 H         1 RES1    0.0000
     49 H9A       -1.9225   -4.0546    3.6528 H         1 RES1    0.0000
     50 H10A      -1.9984   -2.7482    4.5576 H         1 RES1    0.0000
@<TRIPOS>BOND
     1    1    5 ar
     2    2   12 1
     3    3   12 1
     4    4   12 1
     5    5    6 ar
     6    6    7 ar
     7    7    8 ar
     8    8    9 ar
     9    9   25 1
    10   10    1 ar
    11   11    6 ar
    12   12    8 1
    13   13    1 1
    14   14    2 1
    15   15    2 1
    16   16    2 1
    17   17    3 1
    18   18    3 1
    19   19    3 1
    20   20    4 1
    21   21    4 1
    22   22    4 1
    23   23    5 1
    24   24    7 1
    25   26    9 ar
    26   27   10 ar
    27   28   10 ar
    28   29   26 ar
    29   30   27 ar
    30   31   27 1
    31   32   28 ar
    32   33   29 ar
    33   34   29 1
    34   35   30 ar
    35   36   30 1
    36   37   33 1
    37   38   35 1
    38   39   36 1
    39   40   36 1
    40   41   36 1
    41   42   39 1
    42   43   39 1
    43   44   39 1
    44   45   40 1
    45   46   40 1
    46   47   40 1
    47   48   41 1
    48   49   41 1
    49   50   41 1
    50   11   26 ar
    51   11   28 ar
    52   32   33 ar
    53   32   35 ar
@<TRIPOS>SUBSTRUCTURE
     1 RES1 1

@<TRIPOS>CRYSIN
   9.0040    6.1380    9.1530  96.9000 109.1000 108.3000   2 1

