# MOL2 file generated by ConQuest
# Please check atom types

@<TRIPOS>MOLECULE
BZPHAN
    30    33     1
SMALL
NO_CHARGES
****
Generated from CSD

@<TRIPOS>ATOM
      1 C1         5.4154    2.0174    0.8735 C.ar      1 RES1    0.0000
      2 C2         1.9923    3.5492    1.2264 C.ar      1 RES1    0.0000
      3 C3         5.4051    4.6208    2.4228 C.ar      1 RES1    0.0000
      4 C4         5.9344    5.4207    3.4120 C.ar      1 RES1    0.0000
      5 C5         5.1075    5.9771    4.4006 C.ar      1 RES1    0.0000
      6 C6         3.7603    5.7874    4.3278 C.ar      1 RES1    0.0000
      7 C7         1.7475    4.9493    3.1661 C.ar      1 RES1    0.0000
      8 C8         1.1948    4.3080    2.1387 C.ar      1 RES1    0.0000
      9 C9         4.0022    4.3207    2.3765 C.ar      1 RES1    0.0000
     10 C10        3.1798    5.0187    3.3252 C.ar      1 RES1    0.0000
     11 C11        6.0707    1.1524    0.0249 C.ar      1 RES1    0.0000
     12 C12        5.4638    0.7107   -1.1726 C.ar      1 RES1    0.0000
     13 C13        4.1605    1.0972   -1.4341 C.ar      1 RES1    0.0000
     14 C14        2.0627    2.1844   -0.7821 C.ar      1 RES1    0.0000
     15 C15        1.3575    2.8965    0.1244 C.ar      1 RES1    0.0000
     16 C16        4.1136    2.5143    0.5652 C.ar      1 RES1    0.0000
     17 C17        3.4671    1.9367   -0.5669 C.ar      1 RES1    0.0000
     18 C18        3.3909    3.4600    1.3982 C.ar      1 RES1    0.0000
     19 H1         5.7614    2.3359    1.5452 H         1 RES1    0.0000
     20 H2         3.1944    6.3282    4.8380 H         1 RES1    0.0000
     21 H3         0.9954    5.5977    3.5161 H         1 RES1    0.0000
     22 H4         0.3372    4.2344    1.9819 H         1 RES1    0.0000
     23 H5         6.9518    0.7701    0.3986 H         1 RES1    0.0000
     24 H6         6.1616    0.0071   -1.5845 H         1 RES1    0.0000
     25 H7         3.7925    0.6696   -2.1948 H         1 RES1    0.0000
     26 H8         1.3473    1.6592   -1.5712 H         1 RES1    0.0000
     27 H9         0.4970    2.9418    0.0266 H         1 RES1    0.0000
     28 H10        6.1880    4.3264    1.7320 H         1 RES1    0.0000
     29 H11        6.8374    5.7039    3.3698 H         1 RES1    0.0000
     30 H12        5.4990    6.5066    5.1683 H         1 RES1    0.0000
@<TRIPOS>BOND
     1    1   11 ar
     2    2    8 ar
     3    3    4 ar
     4    4    5 ar
     5    5    6 ar
     6    6   10 ar
     7    7    8 ar
     8    8   22 1
     9    9    3 ar
    10   10    7 ar
    11   11   12 ar
    12   12   13 ar
    13   13   17 ar
    14   14   15 ar
    15   15    2 ar
    16   16    1 ar
    17   17   14 ar
    18   18    2 ar
    19   19    1 1
    20   20    6 1
    21   21    7 1
    22   23   11 1
    23   24   12 1
    24   25   13 1
    25   26   14 1
    26   27   15 1
    27   28    3 1
    28   29    4 1
    29   30    5 1
    30    9   10 ar
    31    9   18 ar
    32   16   17 ar
    33   16   18 ar
@<TRIPOS>SUBSTRUCTURE
     1 RES1 1

@<TRIPOS>CRYSIN
  14.6600   14.1570    5.7850  90.0000  90.0000  90.0000  19 1

