# MOL2 file generated by ConQuest
# Please check atom types

@<TRIPOS>MOLECULE
CADMIE
    59    58     2
SMALL
NO_CHARGES
****
Generated from CSD

@<TRIPOS>ATOM
      1 C1         0.5314    1.8124    6.5569 C.ar      1 RES1    0.0000
      2 C2         0.0627    2.7438    7.5090 C.ar      1 RES1    0.0000
      3 C3        -0.6870    3.8769    7.1327 C.ar      1 RES1    0.0000
      4 H1        -0.8828    4.0124    6.2124 Du        2 SUP2    0.0000
      5 C4        -1.1480    4.7980    8.0500 C.ar      1 RES1    0.0000
      6 C5        -1.8807    5.9725    7.6621 C.ar      1 RES1    0.0000
      7 H2        -2.0824    6.1125    6.7442 Du        2 SUP2    0.0000
      8 C6        -2.2860    6.8755    8.5741 C.ar      1 RES1    0.0000
      9 H3        -2.7661    7.6488    8.2933 Du        2 SUP2    0.0000
     10 C7        -2.0009    6.6842    9.9559 C.ar      1 RES1    0.0000
     11 H4        -2.2876    7.3311   10.5900 H         1 RES1    0.0000
     12 C8        -1.3246    5.5901   10.3759 C.ar      1 RES1    0.0000
     13 H5        -1.1515    5.4773   11.3027 Du        2 SUP2    0.0000
     14 C9        -0.8643    4.6042    9.4502 C.ar      1 RES1    0.0000
     15 C10       -0.1327    3.4912    9.8393 C.ar      1 RES1    0.0000
     16 H6         0.0435    3.3577   10.7630 Du        2 SUP2    0.0000
     17 C11        1.2962    0.6864    6.9586 C.ar      1 RES1    0.0000
     18 C12        0.2355    2.0036    5.1682 C.1       1 RES1    0.0000
     19 C13       -0.0025    2.1643    4.0089 C.1       1 RES1    0.0000
     20 C14       -0.2430    2.3841    2.5694 C.3       1 RES1    0.0000
     21 C15       -1.6007    3.0485    2.3605 C.3       1 RES1    0.0000
     22 H7        -2.3075    2.4619    2.7031 H         1 RES1    0.0000
     23 H8        -1.7431    3.2066    1.4047 H         1 RES1    0.0000
     24 H9        -1.6238    3.9022    2.8396 H         1 RES1    0.0000
     25 C16        0.8780    3.2650    2.0126 C.3       1 RES1    0.0000
     26 H10        0.8618    4.1355    2.4618 H         1 RES1    0.0000
     27 H11        0.7473    3.3920    1.0492 H         1 RES1    0.0000
     28 H12        1.7416    2.8313    2.1698 H         1 RES1    0.0000
     29 C17       -0.2206    1.0287    1.8544 C.3       1 RES1    0.0000
     30 H13        0.6389    0.5866    2.0190 H         1 RES1    0.0000
     31 H14       -0.3373    1.1655    0.8904 H         1 RES1    0.0000
     32 H15       -0.9462    0.4667    2.1951 H         1 RES1    0.0000
     33 C11E       0.3561    2.5546    8.9138 C.ar      1 RES1    0.0000
     34 C1E        1.1209    1.4286    9.3155 C.ar      1 RES1    0.0000
     35 C2E        1.5896    0.4972    8.3633 C.ar      1 RES1    0.0000
     36 C3E        2.3392   -0.6359    8.7396 C.ar      1 RES1    0.0000
     37 C4E        2.8003   -1.5570    7.8224 C.ar      1 RES1    0.0000
     38 C5E        3.5330   -2.7315    8.2103 C.ar      1 RES1    0.0000
     39 C6E        3.9382   -3.6345    7.2983 C.ar      1 RES1    0.0000
     40 C7E        3.6532   -3.4432    5.9164 C.ar      1 RES1    0.0000
     41 H4E        3.9399   -4.0901    5.2823 H         1 RES1    0.0000
     42 C8E        2.9769   -2.3491    5.4964 C.ar      1 RES1    0.0000
     43 C9E        2.5166   -1.3632    6.4221 C.ar      1 RES1    0.0000
     44 C10E       1.7849   -0.2502    6.0331 C.ar      1 RES1    0.0000
     45 C12E       1.4168    1.2374   10.7042 C.1       1 RES1    0.0000
     46 C13E       1.6548    1.0767   11.8635 C.1       1 RES1    0.0000
     47 C14E       1.8953    0.8569   13.3029 C.3       1 RES1    0.0000
     48 C15E       3.2530    0.1925   13.5118 C.3       1 RES1    0.0000
     49 H7E        3.9598    0.7791   13.1693 H         1 RES1    0.0000
     50 H8E        3.3954    0.0344   14.4676 H         1 RES1    0.0000
     51 H9E        3.2761   -0.6612   13.0328 H         1 RES1    0.0000
     52 C16E       0.7743   -0.0240   13.8597 C.3       1 RES1    0.0000
     53 H10E       0.7905   -0.8945   13.4105 H         1 RES1    0.0000
     54 H11E       0.9049   -0.1510   14.8232 H         1 RES1    0.0000
     55 H12E      -0.0893    0.4097   13.7026 H         1 RES1    0.0000
     56 C17E       1.8728    2.2123   14.0180 C.3       1 RES1    0.0000
     57 H13E       1.0133    2.6544   13.8534 H         1 RES1    0.0000
     58 H14E       1.9896    2.0755   14.9819 H         1 RES1    0.0000
     59 H15E       2.5985    2.7743   13.6772 H         1 RES1    0.0000
@<TRIPOS>BOND
     1    1    2 ar
     2    2    3 ar
     3    3    5 ar
     4    5    6 ar
     5    6    8 ar
     6    8   10 ar
     7   10   11 1
     8   12   10 ar
     9   14    5 ar
    10   15   14 ar
    11   17    1 ar
    12   18    1 1
    13   19   18 3
    14   20   19 1
    15   21   20 1
    16   22   21 1
    17   23   21 1
    18   24   21 1
    19   25   20 1
    20   26   25 1
    21   27   25 1
    22   28   25 1
    23   29   20 1
    24   30   29 1
    25   31   29 1
    26   32   29 1
    27   33    2 ar
    28   34   33 ar
    29   35   17 ar
    30   36   35 ar
    31   37   36 ar
    32   38   37 ar
    33   39   38 ar
    34   40   39 ar
    35   41   40 1
    36   42   40 ar
    37   43   37 ar
    38   44   17 ar
    39   45   34 1
    40   46   45 3
    41   47   46 1
    42   48   47 1
    43   49   48 1
    44   50   48 1
    45   51   48 1
    46   52   47 1
    47   53   52 1
    48   54   52 1
    49   55   52 1
    50   56   47 1
    51   57   56 1
    52   58   56 1
    53   59   56 1
    54   12   14 ar
    55   15   33 ar
    56   34   35 ar
    57   42   43 ar
    58   43   44 ar
@<TRIPOS>SUBSTRUCTURE
     1 RES1 1
     2 SUP2 4

@<TRIPOS>CRYSIN
  25.0740    6.4820   19.2460  90.0000 124.4410  90.0000  15 1

