# MOL2 file generated by ConQuest
# Please check atom types

@<TRIPOS>MOLECULE
CAFVEN
    50    57     1
SMALL
NO_CHARGES
****
Generated from CSD

@<TRIPOS>ATOM
      1 C1         8.7626    3.8341    9.9513 C.ar      1 RES1    0.0000
      2 H1         9.5920    4.2862   10.0534 H         1 RES1    0.0000
      3 C2         8.1550    3.7858    8.7086 C.ar      1 RES1    0.0000
      4 H2         8.5846    4.2005    7.9676 H         1 RES1    0.0000
      5 C3         6.9266    3.1451    8.5087 C.ar      1 RES1    0.0000
      6 C4         6.2885    2.5245    9.6084 C.ar      1 RES1    0.0000
      7 C5         5.0257    1.8288    9.4959 C.ar      1 RES1    0.0000
      8 H3         4.5948    1.7882    8.6503 H         1 RES1    0.0000
      9 C6         4.4419    1.2349   10.5589 C.ar      1 RES1    0.0000
     10 H4         3.6099    0.7917   10.4449 H         1 RES1    0.0000
     11 C7         5.0521    1.2581   11.8596 C.ar      1 RES1    0.0000
     12 C8         4.4617    0.6428   12.9751 C.ar      1 RES1    0.0000
     13 H5         3.6291    0.1956   12.8815 H         1 RES1    0.0000
     14 C9         5.0839    0.6828   14.2141 C.ar      1 RES1    0.0000
     15 H6         4.6722    0.2645   14.9611 H         1 RES1    0.0000
     16 C10        6.3051    1.3302   14.3729 C.ar      1 RES1    0.0000
     17 H7         6.7207    1.3458   15.2273 H         1 RES1    0.0000
     18 C11        6.9305    1.9602   13.2880 C.ar      1 RES1    0.0000
     19 C12        8.1908    2.6336   13.4167 C.ar      1 RES1    0.0000
     20 H8         8.6203    2.6581   14.2627 H         1 RES1    0.0000
     21 C13        8.7772    3.2323   12.3613 C.ar      1 RES1    0.0000
     22 H9         9.6125    3.6696   12.4806 H         1 RES1    0.0000
     23 C14        8.1650    3.2224   11.0609 C.ar      1 RES1    0.0000
     24 C15        6.9160    2.5625   10.8909 C.ar      1 RES1    0.0000
     25 C16        6.2971    1.9287   12.0108 C.ar      1 RES1    0.0000
     26 C1B        4.4750    3.8341    5.7082 C.ar      1 RES1    0.0000
     27 H1B        3.6456    4.2862    5.6061 H         1 RES1    0.0000
     28 C2B        5.0826    3.7858    6.9509 C.ar      1 RES1    0.0000
     29 H2B        4.6530    4.2005    7.6919 H         1 RES1    0.0000
     30 C3B        6.3110    3.1451    7.1508 C.ar      1 RES1    0.0000
     31 C4B        6.9491    2.5245    6.0511 C.ar      1 RES1    0.0000
     32 C5B        8.2119    1.8288    6.1636 C.ar      1 RES1    0.0000
     33 H3B        8.6428    1.7882    7.0092 H         1 RES1    0.0000
     34 C6B        8.7957    1.2349    5.1006 C.ar      1 RES1    0.0000
     35 H4B        9.6277    0.7917    5.2146 H         1 RES1    0.0000
     36 C7B        8.1855    1.2581    3.7999 C.ar      1 RES1    0.0000
     37 C8B        8.7759    0.6428    2.6844 C.ar      1 RES1    0.0000
     38 H5B        9.6085    0.1956    2.7780 H         1 RES1    0.0000
     39 C9B        8.1537    0.6828    1.4454 C.ar      1 RES1    0.0000
     40 H6B        8.5654    0.2645    0.6984 H         1 RES1    0.0000
     41 C10B       6.9325    1.3302    1.2866 C.ar      1 RES1    0.0000
     42 H7B        6.5169    1.3458    0.4322 H         1 RES1    0.0000
     43 C11B       6.3071    1.9602    2.3715 C.ar      1 RES1    0.0000
     44 C12B       5.0468    2.6336    2.2428 C.ar      1 RES1    0.0000
     45 H8B        4.6173    2.6581    1.3968 H         1 RES1    0.0000
     46 C13B       4.4604    3.2323    3.2982 C.ar      1 RES1    0.0000
     47 H9B        3.6251    3.6696    3.1789 H         1 RES1    0.0000
     48 C14B       5.0726    3.2224    4.5986 C.ar      1 RES1    0.0000
     49 C15B       6.3216    2.5625    4.7686 C.ar      1 RES1    0.0000
     50 C16B       6.9405    1.9287    3.6487 C.ar      1 RES1    0.0000
@<TRIPOS>BOND
     1    1    2 1
     2    3    1 ar
     3    4    3 1
     4    5    3 ar
     5    6    5 ar
     6    7    6 ar
     7    8    7 1
     8    9    7 ar
     9   10    9 1
    10   11    9 ar
    11   12   11 ar
    12   13   12 1
    13   14   12 ar
    14   15   14 1
    15   16   14 ar
    16   17   16 1
    17   18   16 ar
    18   19   18 ar
    19   20   19 1
    20   21   19 ar
    21   22   21 1
    22   23    1 ar
    23   24    6 ar
    24   25   11 ar
    25   26   27 1
    26   28   26 ar
    27   29   28 1
    28   30    5 1
    29   31   30 ar
    30   32   31 ar
    31   33   32 1
    32   34   32 ar
    33   35   34 1
    34   36   34 ar
    35   37   36 ar
    36   38   37 1
    37   39   37 ar
    38   40   39 1
    39   41   39 ar
    40   42   41 1
    41   43   41 ar
    42   44   43 ar
    43   45   44 1
    44   46   44 ar
    45   47   46 1
    46   48   26 ar
    47   49   31 ar
    48   50   36 ar
    49   18   25 ar
    50   21   23 ar
    51   23   24 ar
    52   24   25 ar
    53   28   30 ar
    54   43   50 ar
    55   46   48 ar
    56   48   49 ar
    57   49   50 ar
@<TRIPOS>SUBSTRUCTURE
     1 RES1 1

@<TRIPOS>CRYSIN
   6.6188    9.3137   31.3190  90.0000  90.0000  90.0000  60 1

