# MOL2 file generated by ConQuest
# Please check atom types

@<TRIPOS>MOLECULE
CAJSAJ
    54    60     1
SMALL
NO_CHARGES
****
Generated from CSD

@<TRIPOS>ATOM
      1 C1         1.6466    4.4597    1.8429 C.2       1 RES1    0.0000
      2 C2         1.9512    5.8469    1.9415 C.2       1 RES1    0.0000
      3 C3         0.7298    6.5942    1.7955 C.2       1 RES1    0.0000
      4 C4         0.6597    7.9442    1.9067 C.2       1 RES1    0.0000
      5 C5         1.8389    8.6963    2.1985 C.ar      1 RES1    0.0000
      6 C6         1.7861   10.0790    2.3785 C.ar      1 RES1    0.0000
      7 C7         2.9413   10.8186    2.6283 C.ar      1 RES1    0.0000
      8 C8         4.1534   10.1911    2.6967 C.ar      1 RES1    0.0000
      9 C9         4.2650    8.7841    2.5603 C.ar      1 RES1    0.0000
     10 C10        5.5157    8.1297    2.6531 C.ar      1 RES1    0.0000
     11 C11        5.6022    6.7754    2.4835 C.ar      1 RES1    0.0000
     12 C12        4.4645    6.0017    2.2367 C.ar      1 RES1    0.0000
     13 C13        3.1850    6.5770    2.1635 C.ar      1 RES1    0.0000
     14 C14        3.0906    8.0088    2.3143 C.ar      1 RES1    0.0000
     15 C15        0.2437    4.3169    1.6156 C.2       1 RES1    0.0000
     16 C16       -0.3423    5.6310    1.5904 C.2       1 RES1    0.0000
     17 C17       -1.6770    5.8528    1.4546 C.2       1 RES1    0.0000
     18 C18       -2.5666    4.7493    1.2785 C.ar      1 RES1    0.0000
     19 C19       -3.9437    4.9510    1.1296 C.ar      1 RES1    0.0000
     20 C20       -4.8117    3.8662    0.9390 C.ar      1 RES1    0.0000
     21 C21       -4.3179    2.5911    0.8991 C.ar      1 RES1    0.0000
     22 C22       -2.9325    2.3309    1.0573 C.ar      1 RES1    0.0000
     23 C23       -2.4223    1.0146    1.0229 C.ar      1 RES1    0.0000
     24 C24       -1.0837    0.7796    1.1723 C.ar      1 RES1    0.0000
     25 C25       -0.1878    1.8376    1.3608 C.ar      1 RES1    0.0000
     26 C26       -0.6194    3.1680    1.4200 C.ar      1 RES1    0.0000
     27 C27       -2.0326    3.4214    1.2547 C.ar      1 RES1    0.0000
     28 C28        2.6466    3.3496    1.9992 C.3       1 RES1    0.0000
     29 C29        3.3624    2.9633    0.7046 C.3       1 RES1    0.0000
     30 C30        4.5252    2.0078    0.9326 C.3       1 RES1    0.0000
     31 C31        5.3019    1.6765   -0.3229 C.3       1 RES1    0.0000
     32 H1        -0.1772    8.3946    1.7969 H         1 RES1    0.0000
     33 H2         0.9426   10.5261    2.3293 H         1 RES1    0.0000
     34 H3         2.8778   11.7735    2.7513 H         1 RES1    0.0000
     35 H4         4.9473   10.7137    2.8408 H         1 RES1    0.0000
     36 H5         6.3071    8.6467    2.8538 H         1 RES1    0.0000
     37 H6         6.4651    6.3431    2.5124 H         1 RES1    0.0000
     38 H7         4.5519    5.0468    2.1293 H         1 RES1    0.0000
     39 H8        -2.0201    6.7470    1.4853 H         1 RES1    0.0000
     40 H9        -4.2944    5.8449    1.1620 H         1 RES1    0.0000
     41 H10       -5.7469    4.0276    0.8387 H         1 RES1    0.0000
     42 H11       -4.9096    1.8543    0.7712 H         1 RES1    0.0000
     43 H12       -3.0236    0.2724    0.9024 H         1 RES1    0.0000
     44 H13       -0.7540   -0.1159    1.1400 H         1 RES1    0.0000
     45 H14        0.7402    1.6345    1.4581 H         1 RES1    0.0000
     46 H15        3.3084    3.6083    2.6383 H         1 RES1    0.0000
     47 H16        2.1933    2.5760    2.3371 H         1 RES1    0.0000
     48 H17        2.7315    2.5353    0.1220 H         1 RES1    0.0000
     49 H18        3.6853    3.7493    0.2843 H         1 RES1    0.0000
     50 H19        5.1156    2.4147    1.5736 H         1 RES1    0.0000
     51 H20        4.1835    1.2008    1.3178 H         1 RES1    0.0000
     52 H21        6.0355    1.0849   -0.1220 H         1 RES1    0.0000
     53 H22        4.7423    1.2450   -0.9621 H         1 RES1    0.0000
     54 H23        5.6644    2.4684   -0.7167 H         1 RES1    0.0000
@<TRIPOS>BOND
     1    1    2 dl
     2    2    3 1
     3    3    4 2
     4    4    5 1
     5    5    6 ar
     6    6    7 ar
     7    7    8 ar
     8    8    9 ar
     9    9   10 ar
    10   10   11 ar
    11   11   12 ar
    12   12   13 ar
    13   13    2 1
    14   14    5 ar
    15   15    1 dl
    16   16    3 1
    17   17   16 2
    18   18   17 1
    19   19   18 ar
    20   20   19 ar
    21   21   20 ar
    22   22   21 ar
    23   23   22 ar
    24   24   23 ar
    25   25   24 ar
    26   26   15 1
    27   27   18 ar
    28   28    1 1
    29   29   28 1
    30   30   29 1
    31   31   30 1
    32   32    4 1
    33   33    6 1
    34   34    7 1
    35   35    8 1
    36   36   10 1
    37   37   11 1
    38   38   12 1
    39   39   17 1
    40   40   19 1
    41   41   20 1
    42   42   21 1
    43   43   23 1
    44   44   24 1
    45   45   25 1
    46   46   28 1
    47   47   28 1
    48   48   29 1
    49   49   29 1
    50   50   30 1
    51   51   30 1
    52   52   31 1
    53   53   31 1
    54   54   31 1
    55    9   14 ar
    56   13   14 ar
    57   15   16 1
    58   22   27 ar
    59   25   26 ar
    60   26   27 ar
@<TRIPOS>SUBSTRUCTURE
     1 RES1 1

@<TRIPOS>CRYSIN
  26.0073   11.9479   12.9923  90.0000  92.0820  90.0000  15 1

