# MOL2 file generated by ConQuest
# Please check atom types

@<TRIPOS>MOLECULE
CARLAK
    76    84     2
SMALL
NO_CHARGES
****
Generated from CSD

@<TRIPOS>ATOM
      1 C1         2.5676    5.0175    0.5524 C.ar      1 RES1    0.0000
      2 H1         1.6486    4.8245    0.4069 H         1 RES1    0.0000
      3 C2         3.2158    5.9445   -0.2729 C.ar      1 RES1    0.0000
      4 C3         4.5751    6.2155   -0.0758 C.ar      1 RES1    0.0000
      5 H2         5.0209    6.8219   -0.6555 H         1 RES1    0.0000
      6 C4         6.6711    5.8931    1.2142 C.ar      1 RES1    0.0000
      7 H3         7.1338    6.4963    0.6457 H         1 RES1    0.0000
      8 C5         7.3297    5.3204    2.2498 C.ar      1 RES1    0.0000
      9 H4         8.2426    5.5378    2.3977 H         1 RES1    0.0000
     10 C6         7.3366    3.7967    4.2154 C.ar      1 RES1    0.0000
     11 H5         8.2470    4.0091    4.3860 H         1 RES1    0.0000
     12 C7         6.6751    2.9022    5.0441 C.ar      1 RES1    0.0000
     13 H6         7.1356    2.5082    5.7749 H         1 RES1    0.0000
     14 C8         5.3431    2.5784    4.8126 C.ar      1 RES1    0.0000
     15 H7         4.9017    1.9657    5.3874 H         1 RES1    0.0000
     16 C9         3.2693    2.8359    3.4598 C.ar      1 RES1    0.0000
     17 H8         2.8159    2.2081    4.0107 H         1 RES1    0.0000
     18 C10        2.6031    3.4138    2.4359 C.ar      1 RES1    0.0000
     19 H9         1.6956    3.1816    2.2783 H         1 RES1    0.0000
     20 C11        3.2460    4.3761    1.5807 C.ar      1 RES1    0.0000
     21 C12        4.6166    4.6766    1.8129 C.ar      1 RES1    0.0000
     22 C13        5.2848    5.6088    0.9603 C.ar      1 RES1    0.0000
     23 C14        5.3161    4.0655    2.8891 C.ar      1 RES1    0.0000
     24 C15        4.6456    3.1437    3.7407 C.ar      1 RES1    0.0000
     25 C16        6.6800    4.3882    3.1316 C.ar      1 RES1    0.0000
     26 C17        2.4790    6.6098   -1.3097 C.1       1 RES1    0.0000
     27 C18        1.8496    7.1775   -2.1535 C.1       1 RES1    0.0000
     28 C19        1.1264    7.8818   -3.1715 C.ar      1 RES1    0.0000
     29 C20        1.8037    8.3934   -4.2848 C.ar      1 RES1    0.0000
     30 H10        2.7384    8.2529   -4.3762 H         1 RES1    0.0000
     31 C21        1.1161    9.1030   -5.2463 C.ar      1 RES1    0.0000
     32 H11        1.5823    9.4575   -5.9941 H         1 RES1    0.0000
     33 C22       -0.2517    9.3018   -5.1289 C.ar      1 RES1    0.0000
     34 H12       -0.7195    9.7892   -5.7968 H         1 RES1    0.0000
     35 C23       -0.9337    8.7905   -4.0414 C.ar      1 RES1    0.0000
     36 H13       -1.8720    8.9188   -3.9669 H         1 RES1    0.0000
     37 C24       -0.2514    8.0927   -3.0612 C.ar      1 RES1    0.0000
     38 H14       -0.7217    7.7546   -2.3075 H         1 RES1    0.0000
     39 C25        6.2873    5.4931   12.6608 C.ar      2 RES2    0.0000
     40 H15        5.9540    4.6153   12.5146 H         2 RES2    0.0000
     41 C26        7.2978    5.9910   11.8331 C.ar      2 RES2    0.0000
     42 C27        7.7776    7.2895   12.0319 C.ar      2 RES2    0.0000
     43 H16        8.4462    7.6358   11.4522 H         2 RES2    0.0000
     44 C28        7.7919    9.4026   13.3387 C.ar      2 RES2    0.0000
     45 H17        8.4637    9.7648   12.7729 H         2 RES2    0.0000
     46 C29        7.3315   10.1414   14.3799 C.ar      2 RES2    0.0000
     47 H18        7.6944   11.0058   14.5346 H         2 RES2    0.0000
     48 C30        5.8104   10.3848   16.3343 C.ar      2 RES2    0.0000
     49 H19        6.1505   11.2561   16.5010 H         2 RES2    0.0000
     50 C31        4.8274    9.8601   17.1623 C.ar      2 RES2    0.0000
     51 H20        4.5013   10.3754   17.8899 H         2 RES2    0.0000
     52 C32        4.3198    8.5937   16.9362 C.ar      2 RES2    0.0000
     53 H21        3.6513    8.2466   17.5146 H         2 RES2    0.0000
     54 C33        4.2732    6.5029   15.6028 C.ar      2 RES2    0.0000
     55 H22        3.6045    6.1411   16.1720 H         2 RES2    0.0000
     56 C34        4.7261    5.7646   14.5609 C.ar      2 RES2    0.0000
     57 H23        4.3547    4.9048   14.3981 H         2 RES2    0.0000
     58 C35        5.7603    6.2613   13.6969 C.ar      2 RES2    0.0000
     59 C36        6.2723    7.5656   13.9247 C.ar      2 RES2    0.0000
     60 C37        7.2861    8.0860   13.0746 C.ar      2 RES2    0.0000
     61 C38        5.7786    8.3464   15.0110 C.ar      2 RES2    0.0000
     62 C39        4.7785    7.8144   15.8640 C.ar      2 RES2    0.0000
     63 C40        6.3056    9.6396   15.2515 C.ar      2 RES2    0.0000
     64 C41        7.8397    5.1508   10.8092 C.1       2 RES2    0.0000
     65 C42        8.2871    4.4026    9.9807 C.1       2 RES2    0.0000
     66 C43        8.8182    3.5274    8.9759 C.ar      2 RES2    0.0000
     67 C44        9.5180    4.0530    7.8840 C.ar      2 RES2    0.0000
     68 H24        9.6403    4.9921    7.8095 H         2 RES2    0.0000
     69 C45       10.0345    3.2114    6.9111 C.ar      2 RES2    0.0000
     70 H25       10.5143    3.5738    6.1769 H         2 RES2    0.0000
     71 C46        9.8514    1.8426    7.0100 C.ar      2 RES2    0.0000
     72 H26       10.1964    1.2675    6.3377 H         2 RES2    0.0000
     73 C47        9.1658    1.3106    8.0872 C.ar      2 RES2    0.0000
     74 H27        9.0454    0.3709    8.1555 H         2 RES2    0.0000
     75 C48        8.6563    2.1456    9.0687 C.ar      2 RES2    0.0000
     76 H28        8.1925    1.7735    9.8099 H         2 RES2    0.0000
@<TRIPOS>BOND
     1    1    2 1
     2    3    1 ar
     3    4    3 ar
     4    5    4 1
     5    6    7 1
     6    8    6 ar
     7    9    8 1
     8   10   11 1
     9   12   10 ar
    10   13   12 1
    11   14   12 ar
    12   15   14 1
    13   16   17 1
    14   18   16 ar
    15   19   18 1
    16   20    1 ar
    17   21   20 ar
    18   22    4 ar
    19   23   21 ar
    20   24   14 ar
    21   25    8 ar
    22   26    3 1
    23   27   26 3
    24   28   27 1
    25   29   28 ar
    26   30   29 1
    27   31   29 ar
    28   32   31 1
    29   33   31 ar
    30   34   33 1
    31   35   33 ar
    32   36   35 1
    33   37   28 ar
    34   38   37 1
    35   39   40 1
    36   41   39 ar
    37   42   41 ar
    38   43   42 1
    39   44   45 1
    40   46   44 ar
    41   47   46 1
    42   48   49 1
    43   50   48 ar
    44   51   50 1
    45   52   50 ar
    46   53   52 1
    47   54   55 1
    48   56   54 ar
    49   57   56 1
    50   58   39 ar
    51   59   58 ar
    52   60   42 ar
    53   61   59 ar
    54   62   52 ar
    55   63   46 ar
    56   64   41 1
    57   65   64 3
    58   66   65 1
    59   67   66 ar
    60   68   67 1
    61   69   67 ar
    62   70   69 1
    63   71   69 ar
    64   72   71 1
    65   73   71 ar
    66   74   73 1
    67   75   66 ar
    68   76   75 1
    69    6   22 ar
    70   10   25 ar
    71   16   24 ar
    72   18   20 ar
    73   21   22 ar
    74   23   24 ar
    75   23   25 ar
    76   35   37 ar
    77   44   60 ar
    78   48   63 ar
    79   54   62 ar
    80   56   58 ar
    81   59   60 ar
    82   61   62 ar
    83   61   63 ar
    84   73   75 ar
@<TRIPOS>SUBSTRUCTURE
     1 RES1 1
     2 RES2 39

@<TRIPOS>CRYSIN
   7.9968    8.0398   24.3670  89.7410  89.6770  79.3080   2 1

