# MOL2 file generated by ConQuest
# Please check atom types

@<TRIPOS>MOLECULE
CARRAO
    36    37     1
SMALL
NO_CHARGES
****
Generated from CSD

@<TRIPOS>ATOM
      1 C1         4.9119    2.5140    2.0284 C.ar      1 RES1    0.0000
      2 C2         4.0499    1.6517    2.6604 C.ar      1 RES1    0.0000
      3 C3         4.5666    0.4157    3.1067 C.ar      1 RES1    0.0000
      4 C4         5.8646    0.0698    2.9076 C.ar      1 RES1    0.0000
      5 C5         8.1330    0.6323    2.0591 C.ar      1 RES1    0.0000
      6 C6         8.9510    1.5128    1.4302 C.ar      1 RES1    0.0000
      7 C7         8.4607    2.7433    0.9618 C.ar      1 RES1    0.0000
      8 C8         7.1588    3.0813    1.1492 C.ar      1 RES1    0.0000
      9 C9         6.2719    2.1990    1.8048 C.ar      1 RES1    0.0000
     10 C10        6.7610    0.9484    2.2598 C.ar      1 RES1    0.0000
     11 C11        2.6005    2.0473    2.9060 C.3       1 RES1    0.0000
     12 C12        2.1989    1.7197    4.3622 C.3       1 RES1    0.0000
     13 C13        1.6151    1.4812    1.8363 C.3       1 RES1    0.0000
     14 C14        1.9799    2.0407    0.4644 C.3       1 RES1    0.0000
     15 C15        0.1909    1.9581    2.1402 C.3       1 RES1    0.0000
     16 C16        1.6283   -0.0473    1.7804 C.3       1 RES1    0.0000
     17 H1         4.5368    3.3435    1.7316 H         1 RES1    0.0000
     18 H2         4.0006   -0.2306    3.6522 H         1 RES1    0.0000
     19 H3         6.1999   -0.8252    3.2035 H         1 RES1    0.0000
     20 H4         8.4592   -0.1396    2.4164 H         1 RES1    0.0000
     21 H5         9.8731    1.2136    1.3460 H         1 RES1    0.0000
     22 H6         9.0776    3.5134    0.4959 H         1 RES1    0.0000
     23 H7         6.8248    3.9685    0.8579 H         1 RES1    0.0000
     24 H8         2.5474    3.1190    2.7942 H         1 RES1    0.0000
     25 H9         2.9248    1.9903    5.0139 H         1 RES1    0.0000
     26 H10        1.4095    2.0388    4.6361 H         1 RES1    0.0000
     27 H11        2.1378    0.5825    4.5023 H         1 RES1    0.0000
     28 H12        1.3470    1.6384   -0.2676 H         1 RES1    0.0000
     29 H13        2.9146    1.8265    0.2755 H         1 RES1    0.0000
     30 H14        1.9655    3.0947    0.5116 H         1 RES1    0.0000
     31 H15       -0.1143    1.4685    3.0146 H         1 RES1    0.0000
     32 H16        0.0890    2.8034    2.2590 H         1 RES1    0.0000
     33 H17       -0.4330    1.6444    1.4404 H         1 RES1    0.0000
     34 H18        2.5265   -0.3884    1.4640 H         1 RES1    0.0000
     35 H19        0.9550   -0.2852    1.1807 H         1 RES1    0.0000
     36 H20        1.4928   -0.4005    2.7628 H         1 RES1    0.0000
@<TRIPOS>BOND
     1    1    2 ar
     2    2    3 ar
     3    3    4 ar
     4    4   10 ar
     5    5    6 ar
     6    6    7 ar
     7    7    8 ar
     8    8    9 ar
     9    9    1 ar
    10   10    5 ar
    11   11    2 1
    12   12   11 1
    13   13   11 1
    14   14   13 1
    15   15   13 1
    16   16   13 1
    17   17    1 1
    18   18    3 1
    19   19    4 1
    20   20    5 1
    21   21    6 1
    22   22    7 1
    23   23    8 1
    24   24   11 1
    25   25   12 1
    26   26   12 1
    27   27   12 1
    28   28   14 1
    29   29   14 1
    30   30   14 1
    31   31   15 1
    32   32   15 1
    33   33   15 1
    34   34   16 1
    35   35   16 1
    36   36   16 1
    37    9   10 ar
@<TRIPOS>SUBSTRUCTURE
     1 RES1 1

@<TRIPOS>CRYSIN
  13.7030    6.0680    7.8720  90.0000  90.8700  90.0000   4 1

