# MOL2 file generated by ConQuest
# Please check atom types

@<TRIPOS>MOLECULE
CEBJOL
    68    75     1
SMALL
NO_CHARGES
****
Generated from CSD

@<TRIPOS>ATOM
      1 C1         9.0392   -0.4115   -2.8804 C.3       1 RES1    0.0000
      2 H1         8.1953   -0.8239   -3.1621 H         1 RES1    0.0000
      3 H2         9.7079   -1.1101   -2.7200 H         1 RES1    0.0000
      4 H3         9.3595    0.1914   -3.5826 H         1 RES1    0.0000
      5 C2         8.8191    0.3619   -1.6239 C.ar      1 RES1    0.0000
      6 C3         9.8784    1.0562   -0.9850 C.ar      1 RES1    0.0000
      7 C4         9.6363    1.7914    0.2208 C.ar      1 RES1    0.0000
      8 C5         8.3324    1.8192    0.7640 C.ar      1 RES1    0.0000
      9 C6         8.0219    2.6170    2.0032 C.ar      1 RES1    0.0000
     10 C7         8.0398    1.9976    3.2764 C.ar      1 RES1    0.0000
     11 C8         7.5307    2.7119    4.4237 C.ar      1 RES1    0.0000
     12 C9         7.4742    2.0559    5.6883 C.ar      1 RES1    0.0000
     13 C10        6.8413    2.7710    6.8531 C.ar      1 RES1    0.0000
     14 C11        5.4801    2.8832    6.9332 C.ar      1 RES1    0.0000
     15 H4         4.9412    2.4726    6.2676 H         1 RES1    0.0000
     16 C12        4.8579    3.5923    7.9775 C.ar      1 RES1    0.0000
     17 H5         3.9091    3.6489    7.9956 H         1 RES1    0.0000
     18 C13        5.5802    4.2005    8.9660 C.ar      1 RES1    0.0000
     19 C14        4.8958    4.9739   10.0702 C.3       1 RES1    0.0000
     20 H6         3.9237    4.9243    9.9500 H         1 RES1    0.0000
     21 H7         5.1808    5.9109   10.0389 H         1 RES1    0.0000
     22 H8         5.1390    4.5885   10.9366 H         1 RES1    0.0000
     23 C15       12.2153    1.7235   -0.8818 C.ar      1 RES1    0.0000
     24 H9        13.0917    1.6974   -1.2454 H         1 RES1    0.0000
     25 C16       11.1981    1.0492   -1.4872 C.ar      1 RES1    0.0000
     26 H10       11.3834    0.5551   -2.2779 H         1 RES1    0.0000
     27 C17        7.5426    0.4446   -1.0678 C.ar      1 RES1    0.0000
     28 H11        6.8146    0.0096   -1.4961 H         1 RES1    0.0000
     29 C18        7.3256    1.1597    0.1094 C.ar      1 RES1    0.0000
     30 H12        6.4466    1.1911    0.4718 H         1 RES1    0.0000
     31 C19       10.7151    2.4865    0.8249 C.ar      1 RES1    0.0000
     32 H13       10.5678    2.9816    1.6228 H         1 RES1    0.0000
     33 C20       11.9564    2.4517    0.2774 C.ar      1 RES1    0.0000
     34 H14       12.6616    2.9337    0.6928 H         1 RES1    0.0000
     35 C21        8.5265    0.6899    3.4489 C.ar      1 RES1    0.0000
     36 H15        8.8699    0.2210    2.6984 H         1 RES1    0.0000
     37 C22        8.5195    0.0653    4.6903 C.ar      1 RES1    0.0000
     38 C23        7.9670    0.7517    5.8241 C.ar      1 RES1    0.0000
     39 C24        7.0095    4.0987    8.9278 C.ar      1 RES1    0.0000
     40 C25        7.6347    3.3739    7.8675 C.ar      1 RES1    0.0000
     41 C26        9.0456    3.2704    7.8632 C.ar      1 RES1    0.0000
     42 H16        9.4743    2.7780    7.1734 H         1 RES1    0.0000
     43 C27        9.8059    3.8664    8.8347 C.ar      1 RES1    0.0000
     44 H17       10.7519    3.7855    8.8151 H         1 RES1    0.0000
     45 C28        9.1860    4.5954    9.8602 C.ar      1 RES1    0.0000
     46 H18        9.7176    5.0165   10.5269 H         1 RES1    0.0000
     47 C29        7.8383    4.7033    9.9090 C.ar      1 RES1    0.0000
     48 H19        7.4372    5.1958   10.6158 H         1 RES1    0.0000
     49 C30        7.0931    4.0421    4.2568 C.ar      1 RES1    0.0000
     50 H20        6.7470    4.5154    5.0033 H         1 RES1    0.0000
     51 C31        7.1586    4.6746    3.0235 C.ar      1 RES1    0.0000
     52 C32        6.7333    6.0310    2.8462 C.ar      1 RES1    0.0000
     53 H21        6.3945    6.5147    3.5880 H         1 RES1    0.0000
     54 C33        6.8074    6.6278    1.6466 C.ar      1 RES1    0.0000
     55 H22        6.5377    7.5344    1.5581 H         1 RES1    0.0000
     56 C34        7.2802    5.9309    0.5092 C.ar      1 RES1    0.0000
     57 H23        7.3317    6.3746   -0.3289 H         1 RES1    0.0000
     58 C35        7.6591    4.6311    0.6103 C.ar      1 RES1    0.0000
     59 H24        7.9496    4.1674   -0.1644 H         1 RES1    0.0000
     60 C36        7.6267    3.9499    1.8711 C.ar      1 RES1    0.0000
     61 C37        7.9091    0.0513    7.0696 C.ar      1 RES1    0.0000
     62 H25        7.5524    0.4855    7.8365 H         1 RES1    0.0000
     63 C38        8.3640   -1.2415    7.1701 C.ar      1 RES1    0.0000
     64 H26        8.2991   -1.7018    7.9983 H         1 RES1    0.0000
     65 C39        8.9237   -1.8862    6.0589 C.ar      1 RES1    0.0000
     66 H27        9.2453   -2.7754    6.1517 H         1 RES1    0.0000
     67 C40        9.0151   -1.2685    4.8566 C.ar      1 RES1    0.0000
     68 H28        9.4092   -1.7218    4.1218 H         1 RES1    0.0000
@<TRIPOS>BOND
     1    1    2 1
     2    3    1 1
     3    4    1 1
     4    5    1 1
     5    6    5 ar
     6    7    6 ar
     7    8    7 ar
     8    9    8 1
     9   10    9 ar
    10   11   10 ar
    11   12   11 ar
    12   13   12 1
    13   14   13 ar
    14   15   14 1
    15   16   14 ar
    16   17   16 1
    17   18   16 ar
    18   19   18 1
    19   20   19 1
    20   21   19 1
    21   22   19 1
    22   23   24 1
    23   25    6 ar
    24   26   25 1
    25   27    5 ar
    26   28   27 1
    27   29    8 ar
    28   30   29 1
    29   31    7 ar
    30   32   31 1
    31   33   23 ar
    32   34   33 1
    33   35   10 ar
    34   36   35 1
    35   37   35 ar
    36   38   12 ar
    37   39   18 ar
    38   40   13 ar
    39   41   40 ar
    40   42   41 1
    41   43   41 ar
    42   44   43 1
    43   45   43 ar
    44   46   45 1
    45   47   39 ar
    46   48   47 1
    47   49   11 ar
    48   50   49 1
    49   51   49 ar
    50   52   51 ar
    51   53   52 1
    52   54   52 ar
    53   55   54 1
    54   56   54 ar
    55   57   56 1
    56   58   56 ar
    57   59   58 1
    58   60    9 ar
    59   61   38 ar
    60   62   61 1
    61   63   61 ar
    62   64   63 1
    63   65   63 ar
    64   66   65 1
    65   67   37 ar
    66   68   67 1
    67   23   25 ar
    68   27   29 ar
    69   31   33 ar
    70   37   38 ar
    71   39   40 ar
    72   45   47 ar
    73   51   60 ar
    74   58   60 ar
    75   65   67 ar
@<TRIPOS>SUBSTRUCTURE
     1 RES1 1

@<TRIPOS>CRYSIN
  22.9260    8.7002   27.2440  90.0000  98.3180  90.0000  15 1

