# MOL2 file generated by ConQuest
# Please check atom types

@<TRIPOS>MOLECULE
CEBKOL
    37    40     1
SMALL
NO_CHARGES
****
Generated from CSD

@<TRIPOS>ATOM
      1 C1        -1.5786    5.0609    8.7523 C.ar      1 RES1    0.0000
      2 C2        -2.5372    4.0444    8.6745 C.ar      1 RES1    0.0000
      3 H1        -3.3328    4.1322    9.1489 H         1 RES1    0.0000
      4 C3        -2.3328    2.9345    7.9237 C.ar      1 RES1    0.0000
      5 H2        -2.9798    2.2667    7.8950 H         1 RES1    0.0000
      6 C4        -1.1673    2.7950    7.2007 C.ar      1 RES1    0.0000
      7 H3        -1.0346    2.0389    6.6760 H         1 RES1    0.0000
      8 C5        -0.1985    3.7716    7.2528 C.ar      1 RES1    0.0000
      9 H4         0.5819    3.6665    6.7583 H         1 RES1    0.0000
     10 C6        -0.3691    4.9253    8.0406 C.ar      1 RES1    0.0000
     11 C7         0.6546    5.9501    8.1747 C.ar      1 RES1    0.0000
     12 C8         1.8674    5.8859    7.4632 C.ar      1 RES1    0.0000
     13 H5         2.0059    5.1996    6.8505 H         1 RES1    0.0000
     14 C9         2.8379    6.8183    7.6634 C.ar      1 RES1    0.0000
     15 H6         3.6318    6.7657    7.1820 H         1 RES1    0.0000
     16 C10        2.6597    7.8449    8.5758 C.ar      1 RES1    0.0000
     17 H7         3.3438    8.4607    8.7077 H         1 RES1    0.0000
     18 C11        1.4882    7.9708    9.2920 C.ar      1 RES1    0.0000
     19 C12        0.4493    7.0282    9.0684 C.ar      1 RES1    0.0000
     20 C13       -0.8379    7.1531    9.6966 C.ar      1 RES1    0.0000
     21 H8        -1.0144    7.8962   10.2259 H         1 RES1    0.0000
     22 C14       -1.7872    6.2251    9.5373 C.ar      1 RES1    0.0000
     23 H9        -2.6098    6.3459    9.9541 H         1 RES1    0.0000
     24 C15        1.3438    9.0910   10.2640 C.ar      1 RES1    0.0000
     25 C16        1.6267   10.3894    9.8831 C.ar      1 RES1    0.0000
     26 H10        1.9156   10.5569    9.0143 H         1 RES1    0.0000
     27 C17        1.4874   11.4426   10.7676 C.ar      1 RES1    0.0000
     28 H11        1.6875   12.3049   10.4826 H         1 RES1    0.0000
     29 C18        1.0583   11.2476   12.0626 C.ar      1 RES1    0.0000
     30 C19        0.8032    9.9561   12.4550 C.ar      1 RES1    0.0000
     31 H12        0.5245    9.7946   13.3270 H         1 RES1    0.0000
     32 C20        0.9493    8.8961   11.5907 C.ar      1 RES1    0.0000
     33 H13        0.7813    8.0337   11.8936 H         1 RES1    0.0000
     34 C21        0.8438   12.4079   13.0139 C.3       1 RES1    0.0000
     35 H14       -0.0938   12.6072   13.0678 H         1 RES1    0.0000
     36 H15        1.3167   13.1789   12.6914 H         1 RES1    0.0000
     37 H16        1.1723   12.1731   13.8855 H         1 RES1    0.0000
@<TRIPOS>BOND
     1    1    2 ar
     2    2    3 1
     3    4    2 ar
     4    5    4 1
     5    6    4 ar
     6    7    6 1
     7    8    6 ar
     8    9    8 1
     9   10    1 ar
    10   11   10 ar
    11   12   11 ar
    12   13   12 1
    13   14   12 ar
    14   15   14 1
    15   16   14 ar
    16   17   16 1
    17   18   16 ar
    18   19   11 ar
    19   20   19 ar
    20   21   20 1
    21   22    1 ar
    22   23   22 1
    23   24   18 1
    24   25   24 ar
    25   26   25 1
    26   27   25 ar
    27   28   27 1
    28   29   27 ar
    29   30   29 ar
    30   31   30 1
    31   32   24 ar
    32   33   32 1
    33   34   29 1
    34   35   34 1
    35   36   34 1
    36   37   34 1
    37    8   10 ar
    38   18   19 ar
    39   20   22 ar
    40   30   32 ar
@<TRIPOS>SUBSTRUCTURE
     1 RES1 1

@<TRIPOS>CRYSIN
   8.4461   14.3280   24.9290  90.0000  90.0000  90.0000  61 1

