# MOL2 file generated by ConQuest
# Please check atom types

@<TRIPOS>MOLECULE
CEGCAS01
    42    49     1
SMALL
NO_CHARGES
****
Generated from CSD

@<TRIPOS>ATOM
      1 C1        -0.2568    1.2486    2.7217 C.ar      1 RES1    0.0000
      2 C2        -0.2568    2.6782    2.7217 C.ar      1 RES1    0.0000
      3 C3         0.2487    3.4151    1.6178 C.ar      1 RES1    0.0000
      4 C4         0.9248    2.8000    0.6303 C.ar      1 RES1    0.0000
      5 C5         1.2615    1.4261    0.7893 C.ar      1 RES1    0.0000
      6 C6         2.3918    0.9956    0.0316 C.ar      1 RES1    0.0000
      7 C7         3.0100   -0.1474    0.3789 C.ar      1 RES1    0.0000
      8 C8         2.4173   -1.0432    1.3129 C.ar      1 RES1    0.0000
      9 C9         3.1056   -2.2581    1.5546 C.ar      1 RES1    0.0000
     10 C10        2.4825   -3.2805    2.1599 C.ar      1 RES1    0.0000
     11 C11        1.1078   -3.1691    2.4876 C.ar      1 RES1    0.0000
     12 C12        0.4370   -1.9054    2.4898 C.ar      1 RES1    0.0000
     13 C13        1.1395   -0.7775    1.9019 C.ar      1 RES1    0.0000
     14 C14        0.6468    0.5988    1.7767 C.ar      1 RES1    0.0000
     15 C15        0.4141   -4.3979    2.6770 C.ar      1 RES1    0.0000
     16 H1         0.1115    4.4095    1.5895 H         1 RES1    0.0000
     17 H2         1.2703    3.2955   -0.1633 H         1 RES1    0.0000
     18 H3         2.7324    1.5897   -0.6967 H         1 RES1    0.0000
     19 H4         3.8985   -0.3829   -0.0327 H         1 RES1    0.0000
     20 H5         4.0288   -2.3440    1.2193 H         1 RES1    0.0000
     21 H6         2.9698   -4.1194    2.3297 H         1 RES1    0.0000
     22 H7         0.9489   -5.2566    2.6890 H         1 RES1    0.0000
     23 C14B      -1.1603    0.5988    3.6666 C.ar      1 RES1    0.0000
     24 C3B       -0.7623    3.4151    3.8256 C.ar      1 RES1    0.0000
     25 C12B      -0.9506   -1.9054    2.9535 C.ar      1 RES1    0.0000
     26 C15B      -0.9277   -4.3979    2.7663 C.ar      1 RES1    0.0000
     27 C5B       -1.7751    1.4261    4.6540 C.ar      1 RES1    0.0000
     28 C13B      -1.6531   -0.7775    3.5414 C.ar      1 RES1    0.0000
     29 C4B       -1.4384    2.8000    4.8130 C.ar      1 RES1    0.0000
     30 H1B       -0.6251    4.4095    3.8539 H         1 RES1    0.0000
     31 C11B      -1.6214   -3.1691    2.9557 C.ar      1 RES1    0.0000
     32 H7B       -1.4625   -5.2566    2.7543 H         1 RES1    0.0000
     33 C6B       -2.9054    0.9956    5.4118 C.ar      1 RES1    0.0000
     34 C8B       -2.9309   -1.0432    4.1304 C.ar      1 RES1    0.0000
     35 H2B       -1.7839    3.2955    5.6066 H         1 RES1    0.0000
     36 C10B      -2.9961   -3.2805    3.2834 C.ar      1 RES1    0.0000
     37 C7B       -3.5236   -0.1474    5.0645 C.ar      1 RES1    0.0000
     38 H3B       -3.2460    1.5897    6.1401 H         1 RES1    0.0000
     39 C9B       -3.6192   -2.2581    3.8887 C.ar      1 RES1    0.0000
     40 H6B       -3.4833   -4.1194    3.1136 H         1 RES1    0.0000
     41 H4B       -4.4121   -0.3829    5.4760 H         1 RES1    0.0000
     42 H5B       -4.5424   -2.3440    4.2240 H         1 RES1    0.0000
@<TRIPOS>BOND
     1    1    2 ar
     2    2    3 ar
     3    3    4 ar
     4    4    5 ar
     5    5    6 ar
     6    6    7 ar
     7    7    8 ar
     8    8    9 ar
     9    9   10 ar
    10   10   11 ar
    11   11   12 ar
    12   12   13 ar
    13   13    8 ar
    14   14    1 ar
    15   15   11 ar
    16   16    3 1
    17   17    4 1
    18   18    6 1
    19   19    7 1
    20   20    9 1
    21   21   10 1
    22   22   15 1
    23   23    1 ar
    24   24    2 ar
    25   25   12 ar
    26   26   15 ar
    27   27   23 ar
    28   28   23 ar
    29   29   24 ar
    30   30   24 1
    31   31   25 ar
    32   32   26 1
    33   33   27 ar
    34   34   28 ar
    35   35   29 1
    36   36   31 ar
    37   37   33 ar
    38   38   33 1
    39   39   34 ar
    40   40   36 1
    41   41   37 1
    42   42   39 1
    43    5   14 ar
    44   13   14 ar
    45   25   28 ar
    46   26   31 ar
    47   27   29 ar
    48   34   37 ar
    49   36   39 ar
@<TRIPOS>SUBSTRUCTURE
     1 RES1 1

@<TRIPOS>CRYSIN
  13.0720   11.6040   10.9350  90.0000  95.3900  90.0000  15 1

