# MOL2 file generated by ConQuest
# Please check atom types

@<TRIPOS>MOLECULE
CEKREP
    30    31     1
SMALL
NO_CHARGES
****
Generated from CSD

@<TRIPOS>ATOM
      1 C1         2.5689    0.5236    6.6908 C.ar      1 RES1    0.0000
      2 C2         1.7178    1.0155    7.7381 C.ar      1 RES1    0.0000
      3 C3         3.9090    0.9936    6.4911 C.ar      1 RES1    0.0000
      4 C4         4.6465    0.4830    5.4637 C.ar      1 RES1    0.0000
      5 C5         0.4651    0.4882    7.8729 C.ar      1 RES1    0.0000
      6 C6         2.0655    2.1190    8.7180 C.3       1 RES1    0.0000
      7 C7         4.6039    2.0555    7.3249 C.3       1 RES1    0.0000
      8 H1         2.8688    1.7801    9.2748 H         1 RES1    0.0000
      9 H2         2.2799    2.8992    8.3510 H         1 RES1    0.0000
     10 H3         1.2240    2.3839    9.2623 H         1 RES1    0.0000
     11 H4         4.2220    2.9044    7.2525 H         1 RES1    0.0000
     12 H5         4.5905    1.8686    8.2262 H         1 RES1    0.0000
     13 H6         5.5779    1.9831    7.0653 H         1 RES1    0.0000
     14 H7        -0.0812    0.9890    8.5757 H         1 RES1    0.0000
     15 H8         5.5850    0.8640    5.3427 H         1 RES1    0.0000
     16 C1B        2.0530   -0.5236    5.7920 C.ar      1 RES1    0.0000
     17 C5B        4.1568   -0.4882    4.6099 C.ar      1 RES1    0.0000
     18 C4B       -0.0246   -0.4830    7.0191 C.ar      1 RES1    0.0000
     19 C2B        2.9041   -1.0155    4.7447 C.ar      1 RES1    0.0000
     20 C3B        0.7129   -0.9936    5.9918 C.ar      1 RES1    0.0000
     21 H7B        4.7031   -0.9889    3.9071 H         1 RES1    0.0000
     22 H8B       -0.9631   -0.8640    7.1402 H         1 RES1    0.0000
     23 C6B        2.5564   -2.1190    3.7648 C.3       1 RES1    0.0000
     24 C7B        0.0180   -2.0555    5.1579 C.3       1 RES1    0.0000
     25 H1B        1.7531   -1.7801    3.2081 H         1 RES1    0.0000
     26 H2B        2.3420   -2.8992    4.1318 H         1 RES1    0.0000
     27 H3B        3.3979   -2.3839    3.2206 H         1 RES1    0.0000
     28 H4B        0.3999   -2.9044    5.2303 H         1 RES1    0.0000
     29 H5B        0.0314   -1.8686    4.2567 H         1 RES1    0.0000
     30 H6B       -0.9560   -1.9831    5.4176 H         1 RES1    0.0000
@<TRIPOS>BOND
     1    1    2 ar
     2    2    5 ar
     3    3    1 ar
     4    4    3 ar
     5    5   14 1
     6    6    2 1
     7    7    3 1
     8    8    6 1
     9    9    6 1
    10   10    6 1
    11   11    7 1
    12   12    7 1
    13   13    7 1
    14   15    4 1
    15   16    1 ar
    16   17    4 ar
    17   18    5 ar
    18   19   16 ar
    19   20   16 ar
    20   21   17 1
    21   22   18 1
    22   23   19 1
    23   24   20 1
    24   25   23 1
    25   26   23 1
    26   27   23 1
    27   28   24 1
    28   29   24 1
    29   30   24 1
    30   17   19 ar
    31   18   20 ar
@<TRIPOS>SUBSTRUCTURE
     1 RES1 1

@<TRIPOS>CRYSIN
   7.9620    5.2050   12.9220  90.0000 104.9800  90.0000 231 1

