# MOL2 file generated by ConQuest
# Please check atom types

@<TRIPOS>MOLECULE
CEKREP01
    14    15     1
SMALL
NO_CHARGES
****
Generated from CSD

@<TRIPOS>ATOM
      1 C1         2.0564    3.1047    5.7797 C.ar      1 RES1    0.0000
      2 C2         2.9038    3.6091    4.7226 C.ar      1 RES1    0.0000
      3 C3         4.1585    3.0881    4.5956 C.ar      1 RES1    0.0000
      4 C4         4.6437    2.1020    5.4335 C.ar      1 RES1    0.0000
      5 C5         0.7112    3.5910    5.9776 C.ar      1 RES1    0.0000
      6 C6         2.5545    4.7068    3.7564 C.3       1 RES1    0.0000
      7 C7         0.0199    4.6476    5.1434 C.3       1 RES1    0.0000
      8 C1B        2.5671    2.0853    6.6711 C.ar      1 RES1    0.0000
      9 C5B        3.9123    1.5990    6.4732 C.ar      1 RES1    0.0000
     10 C4B       -0.0202    3.0881    7.0173 C.ar      1 RES1    0.0000
     11 C2B        1.7197    1.5809    7.7282 C.ar      1 RES1    0.0000
     12 C7B        4.6035    0.5424    7.3074 C.3       1 RES1    0.0000
     13 C3B        0.4650    2.1020    7.8552 C.ar      1 RES1    0.0000
     14 C6B        2.0690    0.4832    8.6944 C.3       1 RES1    0.0000
@<TRIPOS>BOND
     1    1    2 ar
     2    2    3 ar
     3    3    4 ar
     4    4    9 ar
     5    5    1 ar
     6    6    2 1
     7    7    5 1
     8    8    1 ar
     9    9    8 ar
    10   10    5 ar
    11   11    8 ar
    12   12    9 1
    13   13   10 ar
    14   14   11 1
    15   11   13 ar
@<TRIPOS>SUBSTRUCTURE
     1 RES1 1

@<TRIPOS>CRYSIN
   7.9480    5.1900   12.8870  90.0000 104.9500  90.0000 231 1

