# MOL2 file generated by ConQuest
# Please check atom types

@<TRIPOS>MOLECULE
CENXUO
    66    75     1
SMALL
NO_CHARGES
****
Generated from CSD

@<TRIPOS>ATOM
      1 C1        10.9002   -0.4337    8.8583 C.ar      1 RES1    0.0000
      2 C2        10.3377    0.2214    7.7962 C.ar      1 RES1    0.0000
      3 C3         8.9521    0.1963    7.5515 C.ar      1 RES1    0.0000
      4 C4         8.1357   -0.4566    8.3838 C.ar      1 RES1    0.0000
      5 C5         8.6412   -1.1460    9.5054 C.ar      1 RES1    0.0000
      6 C6         7.7506   -1.7806   10.3983 C.ar      1 RES1    0.0000
      7 C7         8.1996   -2.4209   11.4936 C.ar      1 RES1    0.0000
      8 C8         9.5841   -2.5054   11.7131 C.ar      1 RES1    0.0000
      9 C9        10.4998   -1.9449   10.8739 C.ar      1 RES1    0.0000
     10 C10       10.0509   -1.1756    9.7489 C.ar      1 RES1    0.0000
     11 C11       12.3675   -0.2511    9.0858 C.ar      1 RES1    0.0000
     12 C12       13.2838   -1.1871    8.6228 C.ar      1 RES1    0.0000
     13 C13       14.6269   -1.0969    8.9177 C.ar      1 RES1    0.0000
     14 C14       15.1203   -0.0514    9.6906 C.ar      1 RES1    0.0000
     15 C15       14.2249    0.9645   10.1079 C.ar      1 RES1    0.0000
     16 C16       16.4866    0.0274   10.0862 C.ar      1 RES1    0.0000
     17 C17       16.9386    1.0398   10.8499 C.ar      1 RES1    0.0000
     18 C18       16.0684    2.0853   11.2855 C.ar      1 RES1    0.0000
     19 C19       14.7094    2.0420   10.9002 C.ar      1 RES1    0.0000
     20 C20       16.5116    3.1389   12.0870 C.ar      1 RES1    0.0000
     21 C21       15.6395    4.1159   12.4985 C.ar      1 RES1    0.0000
     22 C22       14.3121    4.0862   12.1395 C.ar      1 RES1    0.0000
     23 C23       13.8233    3.0578   11.3347 C.ar      1 RES1    0.0000
     24 C24       12.4559    2.9756   10.9345 C.ar      1 RES1    0.0000
     25 C25       11.9892    1.9415   10.2074 C.ar      1 RES1    0.0000
     26 C26       12.8428    0.8755    9.7821 C.ar      1 RES1    0.0000
     27 C27       11.9305   -2.2988   11.1460 C.ar      1 RES1    0.0000
     28 C28       12.4351   -3.4596   10.5767 C.ar      1 RES1    0.0000
     29 C29       13.7311   -3.8671   10.8122 C.ar      1 RES1    0.0000
     30 C30       14.5732   -3.1263   11.6228 C.ar      1 RES1    0.0000
     31 C31       14.0647   -1.9632   12.2584 C.ar      1 RES1    0.0000
     32 C32       15.9399   -3.4915   11.8617 C.ar      1 RES1    0.0000
     33 C33       16.7210   -2.7690   12.6769 C.ar      1 RES1    0.0000
     34 C34       16.2367   -1.6037   13.3400 C.ar      1 RES1    0.0000
     35 C35       14.9028   -1.2008   13.1148 C.ar      1 RES1    0.0000
     36 C36       17.0381   -0.8344   14.1895 C.ar      1 RES1    0.0000
     37 C37       16.5355    0.2933   14.7897 C.ar      1 RES1    0.0000
     38 C38       15.2443    0.6997   14.5771 C.ar      1 RES1    0.0000
     39 C39       14.4000   -0.0354   13.7413 C.ar      1 RES1    0.0000
     40 C40       13.0457    0.3333   13.5024 C.ar      1 RES1    0.0000
     41 C41       12.2497   -0.3858   12.6929 C.ar      1 RES1    0.0000
     42 C42       12.7281   -1.5614   12.0264 C.ar      1 RES1    0.0000
     43 H1        10.9486    0.7419    7.2142 H         1 RES1    0.0000
     44 H2         8.6081    0.6848    6.8369 H         1 RES1    0.0000
     45 H3         7.1520   -0.4680    8.2546 H         1 RES1    0.0000
     46 H4         6.7749   -1.7578   10.1982 H         1 RES1    0.0000
     47 H5         7.5780   -2.8992   12.1761 H         1 RES1    0.0000
     48 H6         9.9136   -3.0590   12.5077 H         1 RES1    0.0000
     49 H7        12.9435   -1.9632    8.1403 H         1 RES1    0.0000
     50 H8        15.2393   -1.7806    8.6090 H         1 RES1    0.0000
     51 H9        17.1175   -0.6848    9.7752 H         1 RES1    0.0000
     52 H10       17.8768    1.0843   11.1243 H         1 RES1    0.0000
     53 H11       17.4865    3.1731   12.3476 H         1 RES1    0.0000
     54 H12       15.9571    4.8281   13.0793 H         1 RES1    0.0000
     55 H13       13.6513    4.7711   12.4277 H         1 RES1    0.0000
     56 H14       11.8484    3.6981   11.1700 H         1 RES1    0.0000
     57 H15       11.0615    1.8833    9.9581 H         1 RES1    0.0000
     58 H16       11.8674   -3.9949    9.9581 H         1 RES1    0.0000
     59 H17       14.0709   -4.6683   10.3811 H         1 RES1    0.0000
     60 H18       16.2256   -4.2688   11.3758 H         1 RES1    0.0000
     61 H19       17.6381   -3.0247   12.7935 H         1 RES1    0.0000
     62 H20       17.9786   -1.1300   14.3027 H         1 RES1    0.0000
     63 H21       17.1047    0.8104   15.4117 H         1 RES1    0.0000
     64 H22       14.8124    1.5181   15.0115 H         1 RES1    0.0000
     65 H23       12.7187    1.1414   13.9254 H         1 RES1    0.0000
     66 H24       11.3006   -0.1370   12.5306 H         1 RES1    0.0000
@<TRIPOS>BOND
     1    1    2 ar
     2    2    3 ar
     3    3    4 ar
     4    4    5 ar
     5    5    6 ar
     6    6    7 ar
     7    7    8 ar
     8    8    9 ar
     9    9   10 ar
    10   10    1 ar
    11   11    1 1
    12   12   11 ar
    13   13   12 ar
    14   14   13 ar
    15   15   14 ar
    16   16   14 ar
    17   17   16 ar
    18   18   17 ar
    19   19   15 ar
    20   20   18 ar
    21   21   20 ar
    22   22   21 ar
    23   23   19 ar
    24   24   23 ar
    25   25   24 ar
    26   26   11 ar
    27   27    9 1
    28   28   27 ar
    29   29   28 ar
    30   30   29 ar
    31   31   30 ar
    32   32   30 ar
    33   33   32 ar
    34   34   33 ar
    35   35   31 ar
    36   36   34 ar
    37   37   36 ar
    38   38   37 ar
    39   39   35 ar
    40   40   39 ar
    41   41   40 ar
    42   42   27 ar
    43   43    2 1
    44   44    3 1
    45   45    4 1
    46   46    6 1
    47   47    7 1
    48   48    8 1
    49   49   12 1
    50   50   13 1
    51   51   16 1
    52   52   17 1
    53   53   20 1
    54   54   21 1
    55   55   22 1
    56   56   24 1
    57   57   25 1
    58   58   28 1
    59   59   29 1
    60   60   32 1
    61   61   33 1
    62   62   36 1
    63   63   37 1
    64   64   38 1
    65   65   40 1
    66   66   41 1
    67    5   10 ar
    68   15   26 ar
    69   18   19 ar
    70   22   23 ar
    71   25   26 ar
    72   31   42 ar
    73   34   35 ar
    74   38   39 ar
    75   41   42 ar
@<TRIPOS>SUBSTRUCTURE
     1 RES1 1

@<TRIPOS>CRYSIN
  20.3010   11.4140   11.5720  90.0000  98.8900  90.0000  14 1

