# MOL2 file generated by ConQuest
# Please check atom types

@<TRIPOS>MOLECULE
CENYAV
    66    75     1
SMALL
NO_CHARGES
****
Generated from CSD

@<TRIPOS>ATOM
      1 C1         0.1222    1.8651    5.0438 C.ar      1 RES1    0.0000
      2 C2        -1.0337    2.1415    5.7525 C.ar      1 RES1    0.0000
      3 C3        -1.7856    1.1487    6.3659 C.ar      1 RES1    0.0000
      4 C4        -1.4063   -0.1273    6.2869 C.ar      1 RES1    0.0000
      5 C5        -0.2438   -0.4904    5.5651 C.ar      1 RES1    0.0000
      6 C6         0.1363   -1.8420    5.5065 C.ar      1 RES1    0.0000
      7 C7         1.2218   -2.2271    4.8389 C.ar      1 RES1    0.0000
      8 C8         2.0261   -1.2682    4.1829 C.ar      1 RES1    0.0000
      9 C9         1.7079    0.0570    4.2005 C.ar      1 RES1    0.0000
     10 C10        0.5439    0.5025    4.9165 C.ar      1 RES1    0.0000
     11 C11        0.8179    3.0445    4.4392 C.ar      1 RES1    0.0000
     12 C12        0.2507    3.6775    3.3382 C.ar      1 RES1    0.0000
     13 C13        0.8561    4.7406    2.7188 C.ar      1 RES1    0.0000
     14 C14        2.0776    5.2376    3.1815 C.ar      1 RES1    0.0000
     15 C15        2.6303    4.6583    4.3572 C.ar      1 RES1    0.0000
     16 C16        2.8031    6.2644    2.5022 C.ar      1 RES1    0.0000
     17 C17        3.9931    6.6879    2.9604 C.ar      1 RES1    0.0000
     18 C18        4.5705    6.1690    4.1595 C.ar      1 RES1    0.0000
     19 C19        3.8678    5.1542    4.8652 C.ar      1 RES1    0.0000
     20 C20        5.8066    6.5936    4.6807 C.ar      1 RES1    0.0000
     21 C21        6.3170    6.0724    5.8257 C.ar      1 RES1    0.0000
     22 C22        5.6268    5.1169    6.5402 C.ar      1 RES1    0.0000
     23 C23        4.4121    4.6276    6.0585 C.ar      1 RES1    0.0000
     24 C24        3.7051    3.5754    6.7071 C.ar      1 RES1    0.0000
     25 C25        2.5756    3.0565    6.2005 C.ar      1 RES1    0.0000
     26 C26        1.9932    3.5809    4.9955 C.ar      1 RES1    0.0000
     27 C27        2.6088    0.9479    3.4158 C.ar      1 RES1    0.0000
     28 C28        3.8769    1.2551    3.9106 C.ar      1 RES1    0.0000
     29 C29        4.7340    2.0713    3.2254 C.ar      1 RES1    0.0000
     30 C30        4.3777    2.6462    2.0131 C.ar      1 RES1    0.0000
     31 C31        3.1076    2.3237    1.4641 C.ar      1 RES1    0.0000
     32 C32        5.2285    3.5590    1.2957 C.ar      1 RES1    0.0000
     33 C33        4.8411    4.1086    0.1640 C.ar      1 RES1    0.0000
     34 C34        3.5685    3.8333   -0.4246 C.ar      1 RES1    0.0000
     35 C35        2.7031    2.9095    0.2343 C.ar      1 RES1    0.0000
     36 C36        3.1099    4.4246   -1.5944 C.ar      1 RES1    0.0000
     37 C37        1.9074    4.1229   -2.1391 C.ar      1 RES1    0.0000
     38 C38        1.0577    3.2090   -1.5241 C.ar      1 RES1    0.0000
     39 C39        1.4520    2.6012   -0.3177 C.ar      1 RES1    0.0000
     40 C40        0.6195    1.6742    0.3543 C.ar      1 RES1    0.0000
     41 C41        0.9804    1.1234    1.5417 C.ar      1 RES1    0.0000
     42 C42        2.2373    1.4493    2.1566 C.ar      1 RES1    0.0000
     43 H1        -1.2882    3.0829    5.7247 H         1 RES1    0.0000
     44 H2        -2.6253    1.3933    6.8667 H         1 RES1    0.0000
     45 H3        -1.8637   -0.8228    6.7202 H         1 RES1    0.0000
     46 H4        -0.3962   -2.5124    5.9296 H         1 RES1    0.0000
     47 H5         1.4741   -3.1487    4.7583 H         1 RES1    0.0000
     48 H6         2.8067   -1.5469    3.7188 H         1 RES1    0.0000
     49 H7        -0.5423    3.3023    2.9868 H         1 RES1    0.0000
     50 H8         0.4674    5.1893    1.8741 H         1 RES1    0.0000
     51 H9         2.3899    6.5936    1.6691 H         1 RES1    0.0000
     52 H10        4.5270    7.3177    2.4451 H         1 RES1    0.0000
     53 H11        6.2317    7.1860    4.0849 H         1 RES1    0.0000
     54 H12        7.2367    6.3632    6.2224 H         1 RES1    0.0000
     55 H13        6.0166    4.6188    7.4377 H         1 RES1    0.0000
     56 H14        4.0404    3.2035    7.4962 H         1 RES1    0.0000
     57 H15        2.1303    2.3478    6.6324 H         1 RES1    0.0000
     58 H16        4.0821    0.8448    4.7730 H         1 RES1    0.0000
     59 H17        5.6263    2.2929    3.6017 H         1 RES1    0.0000
     60 H18        6.1690    3.7740    1.7862 H         1 RES1    0.0000
     61 H19        5.4017    4.8053   -0.2928 H         1 RES1    0.0000
     62 H20        3.7278    5.1125   -2.0497 H         1 RES1    0.0000
     63 H21        1.5053    4.4762   -3.0307 H         1 RES1    0.0000
     64 H22        0.2296    2.9183   -1.9180 H         1 RES1    0.0000
     65 H23       -0.1967    1.4591   -0.0146 H         1 RES1    0.0000
     66 H24        0.3679    0.5705    1.9912 H         1 RES1    0.0000
@<TRIPOS>BOND
     1    1    2 ar
     2    2    3 ar
     3    3    4 ar
     4    4    5 ar
     5    5    6 ar
     6    6    7 ar
     7    7    8 ar
     8    8    9 ar
     9    9   10 ar
    10   10    1 ar
    11   11    1 1
    12   12   11 ar
    13   13   12 ar
    14   14   13 ar
    15   15   14 ar
    16   16   14 ar
    17   17   16 ar
    18   18   17 ar
    19   19   15 ar
    20   20   18 ar
    21   21   20 ar
    22   22   21 ar
    23   23   19 ar
    24   24   23 ar
    25   25   24 ar
    26   26   11 ar
    27   27    9 1
    28   28   27 ar
    29   29   28 ar
    30   30   29 ar
    31   31   30 ar
    32   32   30 ar
    33   33   32 ar
    34   34   33 ar
    35   35   31 ar
    36   36   34 ar
    37   37   36 ar
    38   38   37 ar
    39   39   35 ar
    40   40   39 ar
    41   41   40 ar
    42   42   27 ar
    43   43    2 1
    44   44    3 1
    45   45    4 1
    46   46    6 1
    47   47    7 1
    48   48    8 1
    49   49   12 1
    50   50   13 1
    51   51   16 1
    52   52   17 1
    53   53   20 1
    54   54   21 1
    55   55   22 1
    56   56   24 1
    57   57   25 1
    58   58   28 1
    59   59   29 1
    60   60   32 1
    61   61   33 1
    62   62   36 1
    63   63   37 1
    64   64   38 1
    65   65   40 1
    66   66   41 1
    67    5   10 ar
    68   15   26 ar
    69   18   19 ar
    70   22   23 ar
    71   25   26 ar
    72   31   42 ar
    73   34   35 ar
    74   38   39 ar
    75   41   42 ar
@<TRIPOS>SUBSTRUCTURE
     1 RES1 1

@<TRIPOS>CRYSIN
   8.5810   10.9710   14.6550  90.0000  92.5000  90.0000   4 1

