# MOL2 file generated by ConQuest
# Please check atom types

@<TRIPOS>MOLECULE
CENYEZ
    66    75     1
SMALL
NO_CHARGES
****
Generated from CSD

@<TRIPOS>ATOM
      1 C1        -1.8914    5.3562    1.5010 C.ar      1 RES1    0.0000
      2 C2        -2.4576    5.9356    0.4064 C.ar      1 RES1    0.0000
      3 C3        -2.6702    5.2720   -0.8150 C.ar      1 RES1    0.0000
      4 C4        -2.3135    3.9437   -0.8817 C.ar      1 RES1    0.0000
      5 C5        -1.6981    3.2877    0.1935 C.ar      1 RES1    0.0000
      6 C6        -1.3582    1.9012    0.0645 C.ar      1 RES1    0.0000
      7 C7        -0.8081    1.2462    1.0838 C.ar      1 RES1    0.0000
      8 C8        -0.4956    1.9055    2.2816 C.ar      1 RES1    0.0000
      9 C9        -0.7598    3.2586    2.4643 C.ar      1 RES1    0.0000
     10 C10       -1.4270    3.9707    1.4322 C.ar      1 RES1    0.0000
     11 C11       -2.4468    5.7705    3.9373 C.ar      1 RES1    0.0000
     12 C12       -1.8368    6.1611    2.7417 C.ar      1 RES1    0.0000
     13 C13       -1.1249    7.3771    2.7439 C.ar      1 RES1    0.0000
     14 C14       -0.9703    8.1303    3.8857 C.ar      1 RES1    0.0000
     15 C15       -1.5278    7.6674    5.1007 C.ar      1 RES1    0.0000
     16 C16       -0.1802    9.3344    3.9008 C.ar      1 RES1    0.0000
     17 C17        0.0269    9.9980    5.0448 C.ar      1 RES1    0.0000
     18 C18       -0.5077    9.5545    6.2985 C.ar      1 RES1    0.0000
     19 C19       -1.2999    8.3687    6.2985 C.ar      1 RES1    0.0000
     20 C20       -0.3014   10.2149    7.4919 C.ar      1 RES1    0.0000
     21 C21       -0.8131    9.7596    8.7090 C.ar      1 RES1    0.0000
     22 C22       -1.5852    8.5942    8.6983 C.ar      1 RES1    0.0000
     23 C23       -1.8282    7.8940    7.5242 C.ar      1 RES1    0.0000
     24 C24       -2.5963    6.6585    7.4855 C.ar      1 RES1    0.0000
     25 C25       -2.8530    6.0197    6.3479 C.ar      1 RES1    0.0000
     26 C26       -2.3038    6.4805    5.0986 C.ar      1 RES1    0.0000
     27 C27       -0.7007    3.2197    4.9609 C.ar      1 RES1    0.0000
     28 C28       -0.2952    3.8013    3.7589 C.ar      1 RES1    0.0000
     29 C29        0.6013    4.8749    3.8320 C.ar      1 RES1    0.0000
     30 C30        1.0191    5.3885    5.0319 C.ar      1 RES1    0.0000
     31 C31        0.5693    4.8037    6.2469 C.ar      1 RES1    0.0000
     32 C32        1.8672    6.5636    5.1287 C.ar      1 RES1    0.0000
     33 C33        2.1826    7.0869    6.3157 C.ar      1 RES1    0.0000
     34 C34        1.7568    6.5150    7.5500 C.ar      1 RES1    0.0000
     35 C35        0.9363    5.3562    7.4898 C.ar      1 RES1    0.0000
     36 C36        2.0906    7.0480    8.7757 C.ar      1 RES1    0.0000
     37 C37        1.6647    6.4621    9.9369 C.ar      1 RES1    0.0000
     38 C38        0.8635    5.3162    9.9154 C.ar      1 RES1    0.0000
     39 C39        0.4925    4.7638    8.7004 C.ar      1 RES1    0.0000
     40 C40       -0.3643    3.5974    8.6144 C.ar      1 RES1    0.0000
     41 C41       -0.7555    3.1291    7.4296 C.ar      1 RES1    0.0000
     42 C42       -0.3027    3.6859    6.1845 C.ar      1 RES1    0.0000
     43 H1        -2.8755    6.8517    0.4086 H         1 RES1    0.0000
     44 H2        -3.1971    5.7187   -1.6343 H         1 RES1    0.0000
     45 H3        -2.5582    3.4528   -1.7848 H         1 RES1    0.0000
     46 H4        -1.6646    1.4998   -0.8602 H         1 RES1    0.0000
     47 H5        -0.6100    0.2590    0.9892 H         1 RES1    0.0000
     48 H6         0.1131    1.4998    3.2041 H         1 RES1    0.0000
     49 H7        -2.9244    4.9742    3.8277 H         1 RES1    0.0000
     50 H8        -0.7427    7.7041    1.8493 H         1 RES1    0.0000
     51 H9         0.1342    9.6139    2.8600 H         1 RES1    0.0000
     52 H10        0.6169   10.8440    5.0749 H         1 RES1    0.0000
     53 H11        0.2063   11.0813    7.4833 H         1 RES1    0.0000
     54 H12       -0.5830   10.3692    9.7197 H         1 RES1    0.0000
     55 H13       -1.8053    8.2328    9.6767 H         1 RES1    0.0000
     56 H14       -2.9043    6.3661    8.3650 H         1 RES1    0.0000
     57 H15       -3.3975    5.1360    6.3221 H         1 RES1    0.0000
     58 H16       -1.2703    2.5141    4.8599 H         1 RES1    0.0000
     59 H17        0.8704    5.2979    2.9890 H         1 RES1    0.0000
     60 H18        2.1414    6.9488    4.1072 H         1 RES1    0.0000
     61 H19        2.7180    7.8659    6.4726 H         1 RES1    0.0000
     62 H20        2.6345    7.9199    8.7736 H         1 RES1    0.0000
     63 H21        1.9816    6.7545   10.8379 H         1 RES1    0.0000
     64 H22        0.6752    4.8555   10.8594 H         1 RES1    0.0000
     65 H23       -0.5712    3.1399    9.5262 H         1 RES1    0.0000
     66 H24       -1.3414    2.4601    7.3328 H         1 RES1    0.0000
@<TRIPOS>BOND
     1    1    2 ar
     2    2    3 ar
     3    3    4 ar
     4    4    5 ar
     5    5    6 ar
     6    6    7 ar
     7    7    8 ar
     8    8    9 ar
     9    9   10 ar
    10   10    1 ar
    11   11   12 ar
    12   12    1 1
    13   13   12 ar
    14   14   13 ar
    15   15   14 ar
    16   16   14 ar
    17   17   16 ar
    18   18   17 ar
    19   19   15 ar
    20   20   18 ar
    21   21   20 ar
    22   22   21 ar
    23   23   19 ar
    24   24   23 ar
    25   25   24 ar
    26   26   11 ar
    27   27   28 ar
    28   28    9 1
    29   29   28 ar
    30   30   29 ar
    31   31   30 ar
    32   32   30 ar
    33   33   32 ar
    34   34   33 ar
    35   35   31 ar
    36   36   34 ar
    37   37   36 ar
    38   38   37 ar
    39   39   35 ar
    40   40   39 ar
    41   41   40 ar
    42   42   27 ar
    43   43    2 1
    44   44    3 1
    45   45    4 1
    46   46    6 1
    47   47    7 1
    48   48    8 1
    49   49   11 1
    50   50   13 1
    51   51   16 1
    52   52   17 1
    53   53   20 1
    54   54   21 1
    55   55   22 1
    56   56   24 1
    57   57   25 1
    58   58   27 1
    59   59   29 1
    60   60   32 1
    61   61   33 1
    62   62   36 1
    63   63   37 1
    64   64   38 1
    65   65   40 1
    66   66   41 1
    67    5   10 ar
    68   15   26 ar
    69   18   19 ar
    70   22   23 ar
    71   25   26 ar
    72   31   42 ar
    73   34   35 ar
    74   38   39 ar
    75   41   42 ar
@<TRIPOS>SUBSTRUCTURE
     1 RES1 1

@<TRIPOS>CRYSIN
  11.4480   10.7900   21.5440  90.0000  93.5000  90.0000 231 1

