# MOL2 file generated by ConQuest
# Please check atom types

@<TRIPOS>MOLECULE
CEPWUP
    66    74     1
SMALL
NO_CHARGES
****
Generated from CSD

@<TRIPOS>ATOM
      1 C1         3.5236    1.9118    5.3527 C.ar      1 RES1    0.0000
      2 C2         2.2882    2.5322    5.5172 C.ar      1 RES1    0.0000
      3 C3         2.1931    3.5763    6.4282 C.ar      1 RES1    0.0000
      4 C4         3.3054    4.0700    7.1127 C.ar      1 RES1    0.0000
      5 C5         4.5700    3.4638    6.8933 C.ar      1 RES1    0.0000
      6 C6         3.2262    5.2084    7.9795 C.ar      1 RES1    0.0000
      7 C7         4.3305    5.7294    8.5519 C.ar      1 RES1    0.0000
      8 C8         5.6293    5.1628    8.3289 C.ar      1 RES1    0.0000
      9 C9         5.7328    4.0112    7.5073 C.ar      1 RES1    0.0000
     10 C10        6.7863    5.7548    8.8190 C.ar      1 RES1    0.0000
     11 C11        8.0496    5.2682    8.5030 C.ar      1 RES1    0.0000
     12 C12        8.1436    4.0913    7.7637 C.ar      1 RES1    0.0000
     13 C13        7.0151    3.4466    7.2522 C.ar      1 RES1    0.0000
     14 C14        7.0725    2.2687    6.4223 C.ar      1 RES1    0.0000
     15 C15        5.9714    1.7618    5.8392 C.ar      1 RES1    0.0000
     16 C16        4.6754    2.3477    6.0216 C.ar      1 RES1    0.0000
     17 C17        9.2668    6.0934    8.8369 C.3       1 RES1    0.0000
     18 C18        9.7341    6.9925    7.6898 C.3       1 RES1    0.0000
     19 C19        1.0848    2.0690    4.7064 C.3       1 RES1    0.0000
     20 H1         3.5820    1.1658    4.7458 H         1 RES1    0.0000
     21 H2         1.3271    4.0345    6.5701 H         1 RES1    0.0000
     22 H3         2.3240    5.6362    8.1202 H         1 RES1    0.0000
     23 H4         4.2664    6.5080    9.0861 H         1 RES1    0.0000
     24 H5         6.7549    6.5485    9.3246 H         1 RES1    0.0000
     25 H6         9.0693    3.7203    7.5479 H         1 RES1    0.0000
     26 H7         7.9865    1.8551    6.2959 H         1 RES1    0.0000
     27 H8         6.0452    1.0137    5.2704 H         1 RES1    0.0000
     28 H9         9.0907    6.6397    9.6704 H         1 RES1    0.0000
     29 H10       10.0260    5.5247    9.0980 H         1 RES1    0.0000
     30 H11       10.5590    7.4304    7.9891 H         1 RES1    0.0000
     31 H12       10.0159    6.3964    6.9040 H         1 RES1    0.0000
     32 H13        1.4265    1.5814    3.8872 H         1 RES1    0.0000
     33 H14        0.5769    1.4090    5.2704 H         1 RES1    0.0000
     34 C19B       8.7487    8.0680    7.2176 C.3       1 RES1    0.0000
     35 C18B       0.0993    3.1445    4.2342 C.3       1 RES1    0.0000
     36 C2B        7.5452    7.6048    6.4068 C.ar      1 RES1    0.0000
     37 H13B       8.4070    8.5556    8.0368 H         1 RES1    0.0000
     38 H14B       9.2566    8.7280    6.6536 H         1 RES1    0.0000
     39 C17B       0.5666    4.0436    3.0871 C.3       1 RES1    0.0000
     40 H11B      -0.7255    2.7066    3.9349 H         1 RES1    0.0000
     41 H12B      -0.1825    3.7406    5.0200 H         1 RES1    0.0000
     42 C1B        6.3098    8.2252    6.5713 C.ar      1 RES1    0.0000
     43 C3B        7.6403    6.5607    5.4958 C.ar      1 RES1    0.0000
     44 C11B       1.7839    4.8688    3.4210 C.ar      1 RES1    0.0000
     45 H9B        0.7428    3.4973    2.2536 H         1 RES1    0.0000
     46 H10B      -0.1925    4.6123    2.8260 H         1 RES1    0.0000
     47 C16B       5.1581    7.7893    5.9024 C.ar      1 RES1    0.0000
     48 H1B        6.2515    8.9712    7.1782 H         1 RES1    0.0000
     49 C4B        6.5280    6.0670    4.8113 C.ar      1 RES1    0.0000
     50 H2B        8.5064    6.1025    5.3539 H         1 RES1    0.0000
     51 C10B       3.0471    4.3822    3.1050 C.ar      1 RES1    0.0000
     52 C12B       1.6899    6.0457    4.1603 C.ar      1 RES1    0.0000
     53 C5B        5.2635    6.6732    5.0307 C.ar      1 RES1    0.0000
     54 C15B       3.8620    8.3752    6.0848 C.ar      1 RES1    0.0000
     55 C6B        6.6073    4.9286    3.9445 C.ar      1 RES1    0.0000
     56 C8B        4.2042    4.9742    3.5951 C.ar      1 RES1    0.0000
     57 H5B        3.0785    3.5885    2.5994 H         1 RES1    0.0000
     58 C13B       2.8184    6.6904    4.6718 C.ar      1 RES1    0.0000
     59 H6B        0.7642    6.4167    4.3761 H         1 RES1    0.0000
     60 C9B        4.1007    6.1258    4.4166 C.ar      1 RES1    0.0000
     61 C14B       2.7610    7.8683    5.5017 C.ar      1 RES1    0.0000
     62 H8B        3.7883    9.1233    6.6536 H         1 RES1    0.0000
     63 C7B        5.5030    4.4076    3.3721 C.ar      1 RES1    0.0000
     64 H3B        7.5095    4.5008    3.8038 H         1 RES1    0.0000
     65 H7B        1.8469    8.2819    5.6281 H         1 RES1    0.0000
     66 H4B        5.5671    3.6290    2.8379 H         1 RES1    0.0000
@<TRIPOS>BOND
     1    1    2 ar
     2    2    3 ar
     3    3    4 ar
     4    4    5 ar
     5    5    9 ar
     6    6    4 ar
     7    7    6 ar
     8    8    7 ar
     9    9    8 ar
    10   10    8 ar
    11   11   10 ar
    12   12   11 ar
    13   13    9 ar
    14   14   13 ar
    15   15   14 ar
    16   16    1 ar
    17   17   11 1
    18   18   17 1
    19   19    2 1
    20   20    1 1
    21   21    3 1
    22   22    6 1
    23   23    7 1
    24   24   10 1
    25   25   12 1
    26   26   14 1
    27   27   15 1
    28   28   17 1
    29   29   17 1
    30   30   18 1
    31   31   18 1
    32   32   19 1
    33   33   19 1
    34   34   18 1
    35   35   19 1
    36   36   34 1
    37   37   34 1
    38   38   34 1
    39   39   35 1
    40   40   35 1
    41   41   35 1
    42   42   36 ar
    43   43   36 ar
    44   44   39 1
    45   45   39 1
    46   46   39 1
    47   47   42 ar
    48   48   42 1
    49   49   43 ar
    50   50   43 1
    51   51   44 ar
    52   52   44 ar
    53   53   47 ar
    54   54   47 ar
    55   55   49 ar
    56   56   51 ar
    57   57   51 1
    58   58   52 ar
    59   59   52 1
    60   60   53 ar
    61   61   54 ar
    62   62   54 1
    63   63   55 ar
    64   64   55 1
    65   65   61 1
    66   66   63 1
    67    5   16 ar
    68   12   13 ar
    69   15   16 ar
    70   49   53 ar
    71   56   60 ar
    72   56   63 ar
    73   58   60 ar
    74   58   61 ar
@<TRIPOS>SUBSTRUCTURE
     1 RES1 1

@<TRIPOS>CRYSIN
  10.0520   10.1370   11.9260  90.0000  91.0500  90.0000  14 1

