# MOL2 file generated by ConQuest
# Please check atom types

@<TRIPOS>MOLECULE
CEPXAW
    72    80     1
SMALL
NO_CHARGES
****
Generated from CSD

@<TRIPOS>ATOM
      1 C1         1.4312    3.6960    7.9662 C.ar      1 RES1    0.0000
      2 C2         1.4260    4.7958    8.8109 C.ar      1 RES1    0.0000
      3 C3         2.6247    5.4322    9.0853 C.ar      1 RES1    0.0000
      4 C4         3.8302    5.0042    8.5289 C.ar      1 RES1    0.0000
      5 C5         3.8339    3.8820    7.6593 C.ar      1 RES1    0.0000
      6 C6         5.0812    5.6609    8.8034 C.ar      1 RES1    0.0000
      7 C7         6.2330    5.2309    8.2594 C.ar      1 RES1    0.0000
      8 C8         6.2722    4.0894    7.3811 C.ar      1 RES1    0.0000
      9 C9         5.0547    3.4236    7.0879 C.ar      1 RES1    0.0000
     10 C10        7.4487    3.6147    6.8121 C.ar      1 RES1    0.0000
     11 C11        7.4820    2.5067    5.9687 C.ar      1 RES1    0.0000
     12 C12        6.2853    1.8734    5.6768 C.ar      1 RES1    0.0000
     13 C13        5.0636    2.2973    6.2183 C.ar      1 RES1    0.0000
     14 C14        3.8127    1.6518    5.9525 C.ar      1 RES1    0.0000
     15 C15        2.6108    3.2162    7.3786 C.ar      1 RES1    0.0000
     16 C16        2.6590    2.0777    6.5040 C.ar      1 RES1    0.0000
     17 C17        8.8100    1.9944    5.4310 C.3       1 RES1    0.0000
     18 C18        9.6775    3.0780    4.7211 C.3       1 RES1    0.0000
     19 C19        9.2345    3.3880    3.3088 C.3       1 RES1    0.0000
     20 C20        0.1493    5.3021    9.4534 C.3       1 RES1    0.0000
     21 H1         0.5906    3.2426    7.7479 H         1 RES1    0.0000
     22 H2         2.6672    6.2210    9.7067 H         1 RES1    0.0000
     23 H3         5.0714    6.4344    9.3573 H         1 RES1    0.0000
     24 H4         7.0875    5.7026    8.4465 H         1 RES1    0.0000
     25 H5         8.2687    4.0762    7.0367 H         1 RES1    0.0000
     26 H6         6.2836    1.1182    5.1029 H         1 RES1    0.0000
     27 H7         3.8275    0.8640    5.3524 H         1 RES1    0.0000
     28 H8         1.7969    1.6467    6.3006 H         1 RES1    0.0000
     29 H9         8.6215    1.3011    4.6911 H         1 RES1    0.0000
     30 H10        9.3504    1.5857    6.1509 H         1 RES1    0.0000
     31 H11       10.6801    2.7446    4.6288 H         1 RES1    0.0000
     32 H12        9.6260    4.0558    5.2651 H         1 RES1    0.0000
     33 H13        8.3791    2.6937    3.2813 H         1 RES1    0.0000
     34 H14        9.9853    3.0698    2.6700 H         1 RES1    0.0000
     35 H15        0.2357    5.2350   10.4927 H         1 RES1    0.0000
     36 H16       -0.5984    4.6962    9.1328 H         1 RES1    0.0000
     37 C20B       8.9435    4.8629    3.0230 C.3       1 RES1    0.0000
     38 C19B      -0.1417    6.7770    9.1677 C.3       1 RES1    0.0000
     39 C2B        7.6668    5.3692    3.6656 C.ar      1 RES1    0.0000
     40 H15B       8.8571    4.9300    1.9838 H         1 RES1    0.0000
     41 H16B       9.6912    5.4688    3.3437 H         1 RES1    0.0000
     42 C18B      -0.5848    7.0870    7.7554 C.3       1 RES1    0.0000
     43 H13B       0.7137    7.4713    9.1951 H         1 RES1    0.0000
     44 H14B      -0.8925    7.0952    9.8065 H         1 RES1    0.0000
     45 C1B        7.6616    6.4690    4.5102 C.ar      1 RES1    0.0000
     46 C3B        6.4681    4.7328    3.3911 C.ar      1 RES1    0.0000
     47 C17B       0.2828    8.1706    7.0454 C.3       1 RES1    0.0000
     48 H11B      -1.5873    7.4205    7.8477 H         1 RES1    0.0000
     49 H12B      -0.5332    6.1092    7.2114 H         1 RES1    0.0000
     50 C15B       6.4820    6.9488    5.0979 C.ar      1 RES1    0.0000
     51 H1B        8.5022    6.9224    4.7286 H         1 RES1    0.0000
     52 C4B        5.2626    5.1608    3.9475 C.ar      1 RES1    0.0000
     53 H2B        6.4256    3.9440    2.7698 H         1 RES1    0.0000
     54 C11B       1.6108    7.6583    6.5077 C.ar      1 RES1    0.0000
     55 H9B        0.4713    8.8639    7.7853 H         1 RES1    0.0000
     56 H10B      -0.2576    8.5793    6.3256 H         1 RES1    0.0000
     57 C5B        5.2589    6.2830    4.8172 C.ar      1 RES1    0.0000
     58 C16B       6.4338    8.0873    5.9725 C.ar      1 RES1    0.0000
     59 C6B        4.0116    4.5041    3.6731 C.ar      1 RES1    0.0000
     60 C10B       1.6441    6.5503    5.6643 C.ar      1 RES1    0.0000
     61 C12B       2.8075    8.2916    6.7997 C.ar      1 RES1    0.0000
     62 C9B        4.0381    6.7414    5.3886 C.ar      1 RES1    0.0000
     63 C14B       5.2801    8.5132    6.5239 C.ar      1 RES1    0.0000
     64 H8B        7.2959    8.5183    6.1758 H         1 RES1    0.0000
     65 C7B        2.8598    4.9341    4.2170 C.ar      1 RES1    0.0000
     66 H3B        4.0214    3.7306    3.1191 H         1 RES1    0.0000
     67 C8B        2.8206    6.0756    5.0954 C.ar      1 RES1    0.0000
     68 H5B        0.8241    6.0888    5.4397 H         1 RES1    0.0000
     69 C13B       4.0292    7.8677    6.2582 C.ar      1 RES1    0.0000
     70 H6B        2.8092    9.0469    7.3736 H         1 RES1    0.0000
     71 H7B        5.2653    9.3010    7.1240 H         1 RES1    0.0000
     72 H4B        2.0053    4.4624    4.0299 H         1 RES1    0.0000
@<TRIPOS>BOND
     1    1    2 ar
     2    2    3 ar
     3    3    4 ar
     4    4    5 ar
     5    5    9 ar
     6    6    4 ar
     7    7    6 ar
     8    8    7 ar
     9    9    8 ar
    10   10    8 ar
    11   11   10 ar
    12   12   11 ar
    13   13    9 ar
    14   14   13 ar
    15   15    1 ar
    16   16   14 ar
    17   17   11 1
    18   18   17 1
    19   19   18 1
    20   20    2 1
    21   21    1 1
    22   22    3 1
    23   23    6 1
    24   24    7 1
    25   25   10 1
    26   26   12 1
    27   27   14 1
    28   28   16 1
    29   29   17 1
    30   30   17 1
    31   31   18 1
    32   32   18 1
    33   33   19 1
    34   34   19 1
    35   35   20 1
    36   36   20 1
    37   37   19 1
    38   38   20 1
    39   39   37 1
    40   40   37 1
    41   41   37 1
    42   42   38 1
    43   43   38 1
    44   44   38 1
    45   45   39 ar
    46   46   39 ar
    47   47   42 1
    48   48   42 1
    49   49   42 1
    50   50   45 ar
    51   51   45 1
    52   52   46 ar
    53   53   46 1
    54   54   47 1
    55   55   47 1
    56   56   47 1
    57   57   50 ar
    58   58   50 ar
    59   59   52 ar
    60   60   54 ar
    61   61   54 ar
    62   62   57 ar
    63   63   58 ar
    64   64   58 1
    65   65   59 ar
    66   66   59 1
    67   67   60 ar
    68   68   60 1
    69   69   61 ar
    70   70   61 1
    71   71   63 1
    72   72   65 1
    73    5   15 ar
    74   12   13 ar
    75   15   16 ar
    76   52   57 ar
    77   62   67 ar
    78   62   69 ar
    79   63   69 ar
    80   65   67 ar
@<TRIPOS>SUBSTRUCTURE
     1 RES1 1

@<TRIPOS>CRYSIN
  10.4680   10.1650   12.5520  90.0000  96.2900  90.0000  14 1

