# MOL2 file generated by ConQuest
# Please check atom types

@<TRIPOS>MOLECULE
CEQGEL
    64    72     2
SMALL
NO_CHARGES
****
Generated from CSD

@<TRIPOS>ATOM
      1 C1         1.9918    4.7884    2.6369 C.ar      1 RES1    0.0000
      2 C2         2.2092    6.0923    3.0466 C.ar      1 RES1    0.0000
      3 C3         3.2663    6.8129    2.5758 C.ar      1 RES1    0.0000
      4 C4         4.1601    6.2354    1.6654 C.ar      1 RES1    0.0000
      5 C5         5.2786    6.9650    1.1547 C.ar      1 RES1    0.0000
      6 C6         6.1307    6.4114    0.2631 C.ar      1 RES1    0.0000
      7 C7         5.9546    5.0734   -0.2087 C.ar      1 RES1    0.0000
      8 C8         6.8149    4.4964   -1.1491 C.ar      1 RES1    0.0000
      9 C9         6.6226    3.2198   -1.5777 C.ar      1 RES1    0.0000
     10 C10        5.5659    2.4635   -1.1003 C.ar      1 RES1    0.0000
     11 C11        4.6637    2.9823   -0.1699 C.ar      1 RES1    0.0000
     12 C12        3.5164    2.2244    0.3264 C.ar      1 RES1    0.0000
     13 C13        3.2470    0.9181   -0.1132 C.ar      1 RES1    0.0000
     14 C14        2.1543    0.2107    0.3242 C.ar      1 RES1    0.0000
     15 C15        1.2852    0.7721    1.2413 C.ar      1 RES1    0.0000
     16 C16        1.5267    2.0349    1.6998 C.ar      1 RES1    0.0000
     17 C17        2.6240    2.7914    1.2568 C.ar      1 RES1    0.0000
     18 C18        2.8457    4.1586    1.7265 C.ar      1 RES1    0.0000
     19 C19        3.9517    4.8997    1.2335 C.ar      1 RES1    0.0000
     20 C20        4.8654    4.3057    0.2842 C.ar      1 RES1    0.0000
     21 H1         1.1921    4.2489    2.9800 H         1 RES1    0.0000
     22 H2         1.5734    6.4586    3.6461 H         1 RES1    0.0000
     23 H3         3.4771    7.7859    2.7968 H         1 RES1    0.0000
     24 H4         5.4147    7.9487    1.5000 H         1 RES1    0.0000
     25 H5         6.8945    6.9800   -0.0555 H         1 RES1    0.0000
     26 H6         7.5651    5.0235   -1.4212 H         1 RES1    0.0000
     27 H7         7.2088    2.8287   -2.1728 H         1 RES1    0.0000
     28 H8         5.4346    1.5296   -1.3978 H         1 RES1    0.0000
     29 H9         3.8573    0.5408   -0.6728 H         1 RES1    0.0000
     30 H10        1.9777   -0.7181   -0.0011 H         1 RES1    0.0000
     31 H11        0.4513    0.2426    1.5499 H         1 RES1    0.0000
     32 H12        0.9093    2.4837    2.2861 H         1 RES1    0.0000
     33 C21       11.4658   11.6261    2.7857 C.ar      2 RES2    0.0000
     34 C22       12.5862   12.3163    2.3604 C.ar      2 RES2    0.0000
     35 C23       13.8305   11.9844    2.8512 C.ar      2 RES2    0.0000
     36 C24       13.9747   10.9368    3.7561 C.ar      2 RES2    0.0000
     37 C25       15.2609   10.5736    4.2934 C.ar      2 RES2    0.0000
     38 C26       15.3903    9.5567    5.1595 C.ar      2 RES2    0.0000
     39 C27       14.2718    8.8000    5.6124 C.ar      2 RES2    0.0000
     40 C28       14.4121    7.7423    6.5129 C.ar      2 RES2    0.0000
     41 C29       13.3192    7.0489    6.9481 C.ar      2 RES2    0.0000
     42 C30       12.0410    7.3798    6.5073 C.ar      2 RES2    0.0000
     43 C31       11.8453    8.4288    5.5991 C.ar      2 RES2    0.0000
     44 C32       10.5080    8.8033    5.1173 C.ar      2 RES2    0.0000
     45 C33        9.3476    8.1611    5.5802 C.ar      2 RES2    0.0000
     46 C34        8.1050    8.5059    5.1317 C.ar      2 RES2    0.0000
     47 C35        7.9686    9.5113    4.1924 C.ar      2 RES2    0.0000
     48 C36        9.0811   10.1554    3.7172 C.ar      2 RES2    0.0000
     49 C37       10.3699    9.8407    4.1735 C.ar      2 RES2    0.0000
     50 C38       11.5540   10.5715    3.6917 C.ar      2 RES2    0.0000
     51 C39       12.8335   10.2132    4.1891 C.ar      2 RES2    0.0000
     52 C40       12.9716    9.1359    5.1328 C.ar      2 RES2    0.0000
     53 H13       10.5948   11.8725    2.4582 H         2 RES2    0.0000
     54 H14       12.5508   13.0068    1.7442 H         2 RES2    0.0000
     55 H15       14.6111   12.5576    2.5903 H         2 RES2    0.0000
     56 H16       16.0210   11.1613    3.9948 H         2 RES2    0.0000
     57 H17       16.2894    9.3388    5.5802 H         2 RES2    0.0000
     58 H18       15.3613    7.5450    6.8238 H         2 RES2    0.0000
     59 H19       13.4047    6.3116    7.5776 H         2 RES2    0.0000
     60 H20       11.2436    6.8523    6.7993 H         2 RES2    0.0000
     61 H21        9.4689    7.3887    6.2575 H         2 RES2    0.0000
     62 H22        7.2726    8.0207    5.4859 H         2 RES2    0.0000
     63 H23        7.0932    9.7608    3.8538 H         2 RES2    0.0000
     64 H24        8.9983   10.8566    3.1199 H         2 RES2    0.0000
@<TRIPOS>BOND
     1    1    2 ar
     2    2    3 ar
     3    3    4 ar
     4    4    5 ar
     5    5    6 ar
     6    6    7 ar
     7    7    8 ar
     8    8    9 ar
     9    9   10 ar
    10   10   11 ar
    11   11   12 ar
    12   12   13 ar
    13   13   14 ar
    14   14   15 ar
    15   15   16 ar
    16   16   17 ar
    17   17   12 ar
    18   18    1 ar
    19   19    4 ar
    20   20    7 ar
    21   21    1 1
    22   22    2 1
    23   23    3 1
    24   24    5 1
    25   25    6 1
    26   26    8 1
    27   27    9 1
    28   28   10 1
    29   29   13 1
    30   30   14 1
    31   31   15 1
    32   32   16 1
    33   33   34 ar
    34   34   35 ar
    35   35   36 ar
    36   36   37 ar
    37   37   38 ar
    38   38   39 ar
    39   39   40 ar
    40   40   41 ar
    41   41   42 ar
    42   42   43 ar
    43   43   44 ar
    44   44   45 ar
    45   45   46 ar
    46   46   47 ar
    47   47   48 ar
    48   48   49 ar
    49   49   44 ar
    50   50   33 ar
    51   51   36 ar
    52   52   39 ar
    53   53   33 1
    54   54   34 1
    55   55   35 1
    56   56   37 1
    57   57   38 1
    58   58   40 1
    59   59   41 1
    60   60   42 1
    61   61   45 1
    62   62   46 1
    63   63   47 1
    64   64   48 1
    65   11   20 ar
    66   17   18 ar
    67   18   19 ar
    68   19   20 ar
    69   43   52 ar
    70   49   50 ar
    71   50   51 ar
    72   51   52 ar
@<TRIPOS>SUBSTRUCTURE
     1 RES1 1
     2 RES2 33

@<TRIPOS>CRYSIN
  11.2123   11.4759   11.8490  73.0290  72.3680  63.1720   2 1

