# MOL2 file generated by ConQuest
# Please check atom types

@<TRIPOS>MOLECULE
CEQGEL01
    64    72     2
SMALL
NO_CHARGES
****
Generated from CSD

@<TRIPOS>ATOM
      1 C1         1.0454    0.3956    3.8959 C.ar      1 RES1    0.0000
      2 C2        -0.0948    0.7425    4.6119 C.ar      1 RES1    0.0000
      3 C3        -1.3424    0.3632    4.1608 C.ar      1 RES1    0.0000
      4 C4        -2.7631   -0.7919    2.4953 C.ar      1 RES1    0.0000
      5 C5        -2.8922   -1.4864    1.3418 C.ar      1 RES1    0.0000
      6 C6        -1.8815   -2.5738   -0.6317 C.ar      1 RES1    0.0000
      7 C7         3.4371   -0.2917    2.3305 C.ar      1 RES1    0.0000
      8 C8         4.5527   -0.6127    1.5851 C.ar      1 RES1    0.0000
      9 C9         4.4200   -1.3431    0.4051 C.ar      1 RES1    0.0000
     10 C10        3.1749   -1.7485   -0.0098 C.ar      1 RES1    0.0000
     11 C11        2.0100   -1.4297    0.7248 C.ar      1 RES1    0.0000
     12 C12        2.1495   -0.6896    1.9225 C.ar      1 RES1    0.0000
     13 C13       -1.4774   -0.3784    2.9759 C.ar      1 RES1    0.0000
     14 C14        0.9587   -0.3364    2.7022 C.ar      1 RES1    0.0000
     15 C15       -0.3126   -0.7328    2.2363 C.ar      1 RES1    0.0000
     16 C16       -0.4554   -1.4715    1.0122 C.ar      1 RES1    0.0000
     17 C17       -1.7445   -1.8484    0.5620 C.ar      1 RES1    0.0000
     18 C18        0.6884   -1.8279    0.2511 C.ar      1 RES1    0.0000
     19 C19        0.4987   -2.5458   -0.9357 C.ar      1 RES1    0.0000
     20 C20       -0.7668   -2.9157   -1.3673 C.ar      1 RES1    0.0000
     21 H1         1.8848    0.6509    4.2275 H         1 RES1    0.0000
     22 H2         0.0150    1.2691    5.4241 H         1 RES1    0.0000
     23 H3        -2.1304    0.6229    4.6492 H         1 RES1    0.0000
     24 H4        -3.5122   -0.5317    3.0210 H         1 RES1    0.0000
     25 H5        -3.7667   -1.7237    1.0201 H         1 RES1    0.0000
     26 H6        -2.7480   -2.8050   -0.9220 H         1 RES1    0.0000
     27 H7         3.5411    0.2191    3.0995 H         1 RES1    0.0000
     28 H8         5.3827   -0.3527    1.8930 H         1 RES1    0.0000
     29 H9         5.1836   -1.5891   -0.1079 H         1 RES1    0.0000
     30 H10        3.0934   -2.2305   -0.7945 H         1 RES1    0.0000
     31 H11        1.2486   -2.8295   -1.4713 H         1 RES1    0.0000
     32 H12       -0.8472   -3.3416   -2.1382 H         1 RES1    0.0000
     33 C21        1.2027    5.7611    3.9636 C.ar      2 RES2    0.0000
     34 C22        1.4579    6.4880    2.8062 C.ar      2 RES2    0.0000
     35 C23        2.5813    6.2200    2.0451 C.ar      2 RES2    0.0000
     36 C24        4.6472    4.9307    1.6684 C.ar      2 RES2    0.0000
     37 C25        5.4955    3.9501    2.0323 C.ar      2 RES2    0.0000
     38 C26        6.1209    2.1093    3.5654 C.ar      2 RES2    0.0000
     39 C27        0.7013    4.2544    6.4344 C.ar      2 RES2    0.0000
     40 C28        0.4689    3.5247    7.5839 C.ar      2 RES2    0.0000
     41 C29        1.3115    2.4776    7.9302 C.ar      2 RES2    0.0000
     42 C30        2.3943    2.1768    7.1327 C.ar      2 RES2    0.0000
     43 C31        2.6674    2.9070    5.9587 C.ar      2 RES2    0.0000
     44 C32        1.8044    3.9603    5.5977 C.ar      2 RES2    0.0000
     45 C33        3.4610    5.2057    2.4276 C.ar      2 RES2    0.0000
     46 C34        2.0486    4.7373    4.3834 C.ar      2 RES2    0.0000
     47 C35        3.1945    4.4438    3.5997 C.ar      2 RES2    0.0000
     48 C36        4.0866    3.3900    3.9744 C.ar      2 RES2    0.0000
     49 C37        5.2497    3.1341    3.1858 C.ar      2 RES2    0.0000
     50 C38        3.8449    2.6079    5.1357 C.ar      2 RES2    0.0000
     51 C39        4.7391    1.5923    5.4633 C.ar      2 RES2    0.0000
     52 C40        5.8656    1.3481    4.6836 C.ar      2 RES2    0.0000
     53 H13        0.4216    5.9688    4.4629 H         2 RES2    0.0000
     54 H14        0.8701    7.2178    2.5306 H         2 RES2    0.0000
     55 H15        2.7723    6.7060    1.2457 H         2 RES2    0.0000
     56 H16        4.8191    5.4895    0.8828 H         2 RES2    0.0000
     57 H17        6.3230    3.7894    1.5595 H         2 RES2    0.0000
     58 H18        6.6429    1.8526    3.5997 H         2 RES2    0.0000
     59 H19        0.1523    4.9768    6.2186 H         2 RES2    0.0000
     60 H20       -0.3188    3.7278    8.1508 H         2 RES2    0.0000
     61 H21        1.1583    1.9863    8.7001 H         2 RES2    0.0000
     62 H22        2.9792    1.4784    7.3956 H         2 RES2    0.0000
     63 H23        4.5754    1.0596    6.2578 H         2 RES2    0.0000
     64 H24        6.4652    0.6790    4.9827 H         2 RES2    0.0000
@<TRIPOS>BOND
     1    1    2 ar
     2    2    3 ar
     3    3   13 ar
     4    4    5 ar
     5    5   17 ar
     6    6   17 ar
     7    7    8 ar
     8    8    9 ar
     9    9   10 ar
    10   10   11 ar
    11   11   12 ar
    12   12    7 ar
    13   13    4 ar
    14   14    1 ar
    15   15   13 ar
    16   16   15 ar
    17   17   16 ar
    18   18   11 ar
    19   19   18 ar
    20   20    6 ar
    21   21    1 1
    22   22    2 1
    23   23    3 1
    24   24    4 1
    25   25    5 1
    26   26    6 1
    27   27    7 1
    28   28    8 1
    29   29    9 1
    30   30   10 1
    31   31   19 1
    32   32   20 1
    33   33   34 ar
    34   34   35 ar
    35   35   45 ar
    36   36   37 ar
    37   37   49 ar
    38   38   49 ar
    39   39   40 ar
    40   40   41 ar
    41   41   42 ar
    42   42   43 ar
    43   43   44 ar
    44   44   39 ar
    45   45   36 ar
    46   46   33 ar
    47   47   45 ar
    48   48   47 ar
    49   49   48 ar
    50   50   43 ar
    51   51   50 ar
    52   52   38 ar
    53   53   33 1
    54   54   34 1
    55   55   35 1
    56   56   36 1
    57   57   37 1
    58   58   38 1
    59   59   39 1
    60   60   40 1
    61   61   41 1
    62   62   42 1
    63   63   51 1
    64   64   52 1
    65   12   14 ar
    66   14   15 ar
    67   16   18 ar
    68   19   20 ar
    69   44   46 ar
    70   46   47 ar
    71   48   50 ar
    72   51   52 ar
@<TRIPOS>SUBSTRUCTURE
     1 RES1 1
     2 RES2 33

@<TRIPOS>CRYSIN
  11.3070   11.5370   11.0060 106.4400 114.7000  74.3000   2 1

