# MOL2 file generated by ConQuest
# Please check atom types

@<TRIPOS>MOLECULE
CETQOJ
    82    86     1
SMALL
NO_CHARGES
****
Generated from CSD

@<TRIPOS>ATOM
      1 C1        -2.4675    6.7186    5.9555 C.ar      1 RES1    0.0000
      2 C2        -3.2782    6.0071    6.8659 C.ar      1 RES1    0.0000
      3 C3        -2.9725    4.6542    7.2262 C.ar      1 RES1    0.0000
      4 H1        -2.1781    4.2548    6.8921 H         1 RES1    0.0000
      5 C4        -3.7905    3.9277    8.0339 C.ar      1 RES1    0.0000
      6 H2        -3.5653    3.0314    8.2529 H         1 RES1    0.0000
      7 C5        -4.9816    4.5077    8.5511 C.ar      1 RES1    0.0000
      8 H3        -5.5531    3.9966    9.1116 H         1 RES1    0.0000
      9 C6        -5.3032    5.7939    8.2434 C.ar      1 RES1    0.0000
     10 H4        -6.1002    6.1675    8.6018 H         1 RES1    0.0000
     11 C7        -4.4795    6.6011    7.3979 C.ar      1 RES1    0.0000
     12 C8        -1.2578    6.0587    5.4135 C.2       1 RES1    0.0000
     13 H5        -0.5979    5.7631    6.0294 H         1 RES1    0.0000
     14 C9        -1.0361    5.8529    4.1158 C.2       1 RES1    0.0000
     15 H6        -1.6847    6.1942    3.5115 H         1 RES1    0.0000
     16 C10        0.1129    5.1503    3.5247 C.ar      1 RES1    0.0000
     17 C11        0.0701    4.7769    2.1820 C.ar      1 RES1    0.0000
     18 H7        -0.6815    5.0199    1.6539 H         1 RES1    0.0000
     19 C12        1.1074    4.0551    1.6008 C.ar      1 RES1    0.0000
     20 H8         1.0429    3.7933    0.6901 H         1 RES1    0.0000
     21 C13        2.2381    3.7104    2.3342 C.ar      1 RES1    0.0000
     22 C14        2.2971    4.1129    3.6686 C.ar      1 RES1    0.0000
     23 H9         3.0671    3.9027    4.1835 H         1 RES1    0.0000
     24 C15        1.2567    4.8123    4.2585 C.ar      1 RES1    0.0000
     25 H10        1.3203    5.0657    5.1720 H         1 RES1    0.0000
     26 C16        3.3518    2.8988    1.7195 C.3       1 RES1    0.0000
     27 H11        4.2197    3.2634    2.0275 H         1 RES1    0.0000
     28 H12        3.3154    3.0014    0.7355 H         1 RES1    0.0000
     29 C17        3.2947    1.4095    2.0618 C.3       1 RES1    0.0000
     30 H13        3.2830    1.2997    3.0459 H         1 RES1    0.0000
     31 H14        2.4576    1.0226    1.7019 H         1 RES1    0.0000
     32 C18        4.4914    0.6552    1.4826 C.3       1 RES1    0.0000
     33 H15        4.4565    0.7120    0.4942 H         1 RES1    0.0000
     34 H16        5.3242    1.1006    1.7798 H         1 RES1    0.0000
     35 C19        4.5474   -0.8089    1.8880 C.3       1 RES1    0.0000
     36 H17        4.5713   -0.8730    2.8759 H         1 RES1    0.0000
     37 H18        3.7266   -1.2656    1.5735 H         1 RES1    0.0000
     38 C20        5.7547   -1.5090    1.3164 C.3       1 RES1    0.0000
     39 H19        5.7347   -1.4490    0.3386 H         1 RES1    0.0000
     40 H20        5.7444   -2.4509    1.5865 H         1 RES1    0.0000
     41 H21        6.5703   -1.0814    1.6526 H         1 RES1    0.0000
     42 C1A       -4.8388    7.9147    7.0166 C.ar      1 RES1    0.0000
     43 C2A       -4.0281    8.6262    6.1062 C.ar      1 RES1    0.0000
     44 C3A       -4.3338    9.9790    5.7459 C.ar      1 RES1    0.0000
     45 H1A       -5.1282   10.3784    6.0800 H         1 RES1    0.0000
     46 C4A       -3.5158   10.7055    4.9382 C.ar      1 RES1    0.0000
     47 H2A       -3.7410   11.6018    4.7193 H         1 RES1    0.0000
     48 C5A       -2.3247   10.1255    4.4210 C.ar      1 RES1    0.0000
     49 H3A       -1.7531   10.6366    3.8605 H         1 RES1    0.0000
     50 C6A       -2.0031    8.8393    4.7287 C.ar      1 RES1    0.0000
     51 H4A       -1.2061    8.4658    4.3703 H         1 RES1    0.0000
     52 C7A       -2.8268    8.0321    5.5742 C.ar      1 RES1    0.0000
     53 C8A       -6.0485    8.5745    7.5586 C.2       1 RES1    0.0000
     54 H5A       -6.7084    8.8701    6.9427 H         1 RES1    0.0000
     55 C9A       -6.2702    8.7804    8.8563 C.2       1 RES1    0.0000
     56 H6A       -5.6216    8.4390    9.4606 H         1 RES1    0.0000
     57 C10A      -7.4191    9.4830    9.4475 C.ar      1 RES1    0.0000
     58 C11A      -7.3764    9.8564   10.7901 C.ar      1 RES1    0.0000
     59 H7A       -6.6247    9.6133   11.3182 H         1 RES1    0.0000
     60 C12A      -8.4137   10.5781   11.3713 C.ar      1 RES1    0.0000
     61 H8A       -8.3492   10.8399   12.2820 H         1 RES1    0.0000
     62 C13A      -9.5444   10.9228   10.6379 C.ar      1 RES1    0.0000
     63 C14A      -9.6034   10.5204    9.3035 C.ar      1 RES1    0.0000
     64 H9A      -10.3734   10.7305    8.7886 H         1 RES1    0.0000
     65 C15A      -8.5630    9.8209    8.7136 C.ar      1 RES1    0.0000
     66 H10A      -8.6266    9.5675    7.8001 H         1 RES1    0.0000
     67 C16A     -10.6580   11.7344   11.2527 C.3       1 RES1    0.0000
     68 H11A     -11.5260   11.3698   10.9446 H         1 RES1    0.0000
     69 H12A     -10.6216   11.6318   12.2366 H         1 RES1    0.0000
     70 C17A     -10.6009   13.2237   10.9103 C.3       1 RES1    0.0000
     71 H13A     -10.5893   13.3336    9.9263 H         1 RES1    0.0000
     72 H14A      -9.7638   13.6106   11.2702 H         1 RES1    0.0000
     73 C18A     -11.7977   13.9780   11.4895 C.3       1 RES1    0.0000
     74 H15A     -11.7628   13.9213   12.4779 H         1 RES1    0.0000
     75 H16A     -12.6304   13.5326   11.1923 H         1 RES1    0.0000
     76 C19A     -11.8536   15.4421   11.0841 C.3       1 RES1    0.0000
     77 H17A     -11.8775   15.5062   10.0962 H         1 RES1    0.0000
     78 H18A     -11.0329   15.8988   11.3986 H         1 RES1    0.0000
     79 C20A     -13.0609   16.1422   11.6557 C.3       1 RES1    0.0000
     80 H19A     -13.0409   16.0822   12.6335 H         1 RES1    0.0000
     81 H20A     -13.0507   17.0841   11.3856 H         1 RES1    0.0000
     82 H21A     -13.8765   15.7146   11.3195 H         1 RES1    0.0000
@<TRIPOS>BOND
     1    1    2 ar
     2    2    3 ar
     3    3    4 1
     4    5    3 ar
     5    6    5 1
     6    7    5 ar
     7    8    7 1
     8    9    7 ar
     9   10    9 1
    10   11    2 ar
    11   12    1 1
    12   13   12 1
    13   14   12 2
    14   15   14 1
    15   16   14 1
    16   17   16 ar
    17   18   17 1
    18   19   17 ar
    19   20   19 1
    20   21   19 ar
    21   22   21 ar
    22   23   22 1
    23   24   16 ar
    24   25   24 1
    25   26   21 1
    26   27   26 1
    27   28   26 1
    28   29   26 1
    29   30   29 1
    30   31   29 1
    31   32   29 1
    32   33   32 1
    33   34   32 1
    34   35   32 1
    35   36   35 1
    36   37   35 1
    37   38   35 1
    38   39   38 1
    39   40   38 1
    40   41   38 1
    41   42   11 ar
    42   43   42 ar
    43   44   43 ar
    44   45   44 1
    45   46   44 ar
    46   47   46 1
    47   48   46 ar
    48   49   48 1
    49   50   48 ar
    50   51   50 1
    51   52    1 ar
    52   53   42 1
    53   54   53 1
    54   55   53 2
    55   56   55 1
    56   57   55 1
    57   58   57 ar
    58   59   58 1
    59   60   58 ar
    60   61   60 1
    61   62   60 ar
    62   63   62 ar
    63   64   63 1
    64   65   57 ar
    65   66   65 1
    66   67   62 1
    67   68   67 1
    68   69   67 1
    69   70   67 1
    70   71   70 1
    71   72   70 1
    72   73   70 1
    73   74   73 1
    74   75   73 1
    75   76   73 1
    76   77   76 1
    77   78   76 1
    78   79   76 1
    79   80   79 1
    80   81   79 1
    81   82   79 1
    82    9   11 ar
    83   22   24 ar
    84   43   52 ar
    85   50   52 ar
    86   63   65 ar
@<TRIPOS>SUBSTRUCTURE
     1 RES1 1

@<TRIPOS>CRYSIN
   6.5844    9.2194   13.5405 100.0975  99.8398 105.7088   2 1

