# MOL2 file generated by ConQuest
# Please check atom types

@<TRIPOS>MOLECULE
CETQUP
    82    86     1
SMALL
NO_CHARGES
****
Generated from CSD

@<TRIPOS>ATOM
      1 C1        -0.5822   -0.9415    6.2886 C.ar      1 RES1    0.0000
      2 H1         0.1790   -0.6239    6.7600 H         1 RES1    0.0000
      3 C2        -1.7089   -0.1252    6.2151 C.ar      1 RES1    0.0000
      4 C3        -1.7784    1.1954    6.8112 C.ar      1 RES1    0.0000
      5 C4        -2.9369    1.9159    6.6924 C.ar      1 RES1    0.0000
      6 H2        -2.9889    2.7749    7.0936 H         1 RES1    0.0000
      7 C5        -4.0573    1.4150    5.9899 C.ar      1 RES1    0.0000
      8 H3        -4.8468    1.9397    5.9281 H         1 RES1    0.0000
      9 C6        -4.0150    0.1864    5.4001 C.ar      1 RES1    0.0000
     10 H4        -4.7706   -0.1317    4.9194 H         1 RES1    0.0000
     11 C7        -2.8508   -0.6225    5.4986 C.ar      1 RES1    0.0000
     12 C8        -0.6162    1.7278    7.5394 C.2       1 RES1    0.0000
     13 H5        -0.0568    1.1103    7.9948 H         1 RES1    0.0000
     14 C9        -0.2960    3.0266    7.6016 C.2       1 RES1    0.0000
     15 H6        -0.8881    3.6396    7.1832 H         1 RES1    0.0000
     16 C10        0.8940    3.5863    8.2606 C.ar      1 RES1    0.0000
     17 C11        1.3579    4.8540    7.8485 C.ar      1 RES1    0.0000
     18 H7         0.8739    5.3423    7.1943 H         1 RES1    0.0000
     19 C12        2.5149    5.3892    8.3921 C.ar      1 RES1    0.0000
     20 H8         2.8089    6.2447    8.1023 H         1 RES1    0.0000
     21 C13        3.2540    4.7092    9.3490 C.ar      1 RES1    0.0000
     22 C14        2.7794    3.4641    9.7755 C.ar      1 RES1    0.0000
     23 H9         3.2565    2.9836   10.4411 H         1 RES1    0.0000
     24 C15        1.6188    2.9216    9.2378 C.ar      1 RES1    0.0000
     25 H10        1.3152    2.0759    9.5466 H         1 RES1    0.0000
     26 C16        4.5391    5.3220    9.8712 C.3       1 RES1    0.0000
     27 H11        4.3393    6.2406   10.1791 H         1 RES1    0.0000
     28 H12        5.1735    5.3975    9.1144 H         1 RES1    0.0000
     29 C17        5.2383    4.5855   11.0009 C.3       1 RES1    0.0000
     30 H13        5.4788    3.6766   10.6930 H         1 RES1    0.0000
     31 H14        4.6109    4.4915   11.7611 H         1 RES1    0.0000
     32 C18        6.4976    5.2957   11.4812 C.3       1 RES1    0.0000
     33 H15        7.1503    5.3396   10.7378 H         1 RES1    0.0000
     34 H16        6.2691    6.2242   11.7387 H         1 RES1    0.0000
     35 C19        7.1364    4.5972   12.6612 C.3       1 RES1    0.0000
     36 H17        6.4760    4.5560   13.3979 H         1 RES1    0.0000
     37 H18        7.3488    3.6669   12.3992 H         1 RES1    0.0000
     38 C20        8.3888    5.2464   13.1784 C.3       1 RES1    0.0000
     39 H19        9.0590    5.2780   12.4642 H         1 RES1    0.0000
     40 H20        8.7388    4.7270   13.9319 H         1 RES1    0.0000
     41 H21        8.1850    6.1579   13.4762 H         1 RES1    0.0000
     42 C1A       -2.7936   -1.8926    4.9071 C.ar      1 RES1    0.0000
     43 H1A       -3.5548   -2.2102    4.4357 H         1 RES1    0.0000
     44 C2A       -1.6669   -2.7089    4.9806 C.ar      1 RES1    0.0000
     45 C3A       -1.5974   -4.0295    4.3845 C.ar      1 RES1    0.0000
     46 C4A       -0.4389   -4.7500    4.5032 C.ar      1 RES1    0.0000
     47 H2A       -0.3869   -5.6090    4.1021 H         1 RES1    0.0000
     48 C5A        0.6815   -4.2491    5.2058 C.ar      1 RES1    0.0000
     49 H3A        1.4710   -4.7738    5.2676 H         1 RES1    0.0000
     50 C6A        0.6392   -3.0205    5.7956 C.ar      1 RES1    0.0000
     51 H4A        1.3948   -2.7024    6.2763 H         1 RES1    0.0000
     52 C7A       -0.5250   -2.2116    5.6970 C.ar      1 RES1    0.0000
     53 C8A       -2.7596   -4.5619    3.6563 C.2       1 RES1    0.0000
     54 H5A       -3.3190   -3.9444    3.2008 H         1 RES1    0.0000
     55 C9A       -3.0798   -5.8607    3.5940 C.2       1 RES1    0.0000
     56 H6A       -2.4877   -6.4737    4.0125 H         1 RES1    0.0000
     57 C10A      -4.2698   -6.4204    2.9351 C.ar      1 RES1    0.0000
     58 C11A      -4.7337   -7.6881    3.3472 C.ar      1 RES1    0.0000
     59 H7A       -4.2497   -8.1764    4.0013 H         1 RES1    0.0000
     60 C12A      -5.8907   -8.2233    2.8036 C.ar      1 RES1    0.0000
     61 H8A       -6.1847   -9.0787    3.0934 H         1 RES1    0.0000
     62 C13A      -6.6298   -7.5432    1.8467 C.ar      1 RES1    0.0000
     63 C14A      -6.1552   -6.2982    1.4202 C.ar      1 RES1    0.0000
     64 H9A       -6.6323   -5.8177    0.7546 H         1 RES1    0.0000
     65 C15A      -4.9946   -5.7556    1.9579 C.ar      1 RES1    0.0000
     66 H10A      -4.6910   -4.9100    1.6491 H         1 RES1    0.0000
     67 C16A      -7.9149   -8.1561    1.3244 C.3       1 RES1    0.0000
     68 H11A      -7.7151   -9.0747    1.0166 H         1 RES1    0.0000
     69 H12A      -8.5493   -8.2316    2.0813 H         1 RES1    0.0000
     70 C17A      -8.6141   -7.4196    0.1948 C.3       1 RES1    0.0000
     71 H13A      -8.8546   -6.5106    0.5027 H         1 RES1    0.0000
     72 H14A      -7.9867   -7.3256   -0.5654 H         1 RES1    0.0000
     73 C18A      -9.8734   -8.1298   -0.2855 C.3       1 RES1    0.0000
     74 H15A     -10.5261   -8.1737    0.4579 H         1 RES1    0.0000
     75 H16A      -9.6449   -9.0583   -0.5430 H         1 RES1    0.0000
     76 C19A     -10.5122   -7.4313   -1.4655 C.3       1 RES1    0.0000
     77 H17A      -9.8518   -7.3901   -2.2022 H         1 RES1    0.0000
     78 H18A     -10.7246   -6.5010   -1.2035 H         1 RES1    0.0000
     79 C20A     -11.7646   -8.0805   -1.9828 C.3       1 RES1    0.0000
     80 H19A     -12.4348   -8.1121   -1.2685 H         1 RES1    0.0000
     81 H20A     -12.1146   -7.5611   -2.7362 H         1 RES1    0.0000
     82 H21A     -11.5608   -8.9919   -2.2806 H         1 RES1    0.0000
@<TRIPOS>BOND
     1    1    2 1
     2    3    1 ar
     3    4    3 ar
     4    5    4 ar
     5    6    5 1
     6    7    5 ar
     7    8    7 1
     8    9    7 ar
     9   10    9 1
    10   11    3 ar
    11   12    4 1
    12   13   12 1
    13   14   12 2
    14   15   14 1
    15   16   14 1
    16   17   16 ar
    17   18   17 1
    18   19   17 ar
    19   20   19 1
    20   21   19 ar
    21   22   21 ar
    22   23   22 1
    23   24   16 ar
    24   25   24 1
    25   26   21 1
    26   27   26 1
    27   28   26 1
    28   29   26 1
    29   30   29 1
    30   31   29 1
    31   32   29 1
    32   33   32 1
    33   34   32 1
    34   35   32 1
    35   36   35 1
    36   37   35 1
    37   38   35 1
    38   39   38 1
    39   40   38 1
    40   41   38 1
    41   42   11 ar
    42   43   42 1
    43   44   42 ar
    44   45   44 ar
    45   46   45 ar
    46   47   46 1
    47   48   46 ar
    48   49   48 1
    49   50   48 ar
    50   51   50 1
    51   52    1 ar
    52   53   45 1
    53   54   53 1
    54   55   53 2
    55   56   55 1
    56   57   55 1
    57   58   57 ar
    58   59   58 1
    59   60   58 ar
    60   61   60 1
    61   62   60 ar
    62   63   62 ar
    63   64   63 1
    64   65   57 ar
    65   66   65 1
    66   67   62 1
    67   68   67 1
    68   69   67 1
    69   70   67 1
    70   71   70 1
    71   72   70 1
    72   73   70 1
    73   74   73 1
    74   75   73 1
    75   76   73 1
    76   77   76 1
    77   78   76 1
    78   79   76 1
    79   80   79 1
    80   81   79 1
    81   82   79 1
    82    9   11 ar
    83   22   24 ar
    84   44   52 ar
    85   50   52 ar
    86   63   65 ar
@<TRIPOS>SUBSTRUCTURE
     1 RES1 1

@<TRIPOS>CRYSIN
   6.7671   10.0846   12.0321  98.9900 106.2940 104.7650   2 1

