# MOL2 file generated by ConQuest
# Please check atom types

@<TRIPOS>MOLECULE
CISFER
    41    44     1
SMALL
NO_CHARGES
****
Generated from CSD

@<TRIPOS>ATOM
      1 C1         5.0529    7.4029    4.6676 C.ar      1 RES1    0.0000
      2 C2         6.3468    7.4048    5.2350 C.ar      1 RES1    0.0000
      3 H1         6.5064    7.8993    6.0057 H         1 RES1    0.0000
      4 C3         7.3652    6.6951    4.6716 C.ar      1 RES1    0.0000
      5 H2         8.2080    6.7030    5.0658 H         1 RES1    0.0000
      6 C4         7.1523    5.9655    3.5189 C.ar      1 RES1    0.0000
      7 H3         7.8487    5.4756    3.1449 H         1 RES1    0.0000
      8 C5         5.9219    5.9601    2.9263 C.ar      1 RES1    0.0000
      9 H4         5.7970    5.4777    2.1411 H         1 RES1    0.0000
     10 C6         4.8326    6.6727    3.4816 C.ar      1 RES1    0.0000
     11 C7         3.5083    6.6700    2.8802 C.ar      1 RES1    0.0000
     12 C8         3.2033    5.9363    1.7210 C.ar      1 RES1    0.0000
     13 H5         3.8698    5.4258    1.3195 H         1 RES1    0.0000
     14 C9         1.9532    5.9535    1.1689 C.ar      1 RES1    0.0000
     15 H6         1.7790    5.4652    0.3958 H         1 RES1    0.0000
     16 C10        0.9423    6.6999    1.7631 C.ar      1 RES1    0.0000
     17 H7         0.0917    6.7113    1.3883 H         1 RES1    0.0000
     18 C11        1.1973    7.4147    2.8923 C.ar      1 RES1    0.0000
     19 H8         0.5125    7.9096    3.2801 H         1 RES1    0.0000
     20 C12        2.4763    7.4212    3.4881 C.ar      1 RES1    0.0000
     21 C13        2.7327    8.1537    4.7105 C.ar      1 RES1    0.0000
     22 C14        3.9677    8.1414    5.2909 C.ar      1 RES1    0.0000
     23 C15        4.2196    8.8544    6.5780 C.2       1 RES1    0.0000
     24 C16        4.4857   10.1994    6.5731 C.2       1 RES1    0.0000
     25 H9         4.6330   10.6464    7.3753 H         1 RES1    0.0000
     26 H10        4.5172   10.6651    5.7685 H         1 RES1    0.0000
     27 C17        4.1550    8.0753    7.7882 C.3       1 RES1    0.0000
     28 H11        4.3564    8.6353    8.5410 H         1 RES1    0.0000
     29 H12        4.7931    7.3602    7.7420 H         1 RES1    0.0000
     30 H13        3.2723    7.7106    7.8877 H         1 RES1    0.0000
     31 C18        1.5946    8.8992    5.3402 C.ar      1 RES1    0.0000
     32 C19        1.2885   10.1892    4.9549 C.ar      1 RES1    0.0000
     33 H14        1.8142   10.6132    4.3146 H         1 RES1    0.0000
     34 C20        0.2140   10.8616    5.5030 C.ar      1 RES1    0.0000
     35 H15        0.0219   11.7287    5.2285 H         1 RES1    0.0000
     36 C21       -0.5655   10.2603    6.4428 C.ar      1 RES1    0.0000
     37 H16       -1.2917   10.7127    6.8079 H         1 RES1    0.0000
     38 C22       -0.2777    8.9898    6.8467 C.ar      1 RES1    0.0000
     39 H17       -0.8069    8.5772    7.4903 H         1 RES1    0.0000
     40 C23        0.8059    8.3069    6.3011 C.ar      1 RES1    0.0000
     41 H18        0.9983    7.4431    6.5885 H         1 RES1    0.0000
@<TRIPOS>BOND
     1    1    2 ar
     2    2    3 1
     3    4    2 ar
     4    5    4 1
     5    6    4 ar
     6    7    6 1
     7    8    6 ar
     8    9    8 1
     9   10    1 ar
    10   11   10 ar
    11   12   11 ar
    12   13   12 1
    13   14   12 ar
    14   15   14 1
    15   16   14 ar
    16   17   16 1
    17   18   16 ar
    18   19   18 1
    19   20   11 ar
    20   21   20 ar
    21   22    1 ar
    22   23   22 1
    23   24   23 2
    24   25   24 1
    25   26   24 1
    26   27   23 1
    27   28   27 1
    28   29   27 1
    29   30   27 1
    30   31   21 1
    31   32   31 ar
    32   33   32 1
    33   34   32 ar
    34   35   34 1
    35   36   34 ar
    36   37   36 1
    37   38   36 ar
    38   39   38 1
    39   40   31 ar
    40   41   40 1
    41    8   10 ar
    42   18   20 ar
    43   21   22 ar
    44   38   40 ar
@<TRIPOS>SUBSTRUCTURE
     1 RES1 1

@<TRIPOS>CRYSIN
   9.5855   20.7330    8.2571  90.0000 101.3730  90.0000  14 1

