# MOL2 file generated by ConQuest
# Please check atom types

@<TRIPOS>MOLECULE
CISFOZ
    40    45     1
SMALL
NO_CHARGES
****
Generated from CSD

@<TRIPOS>ATOM
      1 C1        16.0978    3.2888    1.7224 C.ar      1 RES1    0.0000
      2 C2        17.4422    3.4729    2.0691 C.ar      1 RES1    0.0000
      3 C3        17.7754    4.3374    3.0757 C.ar      1 RES1    0.0000
      4 C4        17.1249    5.9739    4.8200 C.ar      1 RES1    0.0000
      5 C5        16.1836    6.7100    5.4345 C.ar      1 RES1    0.0000
      6 C6        13.8481    7.4952    5.6087 C.ar      1 RES1    0.0000
      7 C7        12.5540    7.4753    5.1652 C.ar      1 RES1    0.0000
      8 C8        12.1734    6.5882    4.1668 C.ar      1 RES1    0.0000
      9 C9        10.6229    3.1697    2.1944 C.2       1 RES1    0.0000
     10 C10       10.6600    2.1078    1.4067 C.2       1 RES1    0.0000
     11 C11       11.8176    1.1823    1.3258 C.3       1 RES1    0.0000
     12 C12       12.7293    1.2538    2.5274 C.3       1 RES1    0.0000
     13 C13       16.7923    5.0709    3.7508 C.ar      1 RES1    0.0000
     14 C14       14.8112    6.6491    5.0257 C.ar      1 RES1    0.0000
     15 C15       14.4281    5.7435    4.0130 C.ar      1 RES1    0.0000
     16 C16       15.4353    4.9213    3.3725 C.ar      1 RES1    0.0000
     17 C17       13.0767    5.7144    3.5894 C.ar      1 RES1    0.0000
     18 C18       12.6037    4.7571    2.5335 C.3       1 RES1    0.0000
     19 C19       11.7255    3.5867    3.1068 C.3       1 RES1    0.0000
     20 C20       12.9622    2.6679    3.0171 C.3       1 RES1    0.0000
     21 C21       13.6548    3.7112    2.0854 C.3       1 RES1    0.0000
     22 C22       15.0987    3.9866    2.3721 C.ar      1 RES1    0.0000
     23 H1        15.8176    2.6612    0.9826 H         1 RES1    0.0000
     24 H2        18.0994    2.9393    1.5834 H         1 RES1    0.0000
     25 H3        18.7424    4.4619    3.3348 H         1 RES1    0.0000
     26 H4        18.1060    6.0507    5.0761 H         1 RES1    0.0000
     27 H5        16.4049    7.3482    6.1860 H         1 RES1    0.0000
     28 H6        14.1571    8.1426    6.3795 H         1 RES1    0.0000
     29 H7        11.8875    8.1161    5.5954 H         1 RES1    0.0000
     30 H8        11.2001    6.5935    3.8593 H         1 RES1    0.0000
     31 H9         9.8139    3.7999    2.1893 H         1 RES1    0.0000
     32 H10        9.8819    1.9198    0.8401 H         1 RES1    0.0000
     33 H11       12.4028    1.4034    0.4531 H         1 RES1    0.0000
     34 H12       11.4631    0.1589    1.2067 H         1 RES1    0.0000
     35 H13       13.5812    0.7679    2.3115 H         1 RES1    0.0000
     36 H14       12.2557    0.7282    3.3196 H         1 RES1    0.0000
     37 H15       12.1548    5.2828    1.8023 H         1 RES1    0.0000
     38 H16       11.3405    3.7602    4.0324 H         1 RES1    0.0000
     39 H17       13.4618    2.6480    3.8796 H         1 RES1    0.0000
     40 H18       13.5512    3.4292    1.1303 H         1 RES1    0.0000
@<TRIPOS>BOND
     1    1    2 ar
     2    2    3 ar
     3    3   13 ar
     4    4    5 ar
     5    5   14 ar
     6    6    7 ar
     7    7    8 ar
     8    8   17 ar
     9    9   10 2
    10   10   11 1
    11   11   12 1
    12   12   20 1
    13   13    4 ar
    14   14    6 ar
    15   15   14 ar
    16   16   13 ar
    17   17   15 ar
    18   18   17 1
    19   19    9 1
    20   20   19 1
    21   21   18 1
    22   22    1 ar
    23   23    1 1
    24   24    2 1
    25   25    3 1
    26   26    4 1
    27   27    5 1
    28   28    6 1
    29   29    7 1
    30   30    8 1
    31   31    9 1
    32   32   10 1
    33   33   11 1
    34   34   11 1
    35   35   12 1
    36   36   12 1
    37   37   18 1
    38   38   19 1
    39   39   20 1
    40   40   21 1
    41   15   16 ar
    42   16   22 ar
    43   18   19 1
    44   20   21 1
    45   21   22 1
@<TRIPOS>SUBSTRUCTURE
     1 RES1 1

@<TRIPOS>CRYSIN
  21.6980   13.2400    5.1026  90.0000  93.8020  90.0000  14 2

