# MOL2 file generated by ConQuest
# Please check atom types

@<TRIPOS>MOLECULE
CIWRAB
    43    49     1
SMALL
NO_CHARGES
****
Generated from CSD

@<TRIPOS>ATOM
      1 C1         5.3032    8.1623    2.1126 C.ar      1 RES1    0.0000
      2 C2         6.5184    7.6881    1.6717 C.ar      1 RES1    0.0000
      3 C3         7.7265    8.1821    2.1975 C.ar      1 RES1    0.0000
      4 C4         7.7090    9.1499    3.1637 C.ar      1 RES1    0.0000
      5 C5         6.4345   10.6818    4.6585 C.ar      1 RES1    0.0000
      6 C6         5.2507   11.1893    5.0707 C.ar      1 RES1    0.0000
      7 C7         2.7686   11.3637    4.8631 C.ar      1 RES1    0.0000
      8 C8         1.6168   11.0483    4.2302 C.ar      1 RES1    0.0000
      9 C9         0.4209    9.7598    2.5006 C.ar      1 RES1    0.0000
     10 C10        0.4288    8.8107    1.5180 C.ar      1 RES1    0.0000
     11 C11        1.5142    7.0438    0.1752 C.2       1 RES1    0.0000
     12 C12        2.1091    5.8401    0.1988 C.2       1 RES1    0.0000
     13 C13        2.8035    3.9636    1.6380 C.ar      1 RES1    0.0000
     14 C14        3.5058    3.4169    2.6995 C.ar      1 RES1    0.0000
     15 C15        4.3704    4.2301    3.4346 C.ar      1 RES1    0.0000
     16 C16        4.5265    5.5529    3.0853 C.ar      1 RES1    0.0000
     17 C17        3.8329    6.1176    2.0139 C.ar      1 RES1    0.0000
     18 C18        2.9394    5.3150    1.2956 C.ar      1 RES1    0.0000
     19 C19        2.7714    8.3553    1.8983 C.ar      1 RES1    0.0000
     20 C20        1.5944    8.0749    1.2089 C.ar      1 RES1    0.0000
     21 C21        2.7928    9.3702    2.8763 C.ar      1 RES1    0.0000
     22 C22        1.6020   10.0671    3.2049 C.ar      1 RES1    0.0000
     23 C23        4.0244    9.7633    3.5100 C.ar      1 RES1    0.0000
     24 C24        4.0179   10.7632    4.4906 C.ar      1 RES1    0.0000
     25 C25        5.2702    9.1754    3.0949 C.ar      1 RES1    0.0000
     26 C26        6.4852    9.6707    3.6406 C.ar      1 RES1    0.0000
     27 C27        4.0299    7.5693    1.5690 C.3       1 RES1    0.0000
     28 H1         6.6178    6.9247    0.9573 H         1 RES1    0.0000
     29 H2         8.5441    7.8419    1.8070 H         1 RES1    0.0000
     30 H3         8.6045    9.4527    3.5069 H         1 RES1    0.0000
     31 H4         7.2491   10.9224    5.0527 H         1 RES1    0.0000
     32 H5         5.2677   11.8439    5.7720 H         1 RES1    0.0000
     33 H6         2.8905   12.0756    5.5594 H         1 RES1    0.0000
     34 H7         0.6954   11.5539    4.4217 H         1 RES1    0.0000
     35 H8        -0.4372   10.2476    2.6943 H         1 RES1    0.0000
     36 H9        -0.3948    8.6190    0.9573 H         1 RES1    0.0000
     37 H10        0.8682    7.2281   -0.6203 H         1 RES1    0.0000
     38 H11        1.9972    5.1758   -0.5860 H         1 RES1    0.0000
     39 H12        2.2167    3.3725    1.0665 H         1 RES1    0.0000
     40 H13        3.3615    2.4692    3.0155 H         1 RES1    0.0000
     41 H14        4.9063    3.8373    4.1850 H         1 RES1    0.0000
     42 H15        5.2002    6.1012    3.6377 H         1 RES1    0.0000
     43 H16        4.1033    7.5806    0.5777 H         1 RES1    0.0000
@<TRIPOS>BOND
     1    1    2 ar
     2    2    3 ar
     3    3    4 ar
     4    4   26 ar
     5    5    6 ar
     6    6   24 ar
     7    7    8 ar
     8    8   22 ar
     9    9   10 ar
    10   10   20 ar
    11   11   12 2
    12   12   18 1
    13   13   14 ar
    14   14   15 ar
    15   15   16 ar
    16   16   17 ar
    17   17   18 ar
    18   18   13 ar
    19   19   20 ar
    20   20   11 1
    21   21   19 ar
    22   22    9 ar
    23   23   21 ar
    24   24    7 ar
    25   25    1 ar
    26   26    5 ar
    27   27    1 1
    28   28    2 1
    29   29    3 1
    30   30    4 1
    31   31    5 1
    32   32    6 1
    33   33    7 1
    34   34    8 1
    35   35    9 1
    36   36   10 1
    37   37   11 1
    38   38   12 1
    39   39   13 1
    40   40   14 1
    41   41   15 1
    42   42   16 1
    43   43   27 1
    44   17   27 1
    45   19   27 1
    46   21   22 ar
    47   23   24 ar
    48   23   25 ar
    49   25   26 ar
@<TRIPOS>SUBSTRUCTURE
     1 RES1 1

@<TRIPOS>CRYSIN
  15.9180   10.8640    4.8250  90.0000  95.7200  90.0000   4 1

