# MOL2 file generated by ConQuest
# Please check atom types

@<TRIPOS>MOLECULE
CIZCEU
   128   136     2
SMALL
NO_CHARGES
****
Generated from CSD

@<TRIPOS>ATOM
      1 C1        10.9622    2.3264   -0.9227 C.ar      1 RES1    0.0000
      2 C2         9.7530    1.5822   -0.9318 C.ar      1 RES1    0.0000
      3 C3         9.5442    0.5253   -1.8335 C.ar      1 RES1    0.0000
      4 H1        10.2345    0.3064   -2.4490 H         1 RES1    0.0000
      5 C4         8.3707   -0.2088   -1.8575 C.ar      1 RES1    0.0000
      6 C5         8.1566   -1.2838   -2.7730 C.ar      1 RES1    0.0000
      7 H2         8.8311   -1.4948   -3.4096 H         1 RES1    0.0000
      8 C6         7.0112   -2.0095   -2.7542 C.ar      1 RES1    0.0000
      9 H3         6.8912   -2.7224   -3.3711 H         1 RES1    0.0000
     10 C7         5.9868   -1.7052   -1.8113 C.ar      1 RES1    0.0000
     11 H4         5.1878   -2.2194   -1.8011 H         1 RES1    0.0000
     12 C8         6.1410   -0.6896   -0.9298 C.ar      1 RES1    0.0000
     13 H5         5.4466   -0.5009   -0.3104 H         1 RES1    0.0000
     14 C9         7.3310    0.1060   -0.9137 C.ar      1 RES1    0.0000
     15 C10        7.5273    1.1407   -0.0168 C.ar      1 RES1    0.0000
     16 H6         6.8389    1.3432    0.6049 H         1 RES1    0.0000
     17 C11       11.1430    3.3961   -0.0075 C.ar      1 RES1    0.0000
     18 C12       12.0124    1.9607   -1.8188 C.1       1 RES1    0.0000
     19 C13       12.8788    1.5743   -2.5496 C.1       1 RES1    0.0000
     20 C14       13.9174    1.0177   -3.4291 C.3       1 RES1    0.0000
     21 H7        14.7432    0.8682   -2.9044 H         1 RES1    0.0000
     22 H8        14.1252    1.6718   -4.1414 H         1 RES1    0.0000
     23 C15       13.4803   -0.3090   -4.0723 C.3       1 RES1    0.0000
     24 H9        14.2451   -0.6933   -4.5696 H         1 RES1    0.0000
     25 H10       13.2329   -0.9477   -3.3575 H         1 RES1    0.0000
     26 C16       12.3223   -0.1548   -5.0070 C.3       1 RES1    0.0000
     27 H11       12.5699    0.4802   -5.7250 H         1 RES1    0.0000
     28 H12       11.5576    0.2338   -4.5107 H         1 RES1    0.0000
     29 C17       11.8827   -1.4762   -5.6421 C.3       1 RES1    0.0000
     30 H13       12.6416   -1.8801   -6.1124 H         1 RES1    0.0000
     31 H14       11.1551   -1.3077   -6.2778 H         1 RES1    0.0000
     32 H15       11.5705   -2.0868   -4.9434 H         1 RES1    0.0000
     33 C18       -0.3968   -2.8883    1.3493 C.ar      2 RES2    0.0000
     34 C19        0.5304   -1.8515    1.0596 C.ar      2 RES2    0.0000
     35 C20        1.0745   -1.0469    2.0702 C.ar      2 RES2    0.0000
     36 H16        0.8062   -1.1969    2.9701 H         2 RES2    0.0000
     37 C21        1.9908   -0.0403    1.8049 C.ar      2 RES2    0.0000
     38 C22        2.5461    0.7797    2.8328 C.ar      2 RES2    0.0000
     39 H17        2.2951    0.6302    3.7359 H         2 RES2    0.0000
     40 C23        3.4228    1.7646    2.5415 C.ar      2 RES2    0.0000
     41 H18        3.7769    2.2999    3.2420 H         2 RES2    0.0000
     42 C24        3.8246    2.0116    1.1980 C.ar      2 RES2    0.0000
     43 H19        4.4496    2.7001    1.0082 H         2 RES2    0.0000
     44 C25        3.3136    1.2626    0.1887 C.ar      2 RES2    0.0000
     45 H20        3.5793    1.4439   -0.7046 H         2 RES2    0.0000
     46 C26        2.3865    0.2078    0.4418 C.ar      2 RES2    0.0000
     47 C27        1.8545   -0.5778   -0.5632 C.ar      2 RES2    0.0000
     48 H21        2.1195   -0.4129   -1.4613 H         2 RES2    0.0000
     49 C28       -0.9319   -3.6839    0.3049 C.ar      2 RES2    0.0000
     50 C29       -0.8082   -3.1189    2.6998 C.1       2 RES2    0.0000
     51 C30       -1.1488   -3.3447    3.8242 C.1       2 RES2    0.0000
     52 C31       -1.6149   -3.7051    5.1706 C.3       2 RES2    0.0000
     53 H22       -2.1253   -2.9471    5.5505 H         2 RES2    0.0000
     54 H23       -0.8317   -3.8668    5.7544 H         2 RES2    0.0000
     55 C32       -2.4983   -4.9513    5.1606 C.3       2 RES2    0.0000
     56 H24       -2.0134   -5.6860    4.7078 H         2 RES2    0.0000
     57 H25       -2.6672   -5.2322    6.0943 H         2 RES2    0.0000
     58 C33       -3.8269   -4.7377    4.4631 C.3       2 RES2    0.0000
     59 H26       -3.6620   -4.3354    3.5727 H         2 RES2    0.0000
     60 H27       -4.3673   -4.0979    4.9887 H         2 RES2    0.0000
     61 C34       -4.6188   -6.0284    4.2848 C.3       2 RES2    0.0000
     62 H28       -4.1082   -6.6501    3.7245 H         2 RES2    0.0000
     63 H29       -5.4760   -5.8291    3.8537 H         2 RES2    0.0000
     64 H30       -4.7810   -6.4360    5.1609 H         2 RES2    0.0000
     65 C1B        8.8891    2.9742    0.9227 C.ar      1 RES1    0.0000
     66 C2B       10.0983    3.7184    0.9318 C.ar      1 RES1    0.0000
     67 C3B       10.3071    4.7753    1.8335 C.ar      1 RES1    0.0000
     68 H1B        9.6168    4.9942    2.4490 H         1 RES1    0.0000
     69 C4B       11.4806    5.5094    1.8575 C.ar      1 RES1    0.0000
     70 C5B       11.6947    6.5844    2.7730 C.ar      1 RES1    0.0000
     71 H2B       11.0202    6.7954    3.4096 H         1 RES1    0.0000
     72 C6B       12.8401    7.3101    2.7542 C.ar      1 RES1    0.0000
     73 H3B       12.9601    8.0230    3.3711 H         1 RES1    0.0000
     74 C7B       13.8645    7.0058    1.8113 C.ar      1 RES1    0.0000
     75 H4B       14.6635    7.5200    1.8011 H         1 RES1    0.0000
     76 C8B       13.7103    5.9902    0.9298 C.ar      1 RES1    0.0000
     77 H5B       14.4047    5.8015    0.3104 H         1 RES1    0.0000
     78 C9B       12.5203    5.1946    0.9137 C.ar      1 RES1    0.0000
     79 C10B      12.3240    4.1599    0.0168 C.ar      1 RES1    0.0000
     80 H6B       13.0124    3.9574   -0.6049 H         1 RES1    0.0000
     81 C11B       8.7083    1.9045    0.0075 C.ar      1 RES1    0.0000
     82 C12B       7.8389    3.3399    1.8188 C.1       1 RES1    0.0000
     83 C13B       6.9725    3.7263    2.5496 C.1       1 RES1    0.0000
     84 C14B       5.9339    4.2829    3.4291 C.3       1 RES1    0.0000
     85 H7B        5.1081    4.4324    2.9044 H         1 RES1    0.0000
     86 H8B        5.7261    3.6288    4.1414 H         1 RES1    0.0000
     87 C15B       6.3710    5.6096    4.0723 C.3       1 RES1    0.0000
     88 H9B        5.6062    5.9939    4.5696 H         1 RES1    0.0000
     89 H10B       6.6184    6.2483    3.3575 H         1 RES1    0.0000
     90 C16B       7.5290    5.4554    5.0070 C.3       1 RES1    0.0000
     91 H11B       7.2814    4.8204    5.7250 H         1 RES1    0.0000
     92 H12B       8.2937    5.0668    4.5107 H         1 RES1    0.0000
     93 C17B       7.9686    6.7768    5.6421 C.3       1 RES1    0.0000
     94 H13B       7.2097    7.1807    6.1124 H         1 RES1    0.0000
     95 H14B       8.6962    6.6083    6.2778 H         1 RES1    0.0000
     96 H15B       8.2808    7.3874    4.9434 H         1 RES1    0.0000
     97 C18B       0.3968   -2.4123   -1.3493 C.ar      2 RES2    0.0000
     98 C19B      -0.5304   -3.4491   -1.0596 C.ar      2 RES2    0.0000
     99 C20B      -1.0745   -4.2537   -2.0702 C.ar      2 RES2    0.0000
    100 H16B      -0.8062   -4.1037   -2.9701 H         2 RES2    0.0000
    101 C21B      -1.9908   -5.2603   -1.8049 C.ar      2 RES2    0.0000
    102 C22B      -2.5461   -6.0803   -2.8328 C.ar      2 RES2    0.0000
    103 H17B      -2.2951   -5.9308   -3.7359 H         2 RES2    0.0000
    104 C23B      -3.4228   -7.0652   -2.5415 C.ar      2 RES2    0.0000
    105 H18B      -3.7769   -7.6005   -3.2420 H         2 RES2    0.0000
    106 C24B      -3.8246   -7.3122   -1.1980 C.ar      2 RES2    0.0000
    107 H19B      -4.4496   -8.0007   -1.0082 H         2 RES2    0.0000
    108 C25B      -3.3136   -6.5632   -0.1887 C.ar      2 RES2    0.0000
    109 H20B      -3.5793   -6.7445    0.7046 H         2 RES2    0.0000
    110 C26B      -2.3865   -5.5084   -0.4418 C.ar      2 RES2    0.0000
    111 C27B      -1.8545   -4.7228    0.5632 C.ar      2 RES2    0.0000
    112 H21B      -2.1195   -4.8877    1.4613 H         2 RES2    0.0000
    113 C28B       0.9319   -1.6167   -0.3049 C.ar      2 RES2    0.0000
    114 C29B       0.8082   -2.1817   -2.6998 C.1       2 RES2    0.0000
    115 C30B       1.1488   -1.9559   -3.8242 C.1       2 RES2    0.0000
    116 C31B       1.6149   -1.5955   -5.1706 C.3       2 RES2    0.0000
    117 H22B       2.1253   -2.3535   -5.5505 H         2 RES2    0.0000
    118 H23B       0.8317   -1.4338   -5.7544 H         2 RES2    0.0000
    119 C32B       2.4983   -0.3493   -5.1606 C.3       2 RES2    0.0000
    120 H24B       2.0134    0.3854   -4.7078 H         2 RES2    0.0000
    121 H25B       2.6672   -0.0684   -6.0943 H         2 RES2    0.0000
    122 C33B       3.8269   -0.5629   -4.4631 C.3       2 RES2    0.0000
    123 H26B       3.6620   -0.9652   -3.5727 H         2 RES2    0.0000
    124 H27B       4.3673   -1.2027   -4.9887 H         2 RES2    0.0000
    125 C34B       4.6188    0.7278   -4.2848 C.3       2 RES2    0.0000
    126 H28B       4.1082    1.3495   -3.7245 H         2 RES2    0.0000
    127 H29B       5.4760    0.5285   -3.8537 H         2 RES2    0.0000
    128 H30B       4.7810    1.1354   -5.1609 H         2 RES2    0.0000
@<TRIPOS>BOND
     1    1    2 ar
     2    2    3 ar
     3    3    4 1
     4    5    3 ar
     5    6    5 ar
     6    7    6 1
     7    8    6 ar
     8    9    8 1
     9   10    8 ar
    10   11   10 1
    11   12   10 ar
    12   13   12 1
    13   14    5 ar
    14   15   14 ar
    15   16   15 1
    16   17    1 ar
    17   18    1 1
    18   19   18 3
    19   20   19 1
    20   21   20 1
    21   22   20 1
    22   23   20 1
    23   24   23 1
    24   25   23 1
    25   26   23 1
    26   27   26 1
    27   28   26 1
    28   29   26 1
    29   30   29 1
    30   31   29 1
    31   32   29 1
    32   33   34 ar
    33   34   35 ar
    34   35   36 1
    35   37   35 ar
    36   38   37 ar
    37   39   38 1
    38   40   38 ar
    39   41   40 1
    40   42   40 ar
    41   43   42 1
    42   44   42 ar
    43   45   44 1
    44   46   37 ar
    45   47   46 ar
    46   48   47 1
    47   49   33 ar
    48   50   33 1
    49   51   50 3
    50   52   51 1
    51   53   52 1
    52   54   52 1
    53   55   52 1
    54   56   55 1
    55   57   55 1
    56   58   55 1
    57   59   58 1
    58   60   58 1
    59   61   58 1
    60   62   61 1
    61   63   61 1
    62   64   61 1
    63   65   66 ar
    64   66   17 ar
    65   67   66 ar
    66   68   67 1
    67   69   67 ar
    68   70   69 ar
    69   71   70 1
    70   72   70 ar
    71   73   72 1
    72   74   72 ar
    73   75   74 1
    74   76   74 ar
    75   77   76 1
    76   78   69 ar
    77   79   17 ar
    78   80   79 1
    79   81    2 ar
    80   82   65 1
    81   83   82 3
    82   84   83 1
    83   85   84 1
    84   86   84 1
    85   87   84 1
    86   88   87 1
    87   89   87 1
    88   90   87 1
    89   91   90 1
    90   92   90 1
    91   93   90 1
    92   94   93 1
    93   95   93 1
    94   96   93 1
    95   97   98 ar
    96   98   49 ar
    97   99   98 ar
    98  100   99 1
    99  101   99 ar
   100  102  101 ar
   101  103  102 1
   102  104  102 ar
   103  105  104 1
   104  106  104 ar
   105  107  106 1
   106  108  106 ar
   107  109  108 1
   108  110  101 ar
   109  111   49 ar
   110  112  111 1
   111  113   34 ar
   112  114   97 1
   113  115  114 3
   114  116  115 1
   115  117  116 1
   116  118  116 1
   117  119  116 1
   118  120  119 1
   119  121  119 1
   120  122  119 1
   121  123  122 1
   122  124  122 1
   123  125  122 1
   124  126  125 1
   125  127  125 1
   126  128  125 1
   127   12   14 ar
   128   15   81 ar
   129   44   46 ar
   130   47  113 ar
   131   65   81 ar
   132   76   78 ar
   133   78   79 ar
   134   97  113 ar
   135  108  110 ar
   136  110  111 ar
@<TRIPOS>SUBSTRUCTURE
     1 RES1 1
     2 RES2 33

@<TRIPOS>CRYSIN
  19.8513    5.3006   22.6989  90.0000  93.5526  90.0000  14 1

