# MOL2 file generated by ConQuest
# Please check atom types

@<TRIPOS>MOLECULE
COBDAZ
   186   195     3
SMALL
NO_CHARGES
****
Generated from CSD

@<TRIPOS>ATOM
      1 C1         1.8494    2.9122   12.5973 C.ar      1 RES1    0.0000
      2 C2         0.9291    2.4841   13.5912 C.ar      1 RES1    0.0000
      3 C3         0.4350    1.1623   13.5779 C.ar      1 RES1    0.0000
      4 C4         0.8723    0.3157   12.5645 C.ar      1 RES1    0.0000
      5 H1         0.5367   -0.5727   12.5530 H         1 RES1    0.0000
      6 C5         1.7633    0.6843   11.5731 C.ar      1 RES1    0.0000
      7 C6         2.2721    2.0032   11.5758 C.ar      1 RES1    0.0000
      8 C7         3.1995    2.4787   10.5934 C.ar      1 RES1    0.0000
      9 H2         3.4743    1.8936    9.8968 H         1 RES1    0.0000
     10 C8         3.6923    3.7289   10.6272 C.ar      1 RES1    0.0000
     11 H3         4.3074    3.9977    9.9558 H         1 RES1    0.0000
     12 C9         2.3692    4.2572   12.6127 C.ar      1 RES1    0.0000
     13 C10        3.3204    4.6707   11.6405 C.ar      1 RES1    0.0000
     14 C11        3.8570    5.9751   11.6993 C.ar      1 RES1    0.0000
     15 C12        3.3876    6.8422   12.6860 C.ar      1 RES1    0.0000
     16 H4         3.7372    7.7250   12.7097 H         1 RES1    0.0000
     17 C13        2.4386    6.4904   13.6325 C.ar      1 RES1    0.0000
     18 C14        1.9341    5.1762   13.6197 C.ar      1 RES1    0.0000
     19 C15        1.0052    4.6994   14.6008 C.ar      1 RES1    0.0000
     20 H5         0.7104    5.2944   15.2800 H         1 RES1    0.0000
     21 C16        0.5331    3.4360   14.5932 C.ar      1 RES1    0.0000
     22 H6        -0.0770    3.1677   15.2699 H         1 RES1    0.0000
     23 C17       -0.5721    0.6743   14.6050 C.3       1 RES1    0.0000
     24 H7        -0.3948    1.1742   15.4519 H         1 RES1    0.0000
     25 C18       -0.4567   -0.8049   14.9261 C.3       1 RES1    0.0000
     26 H8        -1.1283   -1.0475   15.5985 H         1 RES1    0.0000
     27 H9         0.4382   -0.9944   15.2766 H         1 RES1    0.0000
     28 H10       -0.6063   -1.3290   14.1120 H         1 RES1    0.0000
     29 C19       -1.9902    1.0326   14.1577 C.3       1 RES1    0.0000
     30 H11       -2.0382    1.9917   13.9637 H         1 RES1    0.0000
     31 H12       -2.6244    0.8108   14.8721 H         1 RES1    0.0000
     32 H13       -2.2162    0.5250   13.3502 H         1 RES1    0.0000
     33 C20        2.1580   -0.3435   10.5268 C.3       1 RES1    0.0000
     34 H14        2.8600    0.0662    9.9440 H         1 RES1    0.0000
     35 C21        2.7448   -1.5913   11.1506 C.3       1 RES1    0.0000
     36 H15        2.9783   -2.2293   10.4445 H         1 RES1    0.0000
     37 H16        2.0853   -1.9962   11.7524 H         1 RES1    0.0000
     38 H17        3.5489   -1.3556   11.6580 H         1 RES1    0.0000
     39 C22        0.9657   -0.7092    9.6389 C.3       1 RES1    0.0000
     40 H18        1.2436   -1.3722    8.9732 H         1 RES1    0.0000
     41 H19        0.6394    0.0945    9.1822 H         1 RES1    0.0000
     42 H20        0.2483   -1.0824   10.1917 H         1 RES1    0.0000
     43 C23        4.8748    6.4693   10.6849 C.3       1 RES1    0.0000
     44 H21        5.2685    5.6581   10.2541 H         1 RES1    0.0000
     45 C24        4.2011    7.2555    9.5934 C.3       1 RES1    0.0000
     46 H22        4.8710    7.5574    8.9462 H         1 RES1    0.0000
     47 H23        3.7492    8.0345    9.9827 H         1 RES1    0.0000
     48 H24        3.5410    6.6888    9.1417 H         1 RES1    0.0000
     49 C25        6.0256    7.2228   11.3311 C.3       1 RES1    0.0000
     50 H25        6.6567    7.5124   10.6384 H         1 RES1    0.0000
     51 H26        6.4849    6.6352   11.9665 H         1 RES1    0.0000
     52 H27        5.6778    8.0078   11.8030 H         1 RES1    0.0000
     53 C26        2.0124    7.4894   14.6992 C.3       1 RES1    0.0000
     54 H28        1.0863    7.2460   14.9867 H         1 RES1    0.0000
     55 C27        2.9190    7.3646   15.9188 C.3       1 RES1    0.0000
     56 H29        2.6355    8.0072   16.6030 H         1 RES1    0.0000
     57 H30        3.8455    7.5513   15.6575 H         1 RES1    0.0000
     58 H31        2.8584    6.4553   16.2794 H         1 RES1    0.0000
     59 C28        1.9752    8.9391   14.2055 C.3       1 RES1    0.0000
     60 H32        1.6896    9.5261   14.9362 H         1 RES1    0.0000
     61 H33        1.3427    9.0148   13.4614 H         1 RES1    0.0000
     62 H34        2.8685    9.2048   13.9030 H         1 RES1    0.0000
     63 C29       -0.2648    9.8841    8.3942 C.ar      2 RES2    0.0000
     64 C30        0.2039    8.9465    9.3657 C.ar      2 RES2    0.0000
     65 C31       -0.2625    7.6085    9.3298 C.ar      2 RES2    0.0000
     66 C32       -1.1540    7.2542    8.3266 C.ar      2 RES2    0.0000
     67 H35       -1.4727    6.3593    8.3125 H         2 RES2    0.0000
     68 C33       -1.6087    8.1231    7.3413 C.ar      2 RES2    0.0000
     69 C34       -1.1694    9.4612    7.3750 C.ar      2 RES2    0.0000
     70 C35       -1.6083   10.4466    6.4248 C.ar      2 RES2    0.0000
     71 H36       -2.2062   10.1836    5.7338 H         2 RES2    0.0000
     72 C36        1.1049    9.4127   10.3734 C.ar      2 RES2    0.0000
     73 H37        1.4266    8.7994   11.0226 H         2 RES2    0.0000
     74 C37        0.1157    6.5943   10.4103 C.3       2 RES2    0.0000
     75 H38        1.0461    6.8068   10.7075 H         2 RES2    0.0000
     76 C38       -0.7977    6.7539   11.6225 C.3       2 RES2    0.0000
     77 H39       -0.5464    6.1022   12.3086 H         2 RES2    0.0000
     78 H40       -1.7282    6.6015   11.3530 H         2 RES2    0.0000
     79 H41       -0.7066    7.6611   11.9833 H         2 RES2    0.0000
     80 C39        0.1095    5.1512    9.9286 C.3       2 RES2    0.0000
     81 H42        0.7013    5.0641    9.1518 H         2 RES2    0.0000
     82 H43       -0.8005    4.8938    9.6760 H         2 RES2    0.0000
     83 H44        0.4263    4.5660   10.6485 H         2 RES2    0.0000
     84 C40       -2.5872    7.6338    6.2821 C.3       2 RES2    0.0000
     85 H45       -2.3885    8.1379    5.4422 H         2 RES2    0.0000
     86 C41       -2.4694    6.1522    5.9554 C.3       2 RES2    0.0000
     87 H46       -3.1221    5.9169    5.2636 H         2 RES2    0.0000
     88 H47       -2.6454    5.6253    6.7619 H         2 RES2    0.0000
     89 H48       -1.5655    5.9611    5.6310 H         2 RES2    0.0000
     90 C42       -4.0243    7.9741    6.6825 C.3       2 RES2    0.0000
     91 H49       -4.6406    7.6539    5.9900 H         2 RES2    0.0000
     92 H50       -4.1153    8.9443    6.7787 H         2 RES2    0.0000
     93 H51       -4.2364    7.5398    7.5355 H         2 RES2    0.0000
     94 C43        5.8903    0.6872   -0.0013 C.ar      3 RES3    0.0000
     95 C44        6.8212    1.1338    0.9814 C.ar      3 RES3    0.0000
     96 C45        7.2691    2.4704    0.9654 C.ar      3 RES3    0.0000
     97 C46        6.7724    3.3190   -0.0150 C.ar      3 RES3    0.0000
     98 H52        7.0801    4.2180   -0.0253 H         3 RES3    0.0000
     99 C47        5.8538    2.9333   -0.9818 C.ar      3 RES3    0.0000
    100 C48        5.4028    1.5972   -0.9845 C.ar      3 RES3    0.0000
    101 C49        4.4739    1.0990   -1.9574 C.ar      3 RES3    0.0000
    102 H53        4.1444    1.6891   -2.6259 H         3 RES3    0.0000
    103 C50        7.2719    0.1774    1.9507 C.ar      3 RES3    0.0000
    104 H54        7.8911    0.4583    2.6141 H         3 RES3    0.0000
    105 C51        8.3129    2.9744    1.9531 C.3       3 RES3    0.0000
    106 H55        8.1839    2.4688    2.8062 H         3 RES3    0.0000
    107 C52        9.7156    2.6562    1.4434 C.3       3 RES3    0.0000
    108 H56       10.3788    2.9854    2.0849 H         3 RES3    0.0000
    109 H57        9.8547    3.0920    0.5764 H         3 RES3    0.0000
    110 H58        9.8136    1.6866    1.3416 H         3 RES3    0.0000
    111 C53        8.2047    4.4591    2.2827 C.3       3 RES3    0.0000
    112 H59        8.9037    4.7021    2.9242 H         3 RES3    0.0000
    113 H60        7.3253    4.6431    2.6731 H         3 RES3    0.0000
    114 H61        8.3160    4.9840    1.4629 H         3 RES3    0.0000
    115 C54        5.3938    3.9187   -2.0483 C.3       3 RES3    0.0000
    116 H62        4.4459    3.6965   -2.2770 H         3 RES3    0.0000
    117 C55        6.2258    3.7345   -3.3095 C.3       3 RES3    0.0000
    118 H63        5.9281    4.3710   -3.9928 H         3 RES3    0.0000
    119 H64        6.1137    2.8210   -3.6439 H         3 RES3    0.0000
    120 H65        7.1696    3.8950   -3.1045 H         3 RES3    0.0000
    121 C56        5.4286    5.3782   -1.5922 C.3       3 RES3    0.0000
    122 H66        5.1175    5.9553   -2.3208 H         3 RES3    0.0000
    123 H67        6.3467    5.6233   -1.3517 H         3 RES3    0.0000
    124 H68        4.8447    5.4915   -0.8124 H         3 RES3    0.0000
    125 C29A       0.1677   11.2609    8.4600 C.ar      2 RES2    0.0000
    126 C30A      -0.3010   12.1986    7.4885 C.ar      2 RES2    0.0000
    127 C31A       0.1653   13.5366    7.5244 C.ar      2 RES2    0.0000
    128 C32A       1.0568   13.8909    8.5275 C.ar      2 RES2    0.0000
    129 H35A       1.3755   14.7858    8.5417 H         2 RES2    0.0000
    130 C33A       1.5116   13.0220    9.5128 C.ar      2 RES2    0.0000
    131 C34A       1.0723   11.6839    9.4791 C.ar      2 RES2    0.0000
    132 C35A       1.5111   10.6984   10.4294 C.ar      2 RES2    0.0000
    133 H36A       2.1091   10.9614   11.1204 H         2 RES2    0.0000
    134 C36A      -1.2021   11.7324    6.4808 C.ar      2 RES2    0.0000
    135 H37A      -1.5237   12.3456    5.8315 H         2 RES2    0.0000
    136 C37A      -0.2128   14.5508    6.4439 C.3       2 RES2    0.0000
    137 H38A      -1.1432   14.3383    6.1467 H         2 RES2    0.0000
    138 C38A       0.7006   14.3912    5.2317 C.3       2 RES2    0.0000
    139 H39A       0.4493   15.0429    4.5456 H         2 RES2    0.0000
    140 H40A       1.6310   14.5435    5.5012 H         2 RES2    0.0000
    141 H41A       0.6095   13.4840    4.8709 H         2 RES2    0.0000
    142 C39A      -0.2066   15.9938    6.9255 C.3       2 RES2    0.0000
    143 H42A      -0.7984   16.0810    7.7024 H         2 RES2    0.0000
    144 H43A       0.7034   16.2513    7.1782 H         2 RES2    0.0000
    145 H44A      -0.5235   16.5791    6.2057 H         2 RES2    0.0000
    146 C40A       2.4900   13.5112   10.5721 C.3       2 RES2    0.0000
    147 H45A       2.2913   13.0071   11.4120 H         2 RES2    0.0000
    148 C41A       2.3723   14.9928   10.8988 C.3       2 RES2    0.0000
    149 H46A       3.0249   15.2281   11.5906 H         2 RES2    0.0000
    150 H47A       2.5482   15.5197   10.0923 H         2 RES2    0.0000
    151 H48A       1.4683   15.1840   11.2232 H         2 RES2    0.0000
    152 C42A       3.9271   13.1709   10.1717 C.3       2 RES2    0.0000
    153 H49A       4.5434   13.4912   10.8642 H         2 RES2    0.0000
    154 H50A       4.0181   12.2007   10.0754 H         2 RES2    0.0000
    155 H51A       4.1393   13.6053    9.3187 H         2 RES2    0.0000
    156 C43A       5.4369   -0.6872    0.0013 C.ar      3 RES3    0.0000
    157 C44A       4.5060   -1.1338   -0.9814 C.ar      3 RES3    0.0000
    158 C45A       4.0581   -2.4704   -0.9654 C.ar      3 RES3    0.0000
    159 C46A       4.5548   -3.3190    0.0150 C.ar      3 RES3    0.0000
    160 H52A       4.2471   -4.2180    0.0253 H         3 RES3    0.0000
    161 C47A       5.4734   -2.9333    0.9818 C.ar      3 RES3    0.0000
    162 C48A       5.9244   -1.5972    0.9845 C.ar      3 RES3    0.0000
    163 C49A       6.8533   -1.0990    1.9574 C.ar      3 RES3    0.0000
    164 H53A       7.1828   -1.6891    2.6259 H         3 RES3    0.0000
    165 C50A       4.0553   -0.1774   -1.9507 C.ar      3 RES3    0.0000
    166 H54A       3.4361   -0.4583   -2.6141 H         3 RES3    0.0000
    167 C51A       3.0143   -2.9744   -1.9531 C.3       3 RES3    0.0000
    168 H55A       3.1433   -2.4688   -2.8062 H         3 RES3    0.0000
    169 C52A       1.6116   -2.6562   -1.4434 C.3       3 RES3    0.0000
    170 H56A       0.9484   -2.9854   -2.0849 H         3 RES3    0.0000
    171 H57A       1.4725   -3.0920   -0.5764 H         3 RES3    0.0000
    172 H58A       1.5136   -1.6866   -1.3416 H         3 RES3    0.0000
    173 C53A       3.1225   -4.4591   -2.2827 C.3       3 RES3    0.0000
    174 H59A       2.4235   -4.7021   -2.9242 H         3 RES3    0.0000
    175 H60A       4.0019   -4.6431   -2.6731 H         3 RES3    0.0000
    176 H61A       3.0112   -4.9840   -1.4629 H         3 RES3    0.0000
    177 C54A       5.9334   -3.9187    2.0483 C.3       3 RES3    0.0000
    178 H62A       6.8813   -3.6965    2.2770 H         3 RES3    0.0000
    179 C55A       5.1014   -3.7345    3.3095 C.3       3 RES3    0.0000
    180 H63A       5.3991   -4.3710    3.9928 H         3 RES3    0.0000
    181 H64A       5.2135   -2.8210    3.6439 H         3 RES3    0.0000
    182 H65A       4.1576   -3.8950    3.1045 H         3 RES3    0.0000
    183 C56A       5.8986   -5.3782    1.5922 C.3       3 RES3    0.0000
    184 H66A       6.2097   -5.9553    2.3208 H         3 RES3    0.0000
    185 H67A       4.9805   -5.6233    1.3517 H         3 RES3    0.0000
    186 H68A       6.4825   -5.4915    0.8124 H         3 RES3    0.0000
@<TRIPOS>BOND
     1    1    2 ar
     2    2    3 ar
     3    3    4 ar
     4    4    5 1
     5    6    4 ar
     6    7    1 ar
     7    8    7 ar
     8    9    8 1
     9   10    8 ar
    10   11   10 1
    11   12    1 ar
    12   13   10 ar
    13   14   13 ar
    14   15   14 ar
    15   16   15 1
    16   17   15 ar
    17   18   12 ar
    18   19   18 ar
    19   20   19 1
    20   21    2 ar
    21   22   21 1
    22   23    3 1
    23   24   23 1
    24   25   23 1
    25   26   25 1
    26   27   25 1
    27   28   25 1
    28   29   23 1
    29   30   29 1
    30   31   29 1
    31   32   29 1
    32   33    6 1
    33   34   33 1
    34   35   33 1
    35   36   35 1
    36   37   35 1
    37   38   35 1
    38   39   33 1
    39   40   39 1
    40   41   39 1
    41   42   39 1
    42   43   14 1
    43   44   43 1
    44   45   43 1
    45   46   45 1
    46   47   45 1
    47   48   45 1
    48   49   43 1
    49   50   49 1
    50   51   49 1
    51   52   49 1
    52   53   17 1
    53   54   53 1
    54   55   53 1
    55   56   55 1
    56   57   55 1
    57   58   55 1
    58   59   53 1
    59   60   59 1
    60   61   59 1
    61   62   59 1
    62   63   64 ar
    63   64   65 ar
    64   65   66 ar
    65   66   67 1
    66   68   66 ar
    67   69   63 ar
    68   70   69 ar
    69   71   70 1
    70   72   64 ar
    71   73   72 1
    72   74   65 1
    73   75   74 1
    74   76   74 1
    75   77   76 1
    76   78   76 1
    77   79   76 1
    78   80   74 1
    79   81   80 1
    80   82   80 1
    81   83   80 1
    82   84   68 1
    83   85   84 1
    84   86   84 1
    85   87   86 1
    86   88   86 1
    87   89   86 1
    88   90   84 1
    89   91   90 1
    90   92   90 1
    91   93   90 1
    92   94   95 ar
    93   95   96 ar
    94   96   97 ar
    95   97   98 1
    96   99   97 ar
    97  100   94 ar
    98  101  100 ar
    99  102  101 1
   100  103   95 ar
   101  104  103 1
   102  105   96 1
   103  106  105 1
   104  107  105 1
   105  108  107 1
   106  109  107 1
   107  110  107 1
   108  111  105 1
   109  112  111 1
   110  113  111 1
   111  114  111 1
   112  115   99 1
   113  116  115 1
   114  117  115 1
   115  118  117 1
   116  119  117 1
   117  120  117 1
   118  121  115 1
   119  122  121 1
   120  123  121 1
   121  124  121 1
   122  125   63 ar
   123  126  125 ar
   124  127  126 ar
   125  128  127 ar
   126  129  128 1
   127  130  128 ar
   128  131  125 ar
   129  132   72 ar
   130  133  132 1
   131  134   70 ar
   132  135  134 1
   133  136  127 1
   134  137  136 1
   135  138  136 1
   136  139  138 1
   137  140  138 1
   138  141  138 1
   139  142  136 1
   140  143  142 1
   141  144  142 1
   142  145  142 1
   143  146  130 1
   144  147  146 1
   145  148  146 1
   146  149  148 1
   147  150  148 1
   148  151  148 1
   149  152  146 1
   150  153  152 1
   151  154  152 1
   152  155  152 1
   153  156   94 ar
   154  157  156 ar
   155  158  157 ar
   156  159  158 ar
   157  160  159 1
   158  161  159 ar
   159  162  156 ar
   160  163  103 ar
   161  164  163 1
   162  165  101 ar
   163  166  165 1
   164  167  158 1
   165  168  167 1
   166  169  167 1
   167  170  169 1
   168  171  169 1
   169  172  169 1
   170  173  167 1
   171  174  173 1
   172  175  173 1
   173  176  173 1
   174  177  161 1
   175  178  177 1
   176  179  177 1
   177  180  179 1
   178  181  179 1
   179  182  179 1
   180  183  177 1
   181  184  183 1
   182  185  183 1
   183  186  183 1
   184    6    7 ar
   185   12   13 ar
   186   17   18 ar
   187   19   21 ar
   188   68   69 ar
   189   99  100 ar
   190  126  134 ar
   191  130  131 ar
   192  131  132 ar
   193  157  165 ar
   194  161  162 ar
   195  162  163 ar
@<TRIPOS>SUBSTRUCTURE
     1 RES1 1
     2 RES2 63
     3 RES3 94

@<TRIPOS>CRYSIN
  11.3272   12.6764   16.9660  94.5950  92.3110 115.0640   2 1

