# MOL2 file generated by ConQuest
# Please check atom types

@<TRIPOS>MOLECULE
CORFIY
    58    60     1
SMALL
NO_CHARGES
****
Generated from CSD

@<TRIPOS>ATOM
      1 C1         0.2747    4.6613    1.3298 C.ar      1 RES1    0.0000
      2 C2        -0.4031    3.5640    0.7432 C.ar      1 RES1    0.0000
      3 C3         0.3462    2.6254   -0.0052 C.ar      1 RES1    0.0000
      4 C4         1.7064    2.7333   -0.1600 C.ar      1 RES1    0.0000
      5 C5         2.3468    3.8372    0.3854 C.ar      1 RES1    0.0000
      6 C6         1.6594    4.8111    1.1457 C.ar      1 RES1    0.0000
      7 C7         2.3243    5.8974    1.7771 C.ar      1 RES1    0.0000
      8 C8         1.6613    6.7854    2.6114 C.ar      1 RES1    0.0000
      9 C9         0.2892    6.6421    2.7301 C.ar      1 RES1    0.0000
     10 C10       -0.4318    5.5856    2.1418 C.ar      1 RES1    0.0000
     11 C11       -1.8169    5.3741    2.3534 C.ar      1 RES1    0.0000
     12 C12       -2.4907    4.2867    1.8373 C.ar      1 RES1    0.0000
     13 C13       -1.7889    3.4208    0.9961 C.ar      1 RES1    0.0000
     14 C14        2.5185    1.5986   -0.8103 C.3       1 RES1    0.0000
     15 C15        2.4180    7.8485    3.4148 C.3       1 RES1    0.0000
     16 C16       -3.9526    3.9782    2.2020 C.3       1 RES1    0.0000
     17 C17        3.7258    2.1098   -1.5466 C.3       1 RES1    0.0000
     18 C18        3.0024    0.6930    0.3011 C.3       1 RES1    0.0000
     19 C19        1.6864    0.7822   -1.7840 C.3       1 RES1    0.0000
     20 C20        3.0046    7.2161    4.6087 C.3       1 RES1    0.0000
     21 C21        3.5882    8.4060    2.6321 C.3       1 RES1    0.0000
     22 C22        1.5935    8.9954    3.7950 C.3       1 RES1    0.0000
     23 C23       -4.0078    2.7289    3.0278 C.3       1 RES1    0.0000
     24 C24       -4.7784    3.7766    0.9806 C.3       1 RES1    0.0000
     25 C25       -4.5987    5.0634    3.0054 C.3       1 RES1    0.0000
     26 H1        -2.2849    6.0043    3.0106 H         1 RES1    0.0000
     27 H2        -2.2056    2.6441    0.6021 H         1 RES1    0.0000
     28 H3        -0.1790    1.9280   -0.3441 H         1 RES1    0.0000
     29 H4         3.2823    3.9551    0.2925 H         1 RES1    0.0000
     30 H5         3.2907    6.0373    1.6343 H         1 RES1    0.0000
     31 H6        -0.2139    7.2161    3.2686 H         1 RES1    0.0000
     32 H7         4.2378    1.3815   -1.8872 H         1 RES1    0.0000
     33 H8         3.4525    2.6617   -2.2760 H         1 RES1    0.0000
     34 H9         4.2721    2.6242   -0.9582 H         1 RES1    0.0000
     35 H10        2.2591    0.3437    0.7776 H         1 RES1    0.0000
     36 H11        3.5083   -0.0264   -0.0637 H         1 RES1    0.0000
     37 H12        3.5550    1.1876    0.8997 H         1 RES1    0.0000
     38 H13        0.9301    0.4231   -1.3350 H         1 RES1    0.0000
     39 H14        1.3933    1.3397   -2.4979 H         1 RES1    0.0000
     40 H15        2.2109    0.0716   -2.1384 H         1 RES1    0.0000
     41 H16        2.3209    6.8592    5.1575 H         1 RES1    0.0000
     42 H17        3.5911    6.5121    4.3386 H         1 RES1    0.0000
     43 H18        3.5051    7.8595    5.1025 H         1 RES1    0.0000
     44 H19        4.1693    7.7009    2.3826 H         1 RES1    0.0000
     45 H20        3.2667    8.8444    1.8511 H         1 RES1    0.0000
     46 H21        4.0628    9.0350    3.1688 H         1 RES1    0.0000
     47 H22        2.1224    9.6366    4.2698 H         1 RES1    0.0000
     48 H23        1.2384    9.4129    3.0140 H         1 RES1    0.0000
     49 H24        0.8765    8.7155    4.3507 H         1 RES1    0.0000
     50 H25       -4.9180    2.5218    3.2342 H         1 RES1    0.0000
     51 H26       -3.6315    2.0051    2.5375 H         1 RES1    0.0000
     52 H27       -3.5254    2.8556    3.8311 H         1 RES1    0.0000
     53 H28       -4.8107    4.5765    0.4645 H         1 RES1    0.0000
     54 H29       -4.4056    3.0793    0.4438 H         1 RES1    0.0000
     55 H30       -5.6707    3.5287    1.2214 H         1 RES1    0.0000
     56 H31       -4.1055    5.2055    3.8019 H         1 RES1    0.0000
     57 H32       -4.6164    5.8710    2.4979 H         1 RES1    0.0000
     58 H33       -5.4908    4.8155    3.2239 H         1 RES1    0.0000
@<TRIPOS>BOND
     1    1    2 ar
     2    2    3 ar
     3    3    4 ar
     4    4    5 ar
     5    5    6 ar
     6    6    1 ar
     7    7    6 ar
     8    8    7 ar
     9    9    8 ar
    10   10    1 ar
    11   11   10 ar
    12   12   11 ar
    13   13    2 ar
    14   14    4 1
    15   15    8 1
    16   16   12 1
    17   17   14 1
    18   18   14 1
    19   19   14 1
    20   20   15 1
    21   21   15 1
    22   22   15 1
    23   23   16 1
    24   24   16 1
    25   25   16 1
    26   26   11 1
    27   27   13 1
    28   28    3 1
    29   29    5 1
    30   30    7 1
    31   31    9 1
    32   32   17 1
    33   33   17 1
    34   34   17 1
    35   35   18 1
    36   36   18 1
    37   37   18 1
    38   38   19 1
    39   39   19 1
    40   40   19 1
    41   41   20 1
    42   42   20 1
    43   43   20 1
    44   44   21 1
    45   45   21 1
    46   46   21 1
    47   47   22 1
    48   48   22 1
    49   49   22 1
    50   50   23 1
    51   51   23 1
    52   52   23 1
    53   53   24 1
    54   54   24 1
    55   55   24 1
    56   56   25 1
    57   57   25 1
    58   58   25 1
    59    9   10 ar
    60   12   13 ar
@<TRIPOS>SUBSTRUCTURE
     1 RES1 1

@<TRIPOS>CRYSIN
  11.1950   11.0170   17.7780  90.0000 104.6100  90.0000 231 1

