# MOL2 file generated by ConQuest
# Please check atom types

@<TRIPOS>MOLECULE
CORONE01
    24    30     1
SMALL
NO_CHARGES
****
Generated from CSD

@<TRIPOS>ATOM
      1 C1        -2.0521   -1.9672    0.3416 C.ar      1 RES1    0.0000
      2 C2        -2.4287   -2.3381    1.6510 C.ar      1 RES1    0.0000
      3 C3        -1.8184   -1.7700    2.7611 C.ar      1 RES1    0.0000
      4 C4        -0.8020   -0.7935    2.6283 C.ar      1 RES1    0.0000
      5 C5        -0.1595   -0.1925    3.7385 C.ar      1 RES1    0.0000
      6 C6         0.8308    0.7559    3.5772 C.ar      1 RES1    0.0000
      7 C7         1.2517    1.1738    2.2867 C.ar      1 RES1    0.0000
      8 C8         2.2612    2.1409    2.0875 C.ar      1 RES1    0.0000
      9 C9        -2.6444   -2.5259   -0.8160 C.ar      1 RES1    0.0000
     10 C10       -1.0260   -0.9813    0.1708 C.ar      1 RES1    0.0000
     11 C11       -0.3992   -0.3944    1.3094 C.ar      1 RES1    0.0000
     12 C12        0.6233    0.5869    1.1481 C.ar      1 RES1    0.0000
     13 C9B        2.6444    2.5259    0.8160 C.ar      1 RES1    0.0000
     14 C8B       -2.2612   -2.1409   -2.0875 C.ar      1 RES1    0.0000
     15 C12B      -0.6233   -0.5869   -1.1481 C.ar      1 RES1    0.0000
     16 C10B       1.0260    0.9813   -0.1708 C.ar      1 RES1    0.0000
     17 C1B        2.0521    1.9672   -0.3416 C.ar      1 RES1    0.0000
     18 C7B       -1.2517   -1.1738   -2.2867 C.ar      1 RES1    0.0000
     19 C11B       0.3992    0.3944   -1.3094 C.ar      1 RES1    0.0000
     20 C2B        2.4287    2.3381   -1.6510 C.ar      1 RES1    0.0000
     21 C6B       -0.8308   -0.7559   -3.5772 C.ar      1 RES1    0.0000
     22 C4B        0.8020    0.7935   -2.6283 C.ar      1 RES1    0.0000
     23 C3B        1.8184    1.7700   -2.7611 C.ar      1 RES1    0.0000
     24 C5B        0.1595    0.1925   -3.7385 C.ar      1 RES1    0.0000
@<TRIPOS>BOND
     1    1    2 ar
     2    2    3 ar
     3    3    4 ar
     4    4    5 ar
     5    5    6 ar
     6    6    7 ar
     7    7    8 ar
     8    8   13 ar
     9    9    1 ar
    10   10    1 ar
    11   11    4 ar
    12   12    7 ar
    13   13   17 ar
    14   14    9 ar
    15   15   10 ar
    16   16   12 ar
    17   17   16 ar
    18   18   14 ar
    19   19   15 ar
    20   20   17 ar
    21   21   18 ar
    22   22   19 ar
    23   23   20 ar
    24   24   21 ar
    25   10   11 ar
    26   11   12 ar
    27   15   18 ar
    28   16   19 ar
    29   22   23 ar
    30   22   24 ar
@<TRIPOS>SUBSTRUCTURE
     1 RES1 1

@<TRIPOS>CRYSIN
  16.1000    4.6950   10.1500  90.0000 110.8000  90.0000  14 2

