# MOL2 file generated by ConQuest
# Please check atom types

@<TRIPOS>MOLECULE
CORONE02
    24    30     1
SMALL
NO_CHARGES
****
Generated from CSD

@<TRIPOS>ATOM
      1 C1         3.7416    0.7393   13.0348 C.ar      1 RES1    0.0000
      2 C2         2.3795    1.1472   13.1043 C.ar      1 RES1    0.0000
      3 C3         1.8149    2.1015   12.2220 C.ar      1 RES1    0.0000
      4 C4         0.5039    2.4751   12.3218 C.ar      1 RES1    0.0000
      5 C5        -0.3491    1.9081   13.3007 C.ar      1 RES1    0.0000
      6 C6        -1.7247    2.2522   13.4171 C.ar      1 RES1    0.0000
      7 C7        -2.5167    1.6969   14.3598 C.ar      1 RES1    0.0000
      8 C8        -2.0098    0.7524   15.2949 C.ar      1 RES1    0.0000
      9 C9         4.2545   -0.1723   13.8960 C.ar      1 RES1    0.0000
     10 C10        1.5574    0.5736   14.1060 C.ar      1 RES1    0.0000
     11 C11        0.1868    0.9566   14.1981 C.ar      1 RES1    0.0000
     12 C12       -0.6478    0.3769   15.2013 C.ar      1 RES1    0.0000
     13 C9B       -2.8080    0.1723   16.3192 C.ar      1 RES1    0.0000
     14 C1B       -2.2951   -0.7393   17.1804 C.ar      1 RES1    0.0000
     15 C2B       -0.9330   -1.1472   17.1109 C.ar      1 RES1    0.0000
     16 C3B       -0.3684   -2.1015   17.9931 C.ar      1 RES1    0.0000
     17 C4B        0.9427   -2.4751   17.8934 C.ar      1 RES1    0.0000
     18 C5B        1.7956   -1.9081   16.9145 C.ar      1 RES1    0.0000
     19 C6B        3.1712   -2.2522   16.7981 C.ar      1 RES1    0.0000
     20 C7B        3.9632   -1.6969   15.8554 C.ar      1 RES1    0.0000
     21 C8B        3.4563   -0.7524   14.9203 C.ar      1 RES1    0.0000
     22 C12B       2.0944   -0.3769   15.0139 C.ar      1 RES1    0.0000
     23 C10B      -0.1109   -0.5736   16.1092 C.ar      1 RES1    0.0000
     24 C11B       1.2597   -0.9566   16.0171 C.ar      1 RES1    0.0000
@<TRIPOS>BOND
     1    1    2 ar
     2    2    3 ar
     3    3    4 ar
     4    4    5 ar
     5    5    6 ar
     6    6    7 ar
     7    7    8 ar
     8    8   12 ar
     9    9    1 ar
    10   10    2 ar
    11   11    5 ar
    12   12   11 ar
    13   13    8 ar
    14   14   13 ar
    15   15   14 ar
    16   16   15 ar
    17   17   16 ar
    18   18   17 ar
    19   19   18 ar
    20   20   19 ar
    21   21    9 ar
    22   22   10 ar
    23   23   12 ar
    24   24   18 ar
    25   10   11 ar
    26   15   23 ar
    27   20   21 ar
    28   21   22 ar
    29   22   24 ar
    30   23   24 ar
@<TRIPOS>SUBSTRUCTURE
     1 RES1 1

@<TRIPOS>CRYSIN
  10.1220    4.6940   15.7180  90.0000 106.0200  90.0000 231 1

