# MOL2 file generated by ConQuest
# Please check atom types

@<TRIPOS>MOLECULE
CORONE
    36    42     1
SMALL
NO_CHARGES
****
Generated from CSD

@<TRIPOS>ATOM
      1 C1        -2.0732   -1.9179    0.3596 C.ar      1 RES1    0.0000
      2 C2        -1.0428   -0.9540    0.1727 C.ar      1 RES1    0.0000
      3 C3        -0.4054   -0.3870    1.3024 C.ar      1 RES1    0.0000
      4 C4        -0.6389   -0.5689   -1.1381 C.ar      1 RES1    0.0000
      5 C5        -2.4507   -2.2513    1.6817 C.ar      1 RES1    0.0000
      6 C6        -1.8509   -1.6927    2.7491 C.ar      1 RES1    0.0000
      7 C7        -0.8090   -0.7556    2.6292 C.ar      1 RES1    0.0000
      8 C8        -0.1323   -0.1594    3.7193 C.ar      1 RES1    0.0000
      9 C9         0.8433    0.7312    3.5494 C.ar      1 RES1    0.0000
     10 C10       -1.2898   -1.1492   -2.2744 C.ar      1 RES1    0.0000
     11 C11       -2.2962   -2.1112   -2.0451 C.ar      1 RES1    0.0000
     12 C12       -2.6655   -2.4855   -0.7993 C.ar      1 RES1    0.0000
     13 H1        -3.2384   -2.9801    1.8365 H         1 RES1    0.0000
     14 H2        -2.1356   -1.9814    3.7183 H         1 RES1    0.0000
     15 H3        -0.4526   -0.4490    4.6762 H         1 RES1    0.0000
     16 H4         1.3493    1.1576    4.3855 H         1 RES1    0.0000
     17 H5        -2.7668   -2.5579   -2.9105 H         1 RES1    0.0000
     18 H6        -3.4291   -3.2199   -0.6568 H         1 RES1    0.0000
     19 C4B        0.6389    0.5689    1.1381 C.ar      1 RES1    0.0000
     20 C3B        0.4054    0.3870   -1.3024 C.ar      1 RES1    0.0000
     21 C10B       1.2898    1.1492    2.2744 C.ar      1 RES1    0.0000
     22 C9B       -0.8433   -0.7312   -3.5494 C.ar      1 RES1    0.0000
     23 C2B        1.0428    0.9540   -0.1727 C.ar      1 RES1    0.0000
     24 C7B        0.8090    0.7556   -2.6292 C.ar      1 RES1    0.0000
     25 C11B       2.2962    2.1112    2.0451 C.ar      1 RES1    0.0000
     26 C8B        0.1323    0.1594   -3.7193 C.ar      1 RES1    0.0000
     27 H4B       -1.3493   -1.1576   -4.3855 H         1 RES1    0.0000
     28 C1B        2.0732    1.9179   -0.3596 C.ar      1 RES1    0.0000
     29 C6B        1.8509    1.6927   -2.7491 C.ar      1 RES1    0.0000
     30 C12B       2.6655    2.4855    0.7993 C.ar      1 RES1    0.0000
     31 H5B        2.7668    2.5579    2.9105 H         1 RES1    0.0000
     32 H3B        0.4526    0.4490   -4.6762 H         1 RES1    0.0000
     33 C5B        2.4507    2.2513   -1.6817 C.ar      1 RES1    0.0000
     34 H2B        2.1356    1.9814   -3.7183 H         1 RES1    0.0000
     35 H6B        3.4291    3.2199    0.6568 H         1 RES1    0.0000
     36 H1B        3.2384    2.9801   -1.8365 H         1 RES1    0.0000
@<TRIPOS>BOND
     1    1    2 ar
     2    2    3 ar
     3    3    7 ar
     4    4    2 ar
     5    5    1 ar
     6    6    5 ar
     7    7    6 ar
     8    8    7 ar
     9    9    8 ar
    10   10    4 ar
    11   11   10 ar
    12   12    1 ar
    13   13    5 1
    14   14    6 1
    15   15    8 1
    16   16    9 1
    17   17   11 1
    18   18   12 1
    19   19    3 ar
    20   20    4 ar
    21   21    9 ar
    22   22   10 ar
    23   23   19 ar
    24   24   20 ar
    25   25   21 ar
    26   26   22 ar
    27   27   22 1
    28   28   23 ar
    29   29   24 ar
    30   30   25 ar
    31   31   25 1
    32   32   26 1
    33   33   28 ar
    34   34   29 1
    35   35   30 1
    36   36   33 1
    37   11   12 ar
    38   19   21 ar
    39   20   23 ar
    40   24   26 ar
    41   28   30 ar
    42   29   33 ar
@<TRIPOS>SUBSTRUCTURE
     1 RES1 1

@<TRIPOS>CRYSIN
  16.1190    4.7020   10.1020  90.0000 110.9000  90.0000  14 2

