# MOL2 file generated by ConQuest
# Please check atom types

@<TRIPOS>MOLECULE
CORXAI10
    34    42     1
SMALL
NO_CHARGES
****
Generated from CSD

@<TRIPOS>ATOM
      1 C1         3.5301    0.8139   -2.8814 C.ar      1 RES1    0.0000
      2 C2         2.4953    0.8052   -3.7705 C.ar      1 RES1    0.0000
      3 C3         1.2271    0.3232   -3.4351 C.ar      1 RES1    0.0000
      4 C4         1.0006   -0.2124   -2.1809 C.ar      1 RES1    0.0000
      5 C5         2.0629   -0.1968   -1.2165 C.ar      1 RES1    0.0000
      6 C6         1.8438   -0.7355    0.0853 C.ar      1 RES1    0.0000
      7 C7         2.8455   -0.7016    1.0379 C.ar      1 RES1    0.0000
      8 C8         2.6051   -1.2396    2.3913 C.ar      1 RES1    0.0000
      9 C9         3.5894   -1.2217    3.3160 C.ar      1 RES1    0.0000
     10 C10        4.8986   -0.7249    3.0501 C.ar      1 RES1    0.0000
     11 C11        5.9177   -0.6259    4.0086 C.ar      1 RES1    0.0000
     12 C12        5.6198   -0.9441    5.4354 C.ar      1 RES1    0.0000
     13 C13        6.5847   -0.7511    6.3721 C.ar      1 RES1    0.0000
     14 C14        7.8561   -0.2650    6.0764 C.ar      1 RES1    0.0000
     15 C15        8.7896    0.0046    7.0845 C.ar      1 RES1    0.0000
     16 C16       10.0072    0.5368    6.7630 C.ar      1 RES1    0.0000
     17 C17       10.3984    0.7778    5.4215 C.ar      1 RES1    0.0000
     18 C18        9.4921    0.4770    4.4015 C.ar      1 RES1    0.0000
     19 C19        9.9112    0.5509    2.9747 C.ar      1 RES1    0.0000
     20 C20       11.2314    0.8322    2.6354 C.ar      1 RES1    0.0000
     21 C21       11.6712    0.6955    1.3197 C.ar      1 RES1    0.0000
     22 C22       10.7590    0.2349    0.3731 C.ar      1 RES1    0.0000
     23 C23        9.4335    0.0156    0.6688 C.ar      1 RES1    0.0000
     24 C24        8.9400    0.2665    1.9805 C.ar      1 RES1    0.0000
     25 C25        7.5482    0.0670    2.3139 C.ar      1 RES1    0.0000
     26 C26        6.4868    0.1690    1.3871 C.ar      1 RES1    0.0000
     27 C27        6.6735    0.8056    0.0754 C.ar      1 RES1    0.0000
     28 C28        5.6804    0.8372   -0.8176 C.ar      1 RES1    0.0000
     29 C29        4.4070    0.2962   -0.5715 C.ar      1 RES1    0.0000
     30 C30        3.3423    0.2775   -1.5598 C.ar      1 RES1    0.0000
     31 C31        4.1497   -0.2364    0.7263 C.ar      1 RES1    0.0000
     32 C32        5.1895   -0.2554    1.7066 C.ar      1 RES1    0.0000
     33 C33        7.2187   -0.2170    3.6792 C.ar      1 RES1    0.0000
     34 C34        8.2198   -0.0110    4.7052 C.ar      1 RES1    0.0000
@<TRIPOS>BOND
     1    1    2 ar
     2    2    3 ar
     3    3    4 ar
     4    4    5 ar
     5    5    6 ar
     6    6    7 ar
     7    7    8 ar
     8    8    9 ar
     9    9   10 ar
    10   10   11 ar
    11   11   12 ar
    12   12   13 ar
    13   13   14 ar
    14   14   15 ar
    15   15   16 ar
    16   16   17 ar
    17   17   18 ar
    18   18   19 ar
    19   19   20 ar
    20   20   21 ar
    21   21   22 ar
    22   22   23 ar
    23   23   24 ar
    24   24   19 ar
    25   25   24 ar
    26   26   25 ar
    27   27   26 ar
    28   28   27 ar
    29   29   28 ar
    30   30    1 ar
    31   31    7 ar
    32   32   10 ar
    33   33   11 ar
    34   34   14 ar
    35    5   30 ar
    36   18   34 ar
    37   25   33 ar
    38   26   32 ar
    39   29   30 ar
    40   29   31 ar
    41   31   32 ar
    42   33   34 ar
@<TRIPOS>SUBSTRUCTURE
     1 RES1 1

@<TRIPOS>CRYSIN
  25.7800    3.8070   19.9750  90.0000  96.5500  90.0000  14 1

