# MOL2 file generated by ConQuest
# Please check atom types

@<TRIPOS>MOLECULE
COTYUF01
    42    46     1
SMALL
NO_CHARGES
****
Generated from CSD

@<TRIPOS>ATOM
      1 C1         6.2168    6.4465   -1.0384 C.ar      1 RES1    0.0000
      2 H1         5.6145    6.6897   -1.7309 H         1 RES1    0.0000
      3 C2         7.1763    7.3566   -0.6120 C.ar      1 RES1    0.0000
      4 H2         7.2160    8.2190   -1.0085 H         1 RES1    0.0000
      5 C3         8.0781    7.0171    0.3875 C.ar      1 RES1    0.0000
      6 H3         8.7315    7.6414    0.6807 H         1 RES1    0.0000
      7 C4         8.0083    5.7528    0.9490 C.ar      1 RES1    0.0000
      8 C5         8.9275    5.1286    1.9821 C.3       1 RES1    0.0000
      9 H4         9.8058    4.9793    1.5284 H         1 RES1    0.0000
     10 C6         9.2129    6.0033    3.1984 C.ar      1 RES1    0.0000
     11 C7        10.4897    6.6559    3.3091 C.ar      1 RES1    0.0000
     12 C8        11.5438    6.4921    2.3692 C.ar      1 RES1    0.0000
     13 H5        11.4151    5.9113    1.6286 H         1 RES1    0.0000
     14 C9        12.7412    7.1488    2.5002 C.ar      1 RES1    0.0000
     15 H6        13.4317    7.0038    1.8646 H         1 RES1    0.0000
     16 C10       12.9527    8.0367    3.5723 C.ar      1 RES1    0.0000
     17 H7        13.7774    8.5022    3.6519 H         1 RES1    0.0000
     18 C11        6.9701    1.3286    2.0462 C.ar      1 RES1    0.0000
     19 H8         6.5153    0.4952    2.0149 H         1 RES1    0.0000
     20 C12        6.5447    2.3724    1.2369 C.ar      1 RES1    0.0000
     21 H9         5.8060    2.2579    0.6515 H         1 RES1    0.0000
     22 C13        7.2178    3.5892    1.2966 C.ar      1 RES1    0.0000
     23 C14        8.3011    3.7551    2.1744 C.ar      1 RES1    0.0000
     24 C15        8.7266    2.7053    2.9716 C.ar      1 RES1    0.0000
     25 H10        9.4670    2.8140    3.5579 H         1 RES1    0.0000
     26 C16        8.0532    1.4882    2.9023 C.ar      1 RES1    0.0000
     27 H11        8.3369    0.7612    3.4452 H         1 RES1    0.0000
     28 C17       11.9675    8.2244    4.4948 C.ar      1 RES1    0.0000
     29 H12       12.1100    8.8335    5.2095 H         1 RES1    0.0000
     30 C18       10.7343    7.5304    4.4117 C.ar      1 RES1    0.0000
     31 C19        9.7441    7.6797    5.4119 C.ar      1 RES1    0.0000
     32 H13        9.9111    8.2344    6.1658 H         1 RES1    0.0000
     33 C20        8.5555    7.0320    5.2979 C.ar      1 RES1    0.0000
     34 H14        7.9103    7.1265    5.9884 H         1 RES1    0.0000
     35 C21        8.2515    6.2181    4.1756 C.ar      1 RES1    0.0000
     36 C22        6.8712    5.6254    4.1119 C.3       1 RES1    0.0000
     37 H15        6.5497    5.6452    3.1863 H         1 RES1    0.0000
     38 H16        6.2657    6.1464    4.6792 H         1 RES1    0.0000
     39 H17        6.8986    4.6986    4.4286 H         1 RES1    0.0000
     40 C23        6.1280    5.1834   -0.4621 C.ar      1 RES1    0.0000
     41 H18        5.4617    4.5691   -0.7454 H         1 RES1    0.0000
     42 C24        7.0335    4.8342    0.5387 C.ar      1 RES1    0.0000
@<TRIPOS>BOND
     1    1    2 1
     2    3    1 ar
     3    4    3 1
     4    5    3 ar
     5    6    5 1
     6    7    5 ar
     7    8    7 1
     8    9    8 1
     9   10    8 1
    10   11   10 ar
    11   12   11 ar
    12   13   12 1
    13   14   12 ar
    14   15   14 1
    15   16   14 ar
    16   17   16 1
    17   18   19 1
    18   20   18 ar
    19   21   20 1
    20   22   20 ar
    21   23    8 1
    22   24   23 ar
    23   25   24 1
    24   26   18 ar
    25   27   26 1
    26   28   16 ar
    27   29   28 1
    28   30   11 ar
    29   31   30 ar
    30   32   31 1
    31   33   31 ar
    32   34   33 1
    33   35   10 ar
    34   36   35 1
    35   37   36 1
    36   38   36 1
    37   39   36 1
    38   40    1 ar
    39   41   40 1
    40   42    7 ar
    41   22   23 ar
    42   22   42 1
    43   24   26 ar
    44   28   30 ar
    45   33   35 ar
    46   40   42 ar
@<TRIPOS>SUBSTRUCTURE
     1 RES1 1

@<TRIPOS>CRYSIN
   9.0850    8.5820   20.8860  90.0000  91.3820  90.0000 231 1

