# MOL2 file generated by ConQuest
# Please check atom types

@<TRIPOS>MOLECULE
COTYUF
    24    28     1
SMALL
NO_CHARGES
****
Generated from CSD

@<TRIPOS>ATOM
      1 C1        10.0181    2.7380   10.1289 C.ar      1 RES1    0.0000
      2 C2        10.9186    3.0630   11.1321 C.ar      1 RES1    0.0000
      3 C3        11.8882    2.1570   11.5599 C.ar      1 RES1    0.0000
      4 C4        11.9705    0.8914   10.9782 C.ar      1 RES1    0.0000
      5 C5        11.0597    0.5535    9.9750 C.ar      1 RES1    0.0000
      6 C6        10.8665   -0.6914    9.2311 C.ar      1 RES1    0.0000
      7 C7        11.5675   -1.8992    9.2795 C.ar      1 RES1    0.0000
      8 C8        11.1308   -2.9380    8.4597 C.ar      1 RES1    0.0000
      9 C9        10.0669   -2.7889    7.6061 C.ar      1 RES1    0.0000
     10 C10        9.3563   -1.5664    7.5408 C.ar      1 RES1    0.0000
     11 C11        9.7902   -0.5354    8.3585 C.ar      1 RES1    0.0000
     12 C12        9.1701    0.8518    8.5461 C.3       1 RES1    0.0000
     13 C13       10.0820    1.4664    9.5725 C.ar      1 RES1    0.0000
     14 C14        8.8820    1.7147    7.3301 C.ar      1 RES1    0.0000
     15 C15        9.8564    1.9475    6.3669 C.ar      1 RES1    0.0000
     16 C16        9.5494    2.7691    5.2352 C.ar      1 RES1    0.0000
     17 C17        8.3530    3.4001    5.1129 C.ar      1 RES1    0.0000
     18 C18        7.3578    3.2251    6.0908 C.ar      1 RES1    0.0000
     19 C19        6.1181    3.9148    5.9960 C.ar      1 RES1    0.0000
     20 C20        5.1208    3.7122    6.9149 C.ar      1 RES1    0.0000
     21 C21        5.3375    2.8432    7.9939 C.ar      1 RES1    0.0000
     22 C22        6.5410    2.1820    8.1288 C.ar      1 RES1    0.0000
     23 C23        7.6080    2.3665    7.1994 C.ar      1 RES1    0.0000
     24 C24       11.2463    1.3673    6.4575 C.3       1 RES1    0.0000
@<TRIPOS>BOND
     1    1    2 ar
     2    2    3 ar
     3    3    4 ar
     4    4    5 ar
     5    5    6 1
     6    6    7 ar
     7    7    8 ar
     8    8    9 ar
     9    9   10 ar
    10   10   11 ar
    11   11    6 ar
    12   12   11 1
    13   13    1 ar
    14   14   12 1
    15   15   14 ar
    16   16   15 ar
    17   17   16 ar
    18   18   17 ar
    19   19   18 ar
    20   20   19 ar
    21   21   20 ar
    22   22   21 ar
    23   23   14 ar
    24   24   15 1
    25    5   13 ar
    26   12   13 1
    27   18   23 ar
    28   22   23 ar
@<TRIPOS>SUBSTRUCTURE
     1 RES1 1

@<TRIPOS>CRYSIN
   9.2640    8.6210   21.0830  90.0000  91.5300  90.0000 231 1

