# MOL2 file generated by ConQuest
# Please check atom types

@<TRIPOS>MOLECULE
COTZAM
    25    29     1
SMALL
NO_CHARGES
****
Generated from CSD

@<TRIPOS>ATOM
      1 C1         1.1135    5.0267    1.0387 C.3       1 RES1    0.0000
      2 C2         1.9236    3.7737    1.1101 C.ar      1 RES1    0.0000
      3 C3         2.5720    3.2421   -0.0211 C.ar      1 RES1    0.0000
      4 C4         3.3694    2.1056    0.0634 C.ar      1 RES1    0.0000
      5 C5         3.5819    1.4628    1.2555 C.ar      1 RES1    0.0000
      6 C6         2.9517    1.9543    2.3867 C.ar      1 RES1    0.0000
      7 C7         2.9952    1.4850    3.7691 C.ar      1 RES1    0.0000
      8 C8         3.7000    0.4389    4.3717 C.ar      1 RES1    0.0000
      9 C9         3.5583    0.2365    5.7223 C.ar      1 RES1    0.0000
     10 C10        2.7391    1.0409    6.4835 C.ar      1 RES1    0.0000
     11 C11        2.0180    2.0863    5.9020 C.ar      1 RES1    0.0000
     12 C12        2.1688    2.2998    4.5435 C.ar      1 RES1    0.0000
     13 C13        1.5894    3.4238    3.6871 C.3       1 RES1    0.0000
     14 C14        2.1161    3.0879    2.3048 C.ar      1 RES1    0.0000
     15 C15        0.0945    3.6655    3.8695 C.ar      1 RES1    0.0000
     16 C16       -0.3360    4.8369    4.4536 C.ar      1 RES1    0.0000
     17 C17       -1.7201    5.0526    4.6492 C.ar      1 RES1    0.0000
     18 C18       -2.6392    4.1429    4.2580 C.ar      1 RES1    0.0000
     19 C19       -2.2414    2.9493    3.6290 C.ar      1 RES1    0.0000
     20 C20       -3.1932    2.0040    3.1744 C.ar      1 RES1    0.0000
     21 C21       -2.8136    0.8615    2.5638 C.ar      1 RES1    0.0000
     22 C22       -1.4422    0.5724    2.3973 C.ar      1 RES1    0.0000
     23 C23       -0.5013    1.4650    2.8255 C.ar      1 RES1    0.0000
     24 C24       -0.8537    2.6920    3.4440 C.ar      1 RES1    0.0000
     25 C25        0.6194    5.9334    4.8977 C.3       1 RES1    0.0000
@<TRIPOS>BOND
     1    1    2 1
     2    2    3 ar
     3    3    4 ar
     4    4    5 ar
     5    5    6 ar
     6    6    7 1
     7    7    8 ar
     8    8    9 ar
     9    9   10 ar
    10   10   11 ar
    11   11   12 ar
    12   12    7 ar
    13   13   12 1
    14   14    2 ar
    15   15   13 1
    16   16   15 ar
    17   17   16 ar
    18   18   17 ar
    19   19   18 ar
    20   20   19 ar
    21   21   20 ar
    22   22   21 ar
    23   23   22 ar
    24   24   15 ar
    25   25   16 1
    26    6   14 ar
    27   13   14 1
    28   19   24 ar
    29   23   24 ar
@<TRIPOS>SUBSTRUCTURE
     1 RES1 1

@<TRIPOS>CRYSIN
  18.1640    7.4140   26.4310  90.0000  90.0000  90.0000  60 1

