# MOL2 file generated by ConQuest
# Please check atom types

@<TRIPOS>MOLECULE
CRYSEN01
    18    21     1
SMALL
NO_CHARGES
****
Generated from CSD

@<TRIPOS>ATOM
      1 C1         7.9469   11.3778   -4.6109 C.ar      1 RES1    0.0000
      2 C2         8.6803   12.3879   -5.2645 C.ar      1 RES1    0.0000
      3 C3        10.0420   12.3046   -5.3881 C.ar      1 RES1    0.0000
      4 C4        10.7421   11.2199   -4.8672 C.ar      1 RES1    0.0000
      5 C5        10.0678   10.2235   -4.2319 C.ar      1 RES1    0.0000
      6 C6         8.6607   10.2695   -4.0900 C.ar      1 RES1    0.0000
      7 C7         7.9608    9.2289   -3.4298 C.ar      1 RES1    0.0000
      8 C8         6.6359    9.2668   -3.3095 C.ar      1 RES1    0.0000
      9 C9         6.5013   11.4051   -4.4716 C.ar      1 RES1    0.0000
     10 C9F        5.8438   10.3509   -3.8229 C.ar      1 RES1    0.0000
     11 C8F        5.7092   12.4892   -4.9850 C.ar      1 RES1    0.0000
     12 C1F        4.3982   10.3782   -3.6836 C.ar      1 RES1    0.0000
     13 C7F        4.3843   12.5271   -4.8647 C.ar      1 RES1    0.0000
     14 C2F        3.6648    9.3681   -3.0300 C.ar      1 RES1    0.0000
     15 C6F        3.6844   11.4865   -4.2045 C.ar      1 RES1    0.0000
     16 C3F        2.3031    9.4514   -2.9064 C.ar      1 RES1    0.0000
     17 C5F        2.2773   11.5325   -4.0626 C.ar      1 RES1    0.0000
     18 C4F        1.6030   10.5361   -3.4273 C.ar      1 RES1    0.0000
@<TRIPOS>BOND
     1    1    2 ar
     2    2    3 ar
     3    3    4 ar
     4    4    5 ar
     5    5    6 ar
     6    6    1 ar
     7    7    6 ar
     8    8    7 ar
     9    9    1 ar
    10   10    8 ar
    11   11    9 ar
    12   12   10 ar
    13   13   11 ar
    14   14   12 ar
    15   15   12 ar
    16   16   14 ar
    17   17   15 ar
    18   18   16 ar
    19    9   10 ar
    20   13   15 ar
    21   17   18 ar
@<TRIPOS>SUBSTRUCTURE
     1 RES1 1

@<TRIPOS>CRYSIN
  22.8030    6.2160    8.3480  90.0000  96.4900  90.0000  15 1

