# MOL2 file generated by ConQuest
# Please check atom types

@<TRIPOS>MOLECULE
CRYSEN
    30    33     1
SMALL
NO_CHARGES
****
Generated from CSD

@<TRIPOS>ATOM
      1 C1        -0.3599    0.5254    0.2849 C.ar      1 RES1    0.0000
      2 C2        -0.6816    0.4951    1.7141 C.ar      1 RES1    0.0000
      3 C3        -1.4116    1.5100    2.3541 C.ar      1 RES1    0.0000
      4 C4        -1.7089    1.4276    3.6996 C.ar      1 RES1    0.0000
      5 C5        -1.2643    0.3439    4.4526 C.ar      1 RES1    0.0000
      6 C6        -0.5551   -0.6593    3.8669 C.ar      1 RES1    0.0000
      7 C7        -0.2398   -0.6010    2.4762 C.ar      1 RES1    0.0000
      8 C8         0.4989   -1.6426    1.8611 C.ar      1 RES1    0.0000
      9 C9        -0.7954    1.6079   -0.5292 C.ar      1 RES1    0.0000
     10 H1        -1.7567    2.3111    1.8317 H         1 RES1    0.0000
     11 H2        -2.2656    2.1872    4.0931 H         1 RES1    0.0000
     12 H3        -1.4715    0.2416    5.3594 H         1 RES1    0.0000
     13 H4        -0.2104   -1.5056    4.3644 H         1 RES1    0.0000
     14 H5         0.8472   -2.4474    2.4197 H         1 RES1    0.0000
     15 H6        -1.3002    2.3421   -0.1357 H         1 RES1    0.0000
     16 C1D        0.3599   -0.5254   -0.2849 C.ar      1 RES1    0.0000
     17 C9D        0.7954   -1.6079    0.5292 C.ar      1 RES1    0.0000
     18 C8D       -0.4989    1.6426   -1.8611 C.ar      1 RES1    0.0000
     19 C2D        0.6816   -0.4951   -1.7141 C.ar      1 RES1    0.0000
     20 H6D        1.3002   -2.3421    0.1357 H         1 RES1    0.0000
     21 C7D        0.2398    0.6010   -2.4762 C.ar      1 RES1    0.0000
     22 H5D       -0.8472    2.4474   -2.4197 H         1 RES1    0.0000
     23 C3D        1.4116   -1.5100   -2.3541 C.ar      1 RES1    0.0000
     24 C6D        0.5551    0.6593   -3.8669 C.ar      1 RES1    0.0000
     25 C4D        1.7089   -1.4276   -3.6996 C.ar      1 RES1    0.0000
     26 H1D        1.7567   -2.3111   -1.8317 H         1 RES1    0.0000
     27 C5D        1.2643   -0.3439   -4.4526 C.ar      1 RES1    0.0000
     28 H4D        0.2104    1.5056   -4.3644 H         1 RES1    0.0000
     29 H2D        2.2656   -2.1872   -4.0931 H         1 RES1    0.0000
     30 H3D        1.4715   -0.2416   -5.3594 H         1 RES1    0.0000
@<TRIPOS>BOND
     1    1    2 ar
     2    2    3 ar
     3    3    4 ar
     4    4    5 ar
     5    5    6 ar
     6    6    7 ar
     7    7    2 ar
     8    8    7 ar
     9    9    1 ar
    10   10    3 1
    11   11    4 1
    12   12    5 1
    13   13    6 1
    14   14    8 1
    15   15    9 1
    16   16    1 ar
    17   17    8 ar
    18   18    9 ar
    19   19   16 ar
    20   20   17 1
    21   21   18 ar
    22   22   18 1
    23   23   19 ar
    24   24   21 ar
    25   25   23 ar
    26   26   23 1
    27   27   24 ar
    28   28   24 1
    29   29   25 1
    30   30   27 1
    31   16   17 ar
    32   19   21 ar
    33   25   27 ar
@<TRIPOS>SUBSTRUCTURE
     1 RES1 1

