# MOL2 file generated by ConQuest
# Please check atom types

@<TRIPOS>MOLECULE
CRYSEN02
    30    33     1
SMALL
NO_CHARGES
****
Generated from CSD

@<TRIPOS>ATOM
      1 C1         4.6853   -0.0795    3.2499 C.ar      1 RES1    0.0000
      2 C2         5.4534    1.0101    3.7607 C.ar      1 RES1    0.0000
      3 C3         6.8957    1.0385    3.6195 C.ar      1 RES1    0.0000
      4 C4         7.6312    0.0166    2.9741 C.ar      1 RES1    0.0000
      5 C5         8.9931    0.0943    2.8468 C.ar      1 RES1    0.0000
      6 C6         9.7002    1.1901    3.3650 C.ar      1 RES1    0.0000
      7 C7         9.0175    2.1953    3.9932 C.ar      1 RES1    0.0000
      8 C8         7.6152    2.1447    4.1352 C.ar      1 RES1    0.0000
      9 C9         6.9017    3.1949    4.7855 C.ar      1 RES1    0.0000
     10 H1         5.1505   -0.8135    2.7987 H         1 RES1    0.0000
     11 H2         7.1416   -0.7642    2.6029 H         1 RES1    0.0000
     12 H3         9.4922   -0.6225    2.3254 H         1 RES1    0.0000
     13 H4        10.6956    1.2449    3.2719 H         1 RES1    0.0000
     14 H5         9.4898    2.9028    4.3735 H         1 RES1    0.0000
     15 H6         7.4218    3.9382    5.1486 H         1 RES1    0.0000
     16 C1F        5.5518    3.1610    4.9095 C.ar      1 RES1    0.0000
     17 C2F        4.7837    2.0714    4.3988 C.ar      1 RES1    0.0000
     18 C3F        3.3414    2.0430    4.5399 C.ar      1 RES1    0.0000
     19 C4F        2.6059    3.0649    5.1853 C.ar      1 RES1    0.0000
     20 C5F        1.2440    2.9872    5.3126 C.ar      1 RES1    0.0000
     21 C6F        0.5369    1.8914    4.7945 C.ar      1 RES1    0.0000
     22 C7F        1.2196    0.8862    4.1662 C.ar      1 RES1    0.0000
     23 C8F        2.6219    0.9368    4.0242 C.ar      1 RES1    0.0000
     24 C9F        3.3354   -0.1134    3.3739 C.ar      1 RES1    0.0000
     25 H1F        5.0866    3.8950    5.3608 H         1 RES1    0.0000
     26 H2F        3.0955    3.8457    5.5566 H         1 RES1    0.0000
     27 H3F        0.7449    3.7040    5.8340 H         1 RES1    0.0000
     28 H4F       -0.4585    1.8366    4.8875 H         1 RES1    0.0000
     29 H5F        0.7473    0.1787    3.7860 H         1 RES1    0.0000
     30 H6F        2.8153   -0.8567    3.0108 H         1 RES1    0.0000
@<TRIPOS>BOND
     1    1    2 ar
     2    2    3 ar
     3    3    4 ar
     4    4    5 ar
     5    5    6 ar
     6    6    7 ar
     7    7    8 ar
     8    8    3 ar
     9    9    8 ar
    10   10    1 1
    11   11    4 1
    12   12    5 1
    13   13    6 1
    14   14    7 1
    15   15    9 1
    16   16    9 ar
    17   17    2 ar
    18   18   17 ar
    19   19   18 ar
    20   20   19 ar
    21   21   20 ar
    22   22   21 ar
    23   23   18 ar
    24   24    1 ar
    25   25   16 1
    26   26   19 1
    27   27   20 1
    28   28   21 1
    29   29   22 1
    30   30   24 1
    31   16   17 ar
    32   22   23 ar
    33   23   24 ar
@<TRIPOS>SUBSTRUCTURE
     1 RES1 1

@<TRIPOS>CRYSIN
  22.6400    6.1630    8.2310  90.0000  97.5600  90.0000  15 1

