# MOL2 file generated by ConQuest
# Please check atom types

@<TRIPOS>MOLECULE
CUCJIT
    38    41     1
SMALL
NO_CHARGES
****
Generated from CSD

@<TRIPOS>ATOM
      1 C1         1.0017    4.0625    0.1150 C.2       1 RES1    0.0000
      2 C2         1.9943    4.3582    1.1389 C.ar      1 RES1    0.0000
      3 C3         1.6408    5.1190    2.2241 C.ar      1 RES1    0.0000
      4 C4         2.5390    5.4155    3.2261 C.ar      1 RES1    0.0000
      5 C5         3.8351    4.9777    3.1736 C.ar      1 RES1    0.0000
      6 C6         4.2609    4.1608    2.0716 C.ar      1 RES1    0.0000
      7 C7         5.5946    3.6528    1.9816 C.ar      1 RES1    0.0000
      8 C8         5.9541    2.8964    0.9495 C.ar      1 RES1    0.0000
      9 C9         5.0523    2.5639   -0.0444 C.ar      1 RES1    0.0000
     10 C10        3.7871    3.0614   -0.0069 C.ar      1 RES1    0.0000
     11 C11        3.3360    3.8467    1.0489 C.ar      1 RES1    0.0000
     12 H1         1.1463    3.1816   -0.4688 H         1 RES1    0.0000
     13 H2         0.6946    5.3848    2.3316 H         1 RES1    0.0000
     14 H3         2.4556    5.9841    3.8575 H         1 RES1    0.0000
     15 H4         4.5660    5.0962    3.7925 H         1 RES1    0.0000
     16 H5         6.1867    3.9142    2.6773 H         1 RES1    0.0000
     17 H6         6.9228    2.5762    0.8464 H         1 RES1    0.0000
     18 H7         5.3914    2.2524   -0.9895 H         1 RES1    0.0000
     19 H8         3.2269    2.6718   -0.7632 H         1 RES1    0.0000
     20 C1D       -0.1460    4.7118   -0.1150 C.2       1 RES1    0.0000
     21 C2D       -1.1386    4.4161   -1.1389 C.ar      1 RES1    0.0000
     22 H1D       -0.2906    5.5928    0.4688 H         1 RES1    0.0000
     23 C3D       -0.7851    3.6554   -2.2241 C.ar      1 RES1    0.0000
     24 C11D      -2.4803    4.9277   -1.0489 C.ar      1 RES1    0.0000
     25 C4D       -1.6833    3.3588   -3.2261 C.ar      1 RES1    0.0000
     26 H2D        0.1611    3.3895   -2.3316 H         1 RES1    0.0000
     27 C6D       -3.4052    4.6136   -2.0716 C.ar      1 RES1    0.0000
     28 C10D      -2.9314    5.7130    0.0069 C.ar      1 RES1    0.0000
     29 C5D       -2.9794    3.7967   -3.1736 C.ar      1 RES1    0.0000
     30 H3D       -1.5999    2.7903   -3.8575 H         1 RES1    0.0000
     31 C7D       -4.7389    5.1216   -1.9816 C.ar      1 RES1    0.0000
     32 C9D       -4.1966    6.2105    0.0444 C.ar      1 RES1    0.0000
     33 H8D       -2.3712    6.1026    0.7632 H         1 RES1    0.0000
     34 H4D       -3.7103    3.6782   -3.7925 H         1 RES1    0.0000
     35 C8D       -5.0984    5.8780   -0.9495 C.ar      1 RES1    0.0000
     36 H5D       -5.3310    4.8601   -2.6773 H         1 RES1    0.0000
     37 H7D       -4.5357    6.5220    0.9895 H         1 RES1    0.0000
     38 H6D       -6.0671    6.1982   -0.8464 H         1 RES1    0.0000
@<TRIPOS>BOND
     1    1    2 1
     2    2    3 ar
     3    3    4 ar
     4    4    5 ar
     5    5    6 ar
     6    6    7 ar
     7    7    8 ar
     8    8    9 ar
     9    9   10 ar
    10   10   11 ar
    11   11    2 ar
    12   12    1 1
    13   13    3 1
    14   14    4 1
    15   15    5 1
    16   16    7 1
    17   17    8 1
    18   18    9 1
    19   19   10 1
    20   20    1 2
    21   21   20 1
    22   22   20 1
    23   23   21 ar
    24   24   21 ar
    25   25   23 ar
    26   26   23 1
    27   27   24 ar
    28   28   24 ar
    29   29   25 ar
    30   30   25 1
    31   31   27 ar
    32   32   28 ar
    33   33   28 1
    34   34   29 1
    35   35   31 ar
    36   36   31 1
    37   37   32 1
    38   38   35 1
    39    6   11 ar
    40   27   29 ar
    41   32   35 ar
@<TRIPOS>SUBSTRUCTURE
     1 RES1 1

@<TRIPOS>CRYSIN
  27.7750    8.8160    6.2510  90.0000  90.0000  84.4300  15 3

