# MOL2 file generated by ConQuest
# Please check atom types

@<TRIPOS>MOLECULE
CUCJEP
    38    41     1
SMALL
NO_CHARGES
****
Generated from CSD

@<TRIPOS>ATOM
      1 C1        11.9164    2.1902    0.1441 C.2       1 RES1    0.0000
      2 C2        11.0566    2.5924    1.3079 C.ar      1 RES1    0.0000
      3 C3        11.5317    3.4462    2.2466 C.ar      1 RES1    0.0000
      4 C4        10.6946    3.8768    3.2936 C.ar      1 RES1    0.0000
      5 C5         9.4149    3.4113    3.4066 C.ar      1 RES1    0.0000
      6 C6         8.9071    2.4762    2.4718 C.ar      1 RES1    0.0000
      7 C7         7.5822    2.0058    2.5606 C.ar      1 RES1    0.0000
      8 C8         7.1171    1.0862    1.6678 C.ar      1 RES1    0.0000
      9 C9         7.9493    0.6117    0.6341 C.ar      1 RES1    0.0000
     10 C10        9.2214    1.0691    0.4962 C.ar      1 RES1    0.0000
     11 C11        9.7543    2.0164    1.4217 C.ar      1 RES1    0.0000
     12 H1        11.5393    2.3803   -0.6855 H         1 RES1    0.0000
     13 H2        12.5197    3.8020    2.1656 H         1 RES1    0.0000
     14 H3        11.1119    4.6469    4.0274 H         1 RES1    0.0000
     15 H4         8.6984    3.7370    4.0820 H         1 RES1    0.0000
     16 H5         6.9386    2.3478    3.3887 H         1 RES1    0.0000
     17 H6         6.1090    0.7312    1.7138 H         1 RES1    0.0000
     18 H7         7.5671   -0.1625    0.0156 H         1 RES1    0.0000
     19 H8         9.8800    0.7637   -0.2493 H         1 RES1    0.0000
     20 C1A       13.2236    1.8718    0.1441 C.2       1 RES1    0.0000
     21 C2A       14.0834    1.4696    1.3079 C.ar      1 RES1    0.0000
     22 C3A       13.6083    0.6158    2.2466 C.ar      1 RES1    0.0000
     23 C4A       14.4454    0.1852    3.2936 C.ar      1 RES1    0.0000
     24 C5A       15.7251    0.6507    3.4066 C.ar      1 RES1    0.0000
     25 C6A       16.2329    1.5858    2.4718 C.ar      1 RES1    0.0000
     26 C7A       17.5578    2.0562    2.5606 C.ar      1 RES1    0.0000
     27 C8A       18.0229    2.9758    1.6678 C.ar      1 RES1    0.0000
     28 C9A       17.1907    3.4503    0.6341 C.ar      1 RES1    0.0000
     29 C10A      15.9186    2.9929    0.4962 C.ar      1 RES1    0.0000
     30 C11A      15.3857    2.0456    1.4217 C.ar      1 RES1    0.0000
     31 H8A       15.2600    3.2983   -0.2493 H         1 RES1    0.0000
     32 H7A       17.5729    4.2245    0.0156 H         1 RES1    0.0000
     33 H6A       19.0310    3.3308    1.7138 H         1 RES1    0.0000
     34 H5A       18.2014    1.7142    3.3887 H         1 RES1    0.0000
     35 H4A       16.4416    0.3250    4.0820 H         1 RES1    0.0000
     36 H3A       14.0281   -0.5849    4.0274 H         1 RES1    0.0000
     37 H2A       12.6203    0.2600    2.1656 H         1 RES1    0.0000
     38 H1A       13.6007    1.6817   -0.6855 H         1 RES1    0.0000
@<TRIPOS>BOND
     1    1    2 1
     2    2    3 ar
     3    3    4 ar
     4    4    5 ar
     5    5    6 ar
     6    6    7 ar
     7    7    8 ar
     8    8    9 ar
     9    9   10 ar
    10   10   11 ar
    11   11    2 ar
    12   12    1 1
    13   13    3 1
    14   14    4 1
    15   15    5 1
    16   16    7 1
    17   17    8 1
    18   18    9 1
    19   19   10 1
    20   20    1 2
    21   21   20 1
    22   22   21 ar
    23   23   22 ar
    24   24   23 ar
    25   25   24 ar
    26   26   25 ar
    27   27   26 ar
    28   28   27 ar
    29   29   28 ar
    30   30   21 ar
    31   31   29 1
    32   32   28 1
    33   33   27 1
    34   34   26 1
    35   35   24 1
    36   36   23 1
    37   37   22 1
    38   38   20 1
    39    6   11 ar
    40   25   30 ar
    41   29   30 ar
@<TRIPOS>SUBSTRUCTURE
     1 RES1 1

@<TRIPOS>CRYSIN
  25.1400    8.1240    7.7900  90.0000  90.0000  90.0000  60 4

