# MOL2 file generated by ConQuest
# Please check atom types

@<TRIPOS>MOLECULE
CUHBIS
    73    80     1
SMALL
NO_CHARGES
****
Generated from CSD

@<TRIPOS>ATOM
      1 C1        12.4788    0.4865   -0.9896 C.ar      1 RES1    0.0000
      2 C2        11.3859   -0.3399   -1.0899 C.ar      1 RES1    0.0000
      3 H1        11.2133   -0.8406   -1.9493 H         1 RES1    0.0000
      4 C3        10.5122   -0.5389    0.0105 C.ar      1 RES1    0.0000
      5 H2         9.7158   -1.1533   -0.0792 H         1 RES1    0.0000
      6 C4        10.7378    0.0954    1.1935 C.ar      1 RES1    0.0000
      7 H3        10.1171   -0.0298    1.9676 H         1 RES1    0.0000
      8 C5        13.3921    3.2445    3.9181 C.ar      1 RES1    0.0000
      9 H4        12.7601    3.0863    4.6632 H         1 RES1    0.0000
     10 C6        14.4400    4.1056    4.0330 C.ar      1 RES1    0.0000
     11 H5        14.5895    4.6226    4.8718 H         1 RES1    0.0000
     12 C7        15.3424    4.2936    2.9522 C.ar      1 RES1    0.0000
     13 H6        16.1172    4.9421    3.0580 H         1 RES1    0.0000
     14 C8        15.1902    3.6035    1.7740 C.ar      1 RES1    0.0000
     15 C9        13.8579    2.0035    0.4197 C.ar      1 RES1    0.0000
     16 H7        14.5204    2.0751   -0.3305 H         1 RES1    0.0000
     17 C10       12.0824    1.6520    2.5497 C.ar      1 RES1    0.0000
     18 H8        11.4810    1.5107    3.3199 H         1 RES1    0.0000
     19 C11       12.7527    1.1697    0.2539 C.ar      1 RES1    0.0000
     20 C12       11.8466    0.9757    1.3542 C.ar      1 RES1    0.0000
     21 C13       14.0746    2.6991    1.6088 C.ar      1 RES1    0.0000
     22 C14       13.1610    2.5282    2.7047 C.ar      1 RES1    0.0000
     23 C15       13.3504    0.6763   -2.1101 C.1       1 RES1    0.0000
     24 C16       14.1010    0.8646   -3.0285 C.1       1 RES1    0.0000
     25 C17       16.1404    3.7613    0.7147 C.1       1 RES1    0.0000
     26 C18       16.9258    3.8371   -0.1907 C.1       1 RES1    0.0000
     27 C19       17.9357    3.7861   -1.2101 C.ar      1 RES1    0.0000
     28 C20       19.2084    4.1923   -0.8780 C.ar      1 RES1    0.0000
     29 H9        19.3745    4.6267   -0.0213 H         1 RES1    0.0000
     30 C21       20.3042    3.9492   -1.7334 C.ar      1 RES1    0.0000
     31 H10       21.2037    4.2653   -1.4696 H         1 RES1    0.0000
     32 C22       20.1299    3.2377   -2.8814 C.ar      1 RES1    0.0000
     33 H11       20.8727    3.0024   -3.4266 H         1 RES1    0.0000
     34 C23       17.2528    0.4998   -5.8006 C.ar      1 RES1    0.0000
     35 H12       18.0381    0.3181   -6.3901 H         1 RES1    0.0000
     36 C24       16.0470   -0.0910   -6.0414 C.ar      1 RES1    0.0000
     37 C25       14.9696    0.0964   -5.1479 C.ar      1 RES1    0.0000
     38 H13       14.1544   -0.4670   -5.2388 H         1 RES1    0.0000
     39 C26       15.0868    0.9479   -4.0704 C.ar      1 RES1    0.0000
     40 C27       16.4013    2.7485   -2.9115 C.ar      1 RES1    0.0000
     41 C28       18.6833    1.9865   -4.4349 C.ar      1 RES1    0.0000
     42 C29       17.6918    3.1123   -2.4728 C.ar      1 RES1    0.0000
     43 C30       18.8418    2.7615   -3.2695 C.ar      1 RES1    0.0000
     44 C31       16.2981    1.7205   -3.8792 C.ar      1 RES1    0.0000
     45 C32       17.4321    1.3951   -4.6988 C.ar      1 RES1    0.0000
     46 C33       15.1950    3.6066   -2.5795 C.3       1 RES1    0.0000
     47 H14       15.4489    4.3045   -1.9326 H         1 RES1    0.0000
     48 C34       14.6839    4.3133   -3.8364 C.3       1 RES1    0.0000
     49 H15       14.3538    3.6480   -4.5642 H         1 RES1    0.0000
     50 C35       19.8302    1.8095   -5.3847 C.ar      1 RES1    0.0000
     51 C36       20.7669    0.7785   -5.2029 C.ar      1 RES1    0.0000
     52 C37       21.8171    0.6506   -6.1107 C.ar      1 RES1    0.0000
     53 H16       22.4492   -0.1178   -5.9942 H         1 RES1    0.0000
     54 C38       21.9648    1.5136   -7.1897 C.ar      1 RES1    0.0000
     55 C39       21.0424    2.5368   -7.3401 C.ar      1 RES1    0.0000
     56 H17       21.1129    3.2027   -8.0943 H         1 RES1    0.0000
     57 C40       19.9692    2.7017   -6.4593 C.ar      1 RES1    0.0000
     58 C41       18.9885    3.8264   -6.6504 C.3       1 RES1    0.0000
     59 H18       19.0028    4.4548   -5.8571 H         1 RES1    0.0000
     60 H19       18.0289    3.4937   -6.7435 H         1 RES1    0.0000
     61 C42       20.6513   -0.1688   -4.0395 C.3       1 RES1    0.0000
     62 H20       19.7721   -0.6524   -4.0464 H         1 RES1    0.0000
     63 H21       20.7181    0.3113   -3.1783 H         1 RES1    0.0000
     64 C43       23.1149    1.3394   -8.1547 C.3       1 RES1    0.0000
     65 H22       22.9584    1.9844   -8.9380 H         1 RES1    0.0000
     66 H23       14.4145    3.0890   -2.1884 H         1 RES1    0.0000
     67 H24       15.9109   -0.6931   -6.7815 H         1 RES1    0.0000
     68 H25       23.9175    1.5323   -7.7592 H         1 RES1    0.0000
     69 H26       13.9038    4.9069   -3.6139 H         1 RES1    0.0000
     70 H27       15.4136    4.8555   -4.2474 H         1 RES1    0.0000
     71 H28       19.2301    4.3397   -7.4745 H         1 RES1    0.0000
     72 H29       21.3902   -0.9069   -4.0829 H         1 RES1    0.0000
     73 H30       23.1728    0.4142   -8.4826 H         1 RES1    0.0000
@<TRIPOS>BOND
     1    1    2 ar
     2    2    3 1
     3    4    2 ar
     4    5    4 1
     5    6    4 ar
     6    7    6 1
     7    8    9 1
     8   10    8 ar
     9   11   10 1
    10   12   10 ar
    11   13   12 1
    12   14   12 ar
    13   15   16 1
    14   17   18 1
    15   19    1 ar
    16   20    6 ar
    17   21   14 ar
    18   22    8 ar
    19   23    1 1
    20   24   23 3
    21   25   14 1
    22   26   25 3
    23   27   26 1
    24   28   27 ar
    25   29   28 1
    26   30   28 ar
    27   31   30 1
    28   32   30 ar
    29   33   32 1
    30   34   35 1
    31   36   34 ar
    32   37   36 ar
    33   38   37 1
    34   39   24 1
    35   40   42 ar
    36   41   43 ar
    37   42   27 ar
    38   43   32 ar
    39   44   39 ar
    40   45   34 ar
    41   46   40 1
    42   47   46 1
    43   48   46 1
    44   49   48 1
    45   50   41 1
    46   51   50 ar
    47   52   51 ar
    48   53   52 1
    49   54   52 ar
    50   55   54 ar
    51   56   55 1
    52   57   50 ar
    53   58   57 1
    54   59   58 1
    55   60   58 1
    56   61   51 1
    57   62   61 1
    58   63   61 1
    59   64   54 1
    60   65   64 1
    61   66   46 1
    62   67   36 1
    63   68   64 1
    64   69   48 1
    65   70   48 1
    66   71   58 1
    67   72   61 1
    68   73   64 1
    69   15   19 ar
    70   15   21 ar
    71   17   20 ar
    72   17   22 ar
    73   19   20 ar
    74   21   22 ar
    75   37   39 ar
    76   40   44 ar
    77   41   45 ar
    78   42   43 ar
    79   44   45 ar
    80   55   57 ar
@<TRIPOS>SUBSTRUCTURE
     1 RES1 1

@<TRIPOS>CRYSIN
  14.2950   13.5363   16.5590  90.0000 113.1194  90.0000 231 1

