# MOL2 file generated by ConQuest
# Please check atom types

@<TRIPOS>MOLECULE
CUNQAF
    86   101     1
SMALL
NO_CHARGES
****
Generated from CSD

@<TRIPOS>ATOM
      1 C1         4.5396   29.7521    4.9056 C.ar      1 RES1    0.0000
      2 C2         4.3191   30.9438    4.2212 C.ar      1 RES1    0.0000
      3 H1         4.5083   31.7717    4.6467 H         1 RES1    0.0000
      4 C3         3.8186   30.9347    2.9085 C.ar      1 RES1    0.0000
      5 H2         3.6824   31.7558    2.4517 H         1 RES1    0.0000
      6 C4         3.5255   29.7505    2.2785 C.ar      1 RES1    0.0000
      7 H3         3.1573   29.7604    1.4024 H         1 RES1    0.0000
      8 C5         3.7632   28.5223    2.9174 C.ar      1 RES1    0.0000
      9 C6         4.2809   28.5112    4.2421 C.ar      1 RES1    0.0000
     10 C7         3.5273   27.2545    2.2330 C.ar      1 RES1    0.0000
     11 C8         3.1121   27.2120    0.8695 C.ar      1 RES1    0.0000
     12 H4         2.8982   28.0229    0.4224 H         1 RES1    0.0000
     13 C9         3.0175   26.0485    0.2023 C.ar      1 RES1    0.0000
     14 H5         2.7053   26.0434   -0.6956 H         1 RES1    0.0000
     15 C10        3.3734   24.8390    0.8172 C.ar      1 RES1    0.0000
     16 H6         3.3719   24.0281    0.3209 H         1 RES1    0.0000
     17 C11        3.7250   24.8374    2.1442 C.ar      1 RES1    0.0000
     18 H7         3.9541   24.0162    2.5599 H         1 RES1    0.0000
     19 C12        3.7543   26.0267    2.9099 C.ar      1 RES1    0.0000
     20 C13        4.4997   27.2592    4.9310 C.ar      1 RES1    0.0000
     21 C14        4.1287   26.0473    4.3295 C.ar      1 RES1    0.0000
     22 C15        4.2878   24.8152    5.0758 C.ar      1 RES1    0.0000
     23 C16        3.5552   23.5783    4.8519 C.ar      1 RES1    0.0000
     24 C17        2.1652   23.5795    4.3787 C.ar      1 RES1    0.0000
     25 C18        1.3848   24.7636    4.3116 C.ar      1 RES1    0.0000
     26 H8         1.7793   25.5911    4.5593 H         1 RES1    0.0000
     27 C19        0.0699   24.7442    3.8966 C.ar      1 RES1    0.0000
     28 H9        -0.4266   25.5514    3.8481 H         1 RES1    0.0000
     29 C20       -0.5172   23.5509    3.5525 C.ar      1 RES1    0.0000
     30 H10       -1.4168   23.5362    3.2473 H         1 RES1    0.0000
     31 C21        0.1895   22.3810    3.6496 C.ar      1 RES1    0.0000
     32 H11       -0.2381   21.5646    3.4264 H         1 RES1    0.0000
     33 C22        1.5315   22.3560    4.0690 C.ar      1 RES1    0.0000
     34 C23        2.2454   21.1048    4.2347 C.ar      1 RES1    0.0000
     35 C24        1.7282   19.8874    3.7906 C.ar      1 RES1    0.0000
     36 H12        0.9128   19.8747    3.3040 H         1 RES1    0.0000
     37 C25        2.3857   18.6949    4.0474 C.ar      1 RES1    0.0000
     38 H13        2.0214   17.8793    3.7234 H         1 RES1    0.0000
     39 C26        3.5621   18.6762    4.7676 C.ar      1 RES1    0.0000
     40 H14        3.9817   17.8475    4.9601 H         1 RES1    0.0000
     41 C27        4.1447   19.8636    5.2183 C.ar      1 RES1    0.0000
     42 C28        3.4983   21.1048    4.9206 C.ar      1 RES1    0.0000
     43 C29        4.1406   22.3636    5.2572 C.ar      1 RES1    0.0000
     44 C1A        5.0051   29.7521    6.2893 C.ar      1 RES1    0.0000
     45 C2A        5.2256   30.9438    6.9737 C.ar      1 RES1    0.0000
     46 H1A        5.0365   31.7717    6.5483 H         1 RES1    0.0000
     47 C3A        5.7262   30.9347    8.2865 C.ar      1 RES1    0.0000
     48 H2A        5.8624   31.7558    8.7433 H         1 RES1    0.0000
     49 C4A        6.0192   29.7505    8.9164 C.ar      1 RES1    0.0000
     50 H3A        6.3874   29.7604    9.7926 H         1 RES1    0.0000
     51 C5A        5.7815   28.5223    8.2776 C.ar      1 RES1    0.0000
     52 C6A        5.2638   28.5112    6.9528 C.ar      1 RES1    0.0000
     53 C7A        6.0175   27.2545    8.9619 C.ar      1 RES1    0.0000
     54 C8A        6.4327   27.2120   10.3255 C.ar      1 RES1    0.0000
     55 H4A        6.6465   28.0229   10.7725 H         1 RES1    0.0000
     56 C9A        6.5273   26.0485   10.9927 C.ar      1 RES1    0.0000
     57 H5A        6.8394   26.0434   11.8905 H         1 RES1    0.0000
     58 C10A       6.1713   24.8390   10.3777 C.ar      1 RES1    0.0000
     59 H6A        6.1729   24.0281   10.8740 H         1 RES1    0.0000
     60 C11A       5.8198   24.8374    9.0508 C.ar      1 RES1    0.0000
     61 H7A        5.5907   24.0162    8.6350 H         1 RES1    0.0000
     62 C12A       5.7905   26.0267    8.2850 C.ar      1 RES1    0.0000
     63 C13A       5.0451   27.2592    6.2640 C.ar      1 RES1    0.0000
     64 C14A       5.4160   26.0473    6.8655 C.ar      1 RES1    0.0000
     65 C15A       5.2570   24.8152    6.1192 C.ar      1 RES1    0.0000
     66 C16A       5.9896   23.5783    6.3431 C.ar      1 RES1    0.0000
     67 C17A       7.3796   23.5795    6.8162 C.ar      1 RES1    0.0000
     68 C18A       8.1599   24.7636    6.8834 C.ar      1 RES1    0.0000
     69 H8A        7.7655   25.5911    6.6356 H         1 RES1    0.0000
     70 C19A       9.4749   24.7442    7.2984 C.ar      1 RES1    0.0000
     71 H9A        9.9714   25.5514    7.3469 H         1 RES1    0.0000
     72 C20A      10.0619   23.5509    7.6424 C.ar      1 RES1    0.0000
     73 H10A      10.9616   23.5362    7.9477 H         1 RES1    0.0000
     74 C21A       9.3553   22.3810    7.5454 C.ar      1 RES1    0.0000
     75 H11A       9.7829   21.5646    7.7686 H         1 RES1    0.0000
     76 C22A       8.0133   22.3560    7.1260 C.ar      1 RES1    0.0000
     77 C23A       7.2993   21.1048    6.9603 C.ar      1 RES1    0.0000
     78 C24A       7.8165   19.8874    7.4043 C.ar      1 RES1    0.0000
     79 H12A       8.6320   19.8747    7.8910 H         1 RES1    0.0000
     80 C25A       7.1591   18.6949    7.1476 C.ar      1 RES1    0.0000
     81 H13A       7.5233   17.8793    7.4715 H         1 RES1    0.0000
     82 C26A       5.9826   18.6762    6.4274 C.ar      1 RES1    0.0000
     83 H14A       5.5631   17.8475    6.2348 H         1 RES1    0.0000
     84 C27A       5.4000   19.8636    5.9766 C.ar      1 RES1    0.0000
     85 C28A       6.0464   21.1048    6.2744 C.ar      1 RES1    0.0000
     86 C29A       5.4042   22.3636    5.9378 C.ar      1 RES1    0.0000
@<TRIPOS>BOND
     1    1    2 ar
     2    2    3 1
     3    4    2 ar
     4    5    4 1
     5    6    4 ar
     6    7    6 1
     7    8    6 ar
     8    9    1 ar
     9   10    8 ar
    10   11   10 ar
    11   12   11 1
    12   13   11 ar
    13   14   13 1
    14   15   13 ar
    15   16   15 1
    16   17   15 ar
    17   18   17 1
    18   19   10 ar
    19   20    9 ar
    20   21   19 ar
    21   22   21 ar
    22   23   22 ar
    23   24   23 ar
    24   25   24 ar
    25   26   25 1
    26   27   25 ar
    27   28   27 1
    28   29   27 ar
    29   30   29 1
    30   31   29 ar
    31   32   31 1
    32   33   24 ar
    33   34   33 ar
    34   35   34 ar
    35   36   35 1
    36   37   35 ar
    37   38   37 1
    38   39   37 ar
    39   40   39 1
    40   41   39 ar
    41   42   34 ar
    42   43   23 ar
    43   44    1 ar
    44   45   44 ar
    45   46   45 1
    46   47   45 ar
    47   48   47 1
    48   49   47 ar
    49   50   49 1
    50   51   49 ar
    51   52   44 ar
    52   53   51 ar
    53   54   53 ar
    54   55   54 1
    55   56   54 ar
    56   57   56 1
    57   58   56 ar
    58   59   58 1
    59   60   58 ar
    60   61   60 1
    61   62   53 ar
    62   63   20 ar
    63   64   62 ar
    64   65   22 ar
    65   66   65 ar
    66   67   66 ar
    67   68   67 ar
    68   69   68 1
    69   70   68 ar
    70   71   70 1
    71   72   70 ar
    72   73   72 1
    73   74   72 ar
    74   75   74 1
    75   76   67 ar
    76   77   76 ar
    77   78   77 ar
    78   79   78 1
    79   80   78 ar
    80   81   80 1
    81   82   80 ar
    82   83   82 1
    83   84   41 ar
    84   85   77 ar
    85   86   43 ar
    86    8    9 ar
    87   17   19 ar
    88   20   21 ar
    89   31   33 ar
    90   41   42 ar
    91   42   43 ar
    92   51   52 ar
    93   52   63 ar
    94   60   62 ar
    95   63   64 ar
    96   64   65 ar
    97   66   86 ar
    98   74   76 ar
    99   82   84 ar
   100   84   85 ar
   101   85   86 ar
@<TRIPOS>SUBSTRUCTURE
     1 RES1 1

@<TRIPOS>CRYSIN
  11.0560   39.6700    7.5310  90.0000  97.6880  90.0000  15 1

