# MOL2 file generated by ConQuest
# Please check atom types

@<TRIPOS>MOLECULE
CUYJOX
   104   116     2
SMALL
NO_CHARGES
****
Generated from CSD

@<TRIPOS>ATOM
      1 C1         1.2533    6.7775    7.6262 C.ar      1 RES1    0.0000
      2 C2         1.0890    8.0483    8.1193 C.ar      1 RES1    0.0000
      3 H1         1.7413    8.7443    7.8536 H         1 RES1    0.0000
      4 C3         0.0022    8.3850    8.9580 C.ar      1 RES1    0.0000
      5 H2        -0.0967    9.3400    9.2159 H         1 RES1    0.0000
      6 C4        -0.8935    7.4415    9.3486 C.ar      1 RES1    0.0000
      7 H3        -1.6732    7.6709    9.9321 H         1 RES1    0.0000
      8 C5        -2.3045    2.7098    9.4680 C.ar      1 RES1    0.0000
      9 H4        -3.0280    2.9291   10.1026 H         1 RES1    0.0000
     10 C6        -2.1199    1.4156    9.0823 C.ar      1 RES1    0.0000
     11 H5        -2.7277    0.6990    9.4221 H         1 RES1    0.0000
     12 C7        -1.0599    1.0641    8.2102 C.ar      1 RES1    0.0000
     13 H6        -0.9461    0.0919    7.9595 H         1 RES1    0.0000
     14 C8        -0.1609    1.9989    7.7450 C.ar      1 RES1    0.0000
     15 C9         0.4677    4.4177    7.6378 C.ar      1 RES1    0.0000
     16 H7         1.1810    4.1998    6.9862 H         1 RES1    0.0000
     17 C10       -1.6089    5.0792    9.3659 C.ar      1 RES1    0.0000
     18 H8        -2.3443    5.2824    9.9803 H         1 RES1    0.0000
     19 C11        0.3184    5.7456    8.0326 C.ar      1 RES1    0.0000
     20 C12       -0.7461    6.0829    8.9275 C.ar      1 RES1    0.0000
     21 C13       -0.3505    3.3864    8.1173 C.ar      1 RES1    0.0000
     22 C14       -1.4295    3.7387    8.9975 C.ar      1 RES1    0.0000
     23 C15        2.3617    6.4239    6.7249 C.2       1 RES1    0.0000
     24 H9         2.1413    5.8137    5.9579 H         1 RES1    0.0000
     25 C16        0.9520    1.5778    6.8714 C.2       1 RES1    0.0000
     26 H10        0.6881    0.9552    6.1160 H         1 RES1    0.0000
     27 C17        1.3694    7.2088    0.7937 C.ar      2 RES2    0.0000
     28 C18        2.2636    8.1584    1.2034 C.ar      2 RES2    0.0000
     29 H11        2.1352    9.0811    0.8894 H         2 RES2    0.0000
     30 C19        3.3516    7.8415    2.0575 C.ar      2 RES2    0.0000
     31 H12        3.9560    8.5666    2.3219 H         2 RES2    0.0000
     32 C20        3.5445    6.5742    2.4971 C.ar      2 RES2    0.0000
     33 H13        4.3095    6.3774    3.0931 H         2 RES2    0.0000
     34 C21        2.2039    1.8250    2.5578 C.ar      2 RES2    0.0000
     35 H14        2.9817    1.6167    3.1412 H         2 RES2    0.0000
     36 C22        1.3400    0.8454    2.1727 C.ar      2 RES2    0.0000
     37 H15        1.4880   -0.0784    2.5019 H         2 RES2    0.0000
     38 C23        0.2540    1.1365    1.3044 C.ar      2 RES2    0.0000
     39 H16       -0.3681    0.3997    1.0585 H         2 RES2    0.0000
     40 C24        0.0495    2.3969    0.8093 C.ar      2 RES2    0.0000
     41 C25        0.7692    4.7757    0.7645 C.ar      2 RES2    0.0000
     42 H17        0.0288    4.9891    0.1086 H         2 RES2    0.0000
     43 C26        2.8668    4.2056    2.5048 C.ar      2 RES2    0.0000
     44 H18        3.6487    3.9859    3.1054 H         2 RES2    0.0000
     45 C27        1.5745    5.8319    1.2033 C.ar      2 RES2    0.0000
     46 C28        2.6703    5.5250    2.0836 C.ar      2 RES2    0.0000
     47 C29        0.9501    3.4644    1.1960 C.ar      2 RES2    0.0000
     48 C30        2.0235    3.1685    2.1038 C.ar      2 RES2    0.0000
     49 C31       -1.0781    2.7048   -0.0991 C.2       2 RES2    0.0000
     50 H19       -0.8214    3.2657   -0.8949 H         2 RES2    0.0000
     51 C32        0.2357    7.5928   -0.0810 C.2       2 RES2    0.0000
     52 H20        0.4542    8.2007   -0.8248 H         2 RES2    0.0000
     53 C1A        3.3324    1.5958    6.1207 C.ar      1 RES1    0.0000
     54 C2A        3.4967    0.3251    5.6276 C.ar      1 RES1    0.0000
     55 H1A        2.8444   -0.3710    5.8933 H         1 RES1    0.0000
     56 C3A        4.5835   -0.0117    4.7889 C.ar      1 RES1    0.0000
     57 H2A        4.6824   -0.9666    4.5310 H         1 RES1    0.0000
     58 C4A        5.4792    0.9319    4.3983 C.ar      1 RES1    0.0000
     59 H3A        6.2589    0.7024    3.8148 H         1 RES1    0.0000
     60 C5A        6.8903    5.6636    4.2789 C.ar      1 RES1    0.0000
     61 H4A        7.6137    5.4442    3.6443 H         1 RES1    0.0000
     62 C6A        6.7057    6.9577    4.6646 C.ar      1 RES1    0.0000
     63 H5A        7.3135    7.6743    4.3248 H         1 RES1    0.0000
     64 C7A        5.6456    7.3093    5.5367 C.ar      1 RES1    0.0000
     65 H6A        5.5318    8.2815    5.7874 H         1 RES1    0.0000
     66 C8A        4.7466    6.3745    6.0019 C.ar      1 RES1    0.0000
     67 C9A        4.1180    3.9557    6.1091 C.ar      1 RES1    0.0000
     68 H7A        3.4047    4.1736    6.7607 H         1 RES1    0.0000
     69 C10A       6.1947    3.2941    4.3810 C.ar      1 RES1    0.0000
     70 H8A        6.9300    3.0910    3.7667 H         1 RES1    0.0000
     71 C11A       4.2674    2.6278    5.7143 C.ar      1 RES1    0.0000
     72 C12A       5.3318    2.2904    4.8194 C.ar      1 RES1    0.0000
     73 C13A       4.9363    4.9869    5.6296 C.ar      1 RES1    0.0000
     74 C14A       6.0153    4.6346    4.7494 C.ar      1 RES1    0.0000
     75 C15A       2.2240    1.9494    7.0221 C.2       1 RES1    0.0000
     76 H9A        2.4445    2.5596    7.7890 H         1 RES1    0.0000
     77 C16A       3.6338    6.7956    6.8755 C.2       1 RES1    0.0000
     78 H10A       3.8976    7.4181    7.6309 H         1 RES1    0.0000
     79 C17A      -3.4732    2.7126   -0.7937 C.ar      2 RES2    0.0000
     80 C18A      -4.3673    1.7630   -1.2034 C.ar      2 RES2    0.0000
     81 H11A      -4.2389    0.8403   -0.8894 H         2 RES2    0.0000
     82 C19A      -5.4554    2.0799   -2.0575 C.ar      2 RES2    0.0000
     83 H12A      -6.0598    1.3548   -2.3219 H         2 RES2    0.0000
     84 C20A      -5.6483    3.3472   -2.4971 C.ar      2 RES2    0.0000
     85 H13A      -6.4133    3.5440   -3.0931 H         2 RES2    0.0000
     86 C21A      -4.3077    8.0964   -2.5578 C.ar      2 RES2    0.0000
     87 H14A      -5.0854    8.3047   -3.1412 H         2 RES2    0.0000
     88 C22A      -3.4438    9.0760   -2.1727 C.ar      2 RES2    0.0000
     89 H15A      -3.5918    9.9998   -2.5019 H         2 RES2    0.0000
     90 C23A      -2.3578    8.7849   -1.3044 C.ar      2 RES2    0.0000
     91 H16A      -1.7357    9.5217   -1.0585 H         2 RES2    0.0000
     92 C24A      -2.1533    7.5245   -0.8093 C.ar      2 RES2    0.0000
     93 C25A      -2.8730    5.1457   -0.7645 C.ar      2 RES2    0.0000
     94 H17A      -2.1326    4.9323   -0.1086 H         2 RES2    0.0000
     95 C26A      -4.9706    5.7158   -2.5048 C.ar      2 RES2    0.0000
     96 H18A      -5.7525    5.9355   -3.1054 H         2 RES2    0.0000
     97 C27A      -3.6783    4.0895   -1.2033 C.ar      2 RES2    0.0000
     98 C28A      -4.7741    4.3964   -2.0836 C.ar      2 RES2    0.0000
     99 C29A      -3.0539    6.4570   -1.1960 C.ar      2 RES2    0.0000
    100 C30A      -4.1273    6.7529   -2.1038 C.ar      2 RES2    0.0000
    101 C31A      -1.0257    7.2166    0.0991 C.2       2 RES2    0.0000
    102 H19A      -1.2824    6.6557    0.8949 H         2 RES2    0.0000
    103 C32A      -2.3395    2.3286    0.0810 C.2       2 RES2    0.0000
    104 H20A      -2.5580    1.7207    0.8248 H         2 RES2    0.0000
@<TRIPOS>BOND
     1    1    2 ar
     2    2    3 1
     3    4    2 ar
     4    5    4 1
     5    6    4 ar
     6    7    6 1
     7    8    9 1
     8   10    8 ar
     9   11   10 1
    10   12   10 ar
    11   13   12 1
    12   14   12 ar
    13   15   16 1
    14   17   18 1
    15   19    1 ar
    16   20    6 ar
    17   21   14 ar
    18   22    8 ar
    19   23    1 1
    20   24   23 1
    21   25   14 1
    22   26   25 1
    23   27   28 ar
    24   28   29 1
    25   30   28 ar
    26   31   30 1
    27   32   30 ar
    28   33   32 1
    29   34   35 1
    30   36   34 ar
    31   37   36 1
    32   38   36 ar
    33   39   38 1
    34   40   38 ar
    35   41   42 1
    36   43   44 1
    37   45   27 ar
    38   46   32 ar
    39   47   40 ar
    40   48   34 ar
    41   49   40 1
    42   50   49 1
    43   51   27 1
    44   52   51 1
    45   53   54 ar
    46   54   55 1
    47   56   54 ar
    48   57   56 1
    49   58   56 ar
    50   59   58 1
    51   60   61 1
    52   62   60 ar
    53   63   62 1
    54   64   62 ar
    55   65   64 1
    56   66   64 ar
    57   67   68 1
    58   69   70 1
    59   71   53 ar
    60   72   58 ar
    61   73   66 ar
    62   74   60 ar
    63   75   25 2
    64   76   75 1
    65   77   23 2
    66   78   77 1
    67   79   80 ar
    68   80   81 1
    69   82   80 ar
    70   83   82 1
    71   84   82 ar
    72   85   84 1
    73   86   87 1
    74   88   86 ar
    75   89   88 1
    76   90   88 ar
    77   91   90 1
    78   92   90 ar
    79   93   94 1
    80   95   96 1
    81   97   79 ar
    82   98   84 ar
    83   99   92 ar
    84  100   86 ar
    85  101   51 2
    86  102  101 1
    87  103   49 2
    88  104  103 1
    89   15   19 ar
    90   15   21 ar
    91   17   20 ar
    92   17   22 ar
    93   19   20 ar
    94   21   22 ar
    95   41   45 ar
    96   41   47 ar
    97   43   46 ar
    98   43   48 ar
    99   45   46 ar
   100   47   48 ar
   101   53   75 1
   102   66   77 1
   103   67   71 ar
   104   67   73 ar
   105   69   72 ar
   106   69   74 ar
   107   71   72 ar
   108   73   74 ar
   109   79  103 1
   110   92  101 1
   111   93   97 ar
   112   93   99 ar
   113   95   98 ar
   114   95  100 ar
   115   97   98 ar
   116   99  100 ar
@<TRIPOS>SUBSTRUCTURE
     1 RES1 1
     2 RES2 27

@<TRIPOS>CRYSIN
   7.2940   10.1420   13.8470  95.7570  92.5020 101.9720   2 1

