# MOL2 file generated by ConQuest
# Please check atom types

@<TRIPOS>MOLECULE
CUYYUS
    68    74     1
SMALL
NO_CHARGES
****
Generated from CSD

@<TRIPOS>ATOM
      1 C1         9.5142    4.8871    5.4976 C.3       1 RES1    0.0000
      2 H1         9.6620    5.6886    6.0046 H         1 RES1    0.0000
      3 H2        10.2665    4.3000    5.6029 H         1 RES1    0.0000
      4 H3         8.7203    4.4496    5.8132 H         1 RES1    0.0000
      5 C2         9.3483    5.2434    4.0165 C.3       1 RES1    0.0000
      6 C3         8.1610    6.1780    3.7776 C.ar      1 RES1    0.0000
      7 C4         7.5659    6.2482    2.5099 C.ar      1 RES1    0.0000
      8 H4         7.8967    5.7018    1.8336 H         1 RES1    0.0000
      9 C5         6.5038    7.0967    2.2170 C.ar      1 RES1    0.0000
     10 C6         5.9425    7.2332    0.8682 C.ar      1 RES1    0.0000
     11 C7         4.9222    8.1631    0.6036 C.ar      1 RES1    0.0000
     12 C8         4.6197    8.4864   -0.7758 C.ar      1 RES1    0.0000
     13 C9         5.1397    7.6748   -1.8181 C.ar      1 RES1    0.0000
     14 C10        4.7736    7.9349   -3.2001 C.ar      1 RES1    0.0000
     15 C11        3.9442    9.0370   -3.5053 C.ar      1 RES1    0.0000
     16 C12        3.5009    9.2392   -4.8305 C.ar      1 RES1    0.0000
     17 H5         2.9534    9.9643   -5.0261 H         1 RES1    0.0000
     18 C13        3.8658    8.3814   -5.8269 C.ar      1 RES1    0.0000
     19 H6         3.5428    8.5053   -6.6897 H         1 RES1    0.0000
     20 C14       10.6155    5.9612    3.5242 C.3       1 RES1    0.0000
     21 H7        10.5434    6.1265    2.5817 H         1 RES1    0.0000
     22 H8        11.3827    5.4091    3.6949 H         1 RES1    0.0000
     23 H9        10.7118    6.7955    3.9896 H         1 RES1    0.0000
     24 C15        5.9805    7.9035    3.2564 C.ar      1 RES1    0.0000
     25 C16        4.8222    8.7051    3.0332 C.ar      1 RES1    0.0000
     26 C17        4.2132    8.7749    1.7393 C.ar      1 RES1    0.0000
     27 C18        3.8918    9.6626   -1.1614 C.ar      1 RES1    0.0000
     28 H10        3.6274   10.2658   -0.5037 H         1 RES1    0.0000
     29 C19        3.5787    9.9214   -2.4504 C.ar      1 RES1    0.0000
     30 H11        3.1117   10.6993   -2.6547 H         1 RES1    0.0000
     31 C20        4.7262    7.3163   -5.5492 C.ar      1 RES1    0.0000
     32 H12        4.9990    6.7514   -6.2363 H         1 RES1    0.0000
     33 C21        5.1713    7.0958   -4.2697 C.ar      1 RES1    0.0000
     34 H13        5.7441    6.3817   -4.1017 H         1 RES1    0.0000
     35 C22        6.0269    6.6297   -1.4801 C.ar      1 RES1    0.0000
     36 H14        6.3286    6.0517   -2.1434 H         1 RES1    0.0000
     37 C23        6.4458    6.4561   -0.1996 C.ar      1 RES1    0.0000
     38 H15        7.0846    5.8052   -0.0201 H         1 RES1    0.0000
     39 C24        2.9529    9.3570    1.6583 C.ar      1 RES1    0.0000
     40 H16        2.4912    9.3019    0.8526 H         1 RES1    0.0000
     41 C25        2.3434   10.0237    2.7319 C.ar      1 RES1    0.0000
     42 C26        3.0278   10.0728    3.9325 C.ar      1 RES1    0.0000
     43 H17        2.6759   10.5695    4.6344 H         1 RES1    0.0000
     44 C27        4.2309    9.3963    4.1168 C.ar      1 RES1    0.0000
     45 C28        4.8906    9.3673    5.3939 C.ar      1 RES1    0.0000
     46 H18        4.5338    9.8543    6.1003 H         1 RES1    0.0000
     47 C29        6.0113    8.6521    5.5910 C.ar      1 RES1    0.0000
     48 H19        6.4274    8.6748    6.4227 H         1 RES1    0.0000
     49 C30        6.5757    7.8575    4.5451 C.ar      1 RES1    0.0000
     50 C31        7.6625    7.0116    4.7689 C.ar      1 RES1    0.0000
     51 H20        8.0643    7.0067    5.6079 H         1 RES1    0.0000
     52 C32        0.9694   10.6703    2.5295 C.3       1 RES1    0.0000
     53 C33       -0.0465    9.5924    2.1512 C.3       1 RES1    0.0000
     54 H21       -0.9059    9.9973    2.0124 H         1 RES1    0.0000
     55 H22       -0.1070    8.9476    2.8600 H         1 RES1    0.0000
     56 H23        0.2353    9.1567    1.3437 H         1 RES1    0.0000
     57 C34        1.0670   11.7167    1.4064 C.3       1 RES1    0.0000
     58 H24        1.3551   11.2913    0.5957 H         1 RES1    0.0000
     59 H25        1.7001   12.3938    1.6548 H         1 RES1    0.0000
     60 H26        0.2060   12.1187    1.2682 H         1 RES1    0.0000
     61 C35        0.4767   11.3824    3.7905 C.3       1 RES1    0.0000
     62 H27       -0.3722   11.7952    3.6143 H         1 RES1    0.0000
     63 H28        1.1118   12.0549    4.0476 H         1 RES1    0.0000
     64 H29        0.3810   10.7455    4.5022 H         1 RES1    0.0000
     65 C36        9.1615    3.9210    3.2518 C.3       1 RES1    0.0000
     66 H30        8.2881    3.5672    3.4343 H         1 RES1    0.0000
     67 H31        9.8283    3.2899    3.5337 H         1 RES1    0.0000
     68 H32        9.2506    4.0799    2.3097 H         1 RES1    0.0000
@<TRIPOS>BOND
     1    1    2 1
     2    3    1 1
     3    4    1 1
     4    5    1 1
     5    6    5 1
     6    7    6 ar
     7    8    7 1
     8    9    7 ar
     9   10    9 ar
    10   11   10 ar
    11   12   11 ar
    12   13   12 ar
    13   14   13 ar
    14   15   14 ar
    15   16   15 ar
    16   17   16 1
    17   18   16 ar
    18   19   18 1
    19   20    5 1
    20   21   20 1
    21   22   20 1
    22   23   20 1
    23   24    9 ar
    24   25   24 ar
    25   26   11 ar
    26   27   12 ar
    27   28   27 1
    28   29   15 ar
    29   30   29 1
    30   31   18 ar
    31   32   31 1
    32   33   14 ar
    33   34   33 1
    34   35   13 ar
    35   36   35 1
    36   37   10 ar
    37   38   37 1
    38   39   26 ar
    39   40   39 1
    40   41   39 ar
    41   42   41 ar
    42   43   42 1
    43   44   25 ar
    44   45   44 ar
    45   46   45 1
    46   47   45 ar
    47   48   47 1
    48   49   24 ar
    49   50    6 ar
    50   51   50 1
    51   52   41 1
    52   53   52 1
    53   54   53 1
    54   55   53 1
    55   56   53 1
    56   57   52 1
    57   58   57 1
    58   59   57 1
    59   60   57 1
    60   61   52 1
    61   62   61 1
    62   63   61 1
    63   64   61 1
    64   65    5 1
    65   66   65 1
    66   67   65 1
    67   68   65 1
    68   25   26 ar
    69   27   29 ar
    70   31   33 ar
    71   35   37 ar
    72   42   44 ar
    73   47   49 ar
    74   49   50 ar
@<TRIPOS>SUBSTRUCTURE
     1 RES1 1

@<TRIPOS>CRYSIN
   9.1420   22.0060   12.7490  90.0000  98.9570  90.0000  14 1

