# MOL2 file generated by ConQuest
# Please check atom types

@<TRIPOS>MOLECULE
DACXIQ
    30    32     1
SMALL
NO_CHARGES
****
Generated from CSD

@<TRIPOS>ATOM
      1 C1         1.7870   -0.5112   -1.4648 C.ar      1 RES1    0.0000
      2 H1         0.9135   -0.2413   -1.7231 H         1 RES1    0.0000
      3 C2         2.4439   -1.4654   -2.2012 C.ar      1 RES1    0.0000
      4 H2         2.0214   -1.8463   -2.9618 H         1 RES1    0.0000
      5 C3         3.7365   -1.8835   -1.8384 C.ar      1 RES1    0.0000
      6 C4         4.3312   -1.3144   -0.7347 C.ar      1 RES1    0.0000
      7 H3         5.2032   -1.5977   -0.4844 H         1 RES1    0.0000
      8 C5         3.6874   -0.3224    0.0382 C.ar      1 RES1    0.0000
      9 C6         4.3126    0.3157    1.1856 C.ar      1 RES1    0.0000
     10 C7         5.6355    0.0212    1.5830 C.ar      1 RES1    0.0000
     11 H4         6.1324   -0.6265    1.0979 H         1 RES1    0.0000
     12 C8         6.2205    0.6492    2.6542 C.ar      1 RES1    0.0000
     13 H5         7.1147    0.4402    2.8948 H         1 RES1    0.0000
     14 C9         5.5012    1.5982    3.3926 C.ar      1 RES1    0.0000
     15 H6         5.9056    2.0283    4.1368 H         1 RES1    0.0000
     16 C10        4.2153    1.9037    3.0376 C.ar      1 RES1    0.0000
     17 H7         3.7354    2.5491    3.5434 H         1 RES1    0.0000
     18 C11        3.5851    1.2825    1.9367 C.ar      1 RES1    0.0000
     19 C12        2.2341    1.6300    1.5525 C.ar      1 RES1    0.0000
     20 C13        1.6911    1.0547    0.4501 C.ar      1 RES1    0.0000
     21 H8         0.8160    1.3115    0.1861 H         1 RES1    0.0000
     22 C14        2.3860    0.0753   -0.3317 C.ar      1 RES1    0.0000
     23 C15        4.4471   -2.9405   -2.6475 C.3       1 RES1    0.0000
     24 H9         5.3403   -3.0911   -2.2746 H         1 RES1    0.0000
     25 H10        4.5266   -2.6413   -3.5770 H         1 RES1    0.0000
     26 H11        3.9342   -3.7756   -2.6148 H         1 RES1    0.0000
     27 C16        1.4520    2.6282    2.3632 C.3       1 RES1    0.0000
     28 H12        0.5487    2.7151    1.9913 H         1 RES1    0.0000
     29 H13        1.9029    3.4981    2.3332 H         1 RES1    0.0000
     30 H14        1.3955    2.3213    3.2920 H         1 RES1    0.0000
@<TRIPOS>BOND
     1    1    2 1
     2    3    1 ar
     3    4    3 1
     4    5    3 ar
     5    6    5 ar
     6    7    6 1
     7    8    6 ar
     8    9    8 ar
     9   10    9 ar
    10   11   10 1
    11   12   10 ar
    12   13   12 1
    13   14   12 ar
    14   15   14 1
    15   16   14 ar
    16   17   16 1
    17   18    9 ar
    18   19   18 ar
    19   20   19 ar
    20   21   20 1
    21   22    1 ar
    22   23    5 1
    23   24   23 1
    24   25   23 1
    25   26   23 1
    26   27   19 1
    27   28   27 1
    28   29   27 1
    29   30   27 1
    30    8   22 ar
    31   16   18 ar
    32   20   22 ar
@<TRIPOS>SUBSTRUCTURE
     1 RES1 1

@<TRIPOS>CRYSIN
  13.5583    4.8269   17.3642  90.0000 105.1360  90.0000 231 1

