# MOL2 file generated by ConQuest
# Please check atom types

@<TRIPOS>MOLECULE
DACXEM
    54    58     2
SMALL
NO_CHARGES
****
Generated from CSD

@<TRIPOS>ATOM
      1 C1         2.3743    2.9812    0.5411 C.ar      1 RES1    0.0000
      2 H1         2.3765    2.2951   -0.1014 H         1 RES1    0.0000
      3 C2        16.0122    5.3040    2.0200 C.ar      2 RES2    0.0000
      4 H2        16.4666    5.9480    1.5071 H         2 RES2    0.0000
      5 C3         1.3631    3.8993    0.5443 C.ar      1 RES1    0.0000
      6 H3         0.6682    3.8401   -0.0861 H         1 RES1    0.0000
      7 C4        16.7238    4.3771    2.7225 C.ar      2 RES2    0.0000
      8 H4        17.6638    4.3876    2.6967 H         2 RES2    0.0000
      9 C5         1.3705    4.9145    1.4799 C.ar      1 RES1    0.0000
     10 H5         0.6871    5.5592    1.4669 H         1 RES1    0.0000
     11 C6        16.0646    3.4225    3.4736 C.ar      2 RES2    0.0000
     12 H6        16.5582    2.7818    3.9533 H         2 RES2    0.0000
     13 C7         2.3524    4.9974    2.4200 C.ar      1 RES1    0.0000
     14 H7         2.3283    5.6901    3.0563 H         1 RES1    0.0000
     15 C8        14.7064    3.4065    3.5237 C.ar      2 RES2    0.0000
     16 H8        14.2743    2.7558    4.0470 H         2 RES2    0.0000
     17 C9         4.4816    5.0173    4.4966 C.ar      1 RES1    0.0000
     18 H9         3.8042    5.6680    4.5385 H         1 RES1    0.0000
     19 C10       11.7377    3.4347    3.5742 C.ar      2 RES2    0.0000
     20 H10       12.1931    2.7862    4.0795 H         2 RES2    0.0000
     21 C11        5.4558    5.0134    5.4546 C.ar      1 RES1    0.0000
     22 H11        5.4441    5.6547    6.1412 H         1 RES1    0.0000
     23 C12       10.3628    3.4474    3.5916 C.ar      2 RES2    0.0000
     24 H12        9.8897    2.8166    4.1024 H         2 RES2    0.0000
     25 C13        6.4588    4.0633    5.4106 C.ar      1 RES1    0.0000
     26 H13        7.1262    4.0539    6.0724 H         1 RES1    0.0000
     27 C14        9.6805    4.3953    2.8507 C.ar      2 RES2    0.0000
     28 H14        8.7405    4.4074    2.8593 H         2 RES2    0.0000
     29 C15        6.4791    3.1309    4.4002 C.ar      1 RES1    0.0000
     30 H15        7.1696    2.4929    4.3778 H         1 RES1    0.0000
     31 C16       10.3694    5.3183    2.1038 C.ar      2 RES2    0.0000
     32 H16        9.8933    5.9585    1.6065 H         2 RES2    0.0000
     33 C17        5.5085    2.1256    2.3415 C.ar      1 RES1    0.0000
     34 C18       12.5032    6.2938    1.2826 C.ar      2 RES2    0.0000
     35 C19        4.4934    2.1106    1.4593 C.ar      1 RES1    0.0000
     36 H17        4.4931    1.4511    0.7899 H         1 RES1    0.0000
     37 C20       13.8465    6.2645    1.3021 C.ar      2 RES2    0.0000
     38 H18       14.3150    6.9048    0.7975 H         2 RES2    0.0000
     39 C21        3.4147    3.0491    1.4895 C.ar      1 RES1    0.0000
     40 C22       14.6015    5.3045    2.0550 C.ar      2 RES2    0.0000
     41 C23        3.4020    4.0617    2.4534 C.ar      1 RES1    0.0000
     42 C24       13.9361    4.3345    2.8143 C.ar      2 RES2    0.0000
     43 C25        4.4604    4.0832    3.4558 C.ar      1 RES1    0.0000
     44 C26       12.4782    4.3539    2.8310 C.ar      2 RES2    0.0000
     45 C27        5.4882    3.1099    3.3975 C.ar      1 RES1    0.0000
     46 C28       11.7766    5.3200    2.0717 C.ar      2 RES2    0.0000
     47 C29        6.6429    1.1528    2.2320 C.3       1 RES1    0.0000
     48 C30       11.7619    7.3014    0.4525 C.3       2 RES2    0.0000
     49 H19       11.1764    6.8937   -0.2219 H         2 RES2    0.0000
     50 H20        7.5434    1.6185    2.1344 H         1 RES1    0.0000
     51 H21        6.8037    0.6463    3.0983 H         1 RES1    0.0000
     52 H22       12.4254    7.8493   -0.0459 H         2 RES2    0.0000
     53 H23       11.0956    7.8659    0.9735 H         2 RES2    0.0000
     54 H24        6.5518    0.5800    1.4727 H         1 RES1    0.0000
@<TRIPOS>BOND
     1    1    2 1
     2    3    4 1
     3    5    1 ar
     4    6    5 1
     5    7    3 ar
     6    8    7 1
     7    9    5 ar
     8   10    9 1
     9   11    7 ar
    10   12   11 1
    11   13    9 ar
    12   14   13 1
    13   15   11 ar
    14   16   15 1
    15   17   18 1
    16   19   20 1
    17   21   17 ar
    18   22   21 1
    19   23   19 ar
    20   24   23 1
    21   25   21 ar
    22   26   25 1
    23   27   23 ar
    24   28   27 1
    25   29   25 ar
    26   30   29 1
    27   31   27 ar
    28   32   31 1
    29   33   35 ar
    30   34   37 ar
    31   35   36 1
    32   37   38 1
    33   39    1 ar
    34   40    3 ar
    35   41   13 ar
    36   42   15 ar
    37   43   17 ar
    38   44   19 ar
    39   45   29 ar
    40   46   31 ar
    41   47   33 1
    42   48   34 1
    43   49   48 1
    44   50   47 1
    45   51   47 1
    46   52   48 1
    47   53   48 1
    48   54   47 1
    49   33   45 ar
    50   34   46 ar
    51   35   39 ar
    52   37   40 ar
    53   39   41 ar
    54   40   42 ar
    55   41   43 ar
    56   42   44 ar
    57   43   45 ar
    58   44   46 ar
@<TRIPOS>SUBSTRUCTURE
     1 RES1 1
     2 RES2 3

@<TRIPOS>CRYSIN
  19.4783    5.5238   20.4967  90.0000 111.0760  90.0000 231 1

