# MOL2 file generated by ConQuest
# Please check atom types

@<TRIPOS>MOLECULE
DAGXIV
    90   100     2
SMALL
NO_CHARGES
****
Generated from CSD

@<TRIPOS>ATOM
      1 C1         0.6702   21.2592    3.5813 C.ar      1 RES1    0.0000
      2 C2         1.7837   21.7512    4.2713 C.ar      1 RES1    0.0000
      3 C3         2.7252   20.8962    4.7782 C.ar      1 RES1    0.0000
      4 H1         3.4662   21.2203    5.2382 H         1 RES1    0.0000
      5 C4         2.5460   19.5473    4.5858 C.ar      1 RES1    0.0000
      6 H2         3.1696   18.9584    4.9441 H         1 RES1    0.0000
      7 C5         1.4930   19.0463    3.8958 C.ar      1 RES1    0.0000
      8 H3         1.4187   18.1285    3.7628 H         1 RES1    0.0000
      9 C6         0.5110   19.9137    3.3779 C.ar      1 RES1    0.0000
     10 H4        -0.2233   19.5828    2.9117 H         1 RES1    0.0000
     11 C7        -0.2282   22.3740    3.1385 C.3       1 RES1    0.0000
     12 H5        -0.3034   22.3905    2.1716 H         1 RES1    0.0000
     13 H6        -1.1140   22.2708    3.5203 H         1 RES1    0.0000
     14 C8         0.4104   23.5973    3.6298 C.ar      1 RES1    0.0000
     15 C9         1.6329   23.2320    4.3073 C.ar      1 RES1    0.0000
     16 C10        2.4049   24.1633    4.8471 C.ar      1 RES1    0.0000
     17 H7         3.1791   23.9270    5.3055 H         1 RES1    0.0000
     18 C11        2.0330   25.5197    4.7141 C.ar      1 RES1    0.0000
     19 H8         2.5868   26.1590    5.0990 H         1 RES1    0.0000
     20 C12        0.9162   25.9556    4.0569 C.ar      1 RES1    0.0000
     21 C13        0.0754   24.9170    3.5000 C.ar      1 RES1    0.0000
     22 H9        -0.7025   25.1496    3.0478 H         1 RES1    0.0000
     23 C14        0.5794   27.3602    3.9146 C.ar      1 RES1    0.0000
     24 C15        1.3965   28.3491    4.2916 C.ar      1 RES1    0.0000
     25 H10        2.2030   28.1217    4.6969 H         1 RES1    0.0000
     26 C16        1.0938   29.7548    4.1039 C.ar      1 RES1    0.0000
     27 C17       -0.1268   30.1305    3.5266 C.ar      1 RES1    0.0000
     28 C18       -1.0522   29.0441    3.1636 C.ar      1 RES1    0.0000
     29 H11       -1.8795   29.2545    2.7943 H         1 RES1    0.0000
     30 C19       -0.7290   27.7535    3.3529 C.ar      1 RES1    0.0000
     31 H12       -1.3430   27.0936    3.1260 H         1 RES1    0.0000
     32 C20        1.9484   30.7504    4.4575 C.ar      1 RES1    0.0000
     33 H13        2.7569   30.5257    4.8580 H         1 RES1    0.0000
     34 C21        1.6508   32.1374    4.2369 C.ar      1 RES1    0.0000
     35 C22        0.4341   32.4877    3.6157 C.ar      1 RES1    0.0000
     36 C23       -0.4490   31.4469    3.2653 C.ar      1 RES1    0.0000
     37 H14       -1.2580   31.6510    2.8538 H         1 RES1    0.0000
     38 C24        2.5569   33.1606    4.5936 C.ar      1 RES1    0.0000
     39 H15        3.3634   32.9371    4.9988 H         1 RES1    0.0000
     40 C25        2.2708   34.4587    4.3573 C.ar      1 RES1    0.0000
     41 H16        2.8683   35.1204    4.6202 H         1 RES1    0.0000
     42 C26        1.0488   34.8146    3.7034 C.ar      1 RES1    0.0000
     43 H17        0.8604   35.7074    3.5250 H         1 RES1    0.0000
     44 C27        0.1567   33.8414    3.3435 C.ar      1 RES1    0.0000
     45 H18       -0.6353   34.0736    2.9164 H         1 RES1    0.0000
     46 C28        3.4803   33.7211    8.2078 C.ar      2 RES2    0.0000
     47 C29        4.6323   33.2440    7.4990 C.ar      2 RES2    0.0000
     48 C30        5.5526   34.1753    7.0077 C.ar      2 RES2    0.0000
     49 H19        6.2998   33.8867    6.5368 H         2 RES2    0.0000
     50 C31        5.3573   35.5032    7.2190 C.ar      2 RES2    0.0000
     51 H20        5.9707   36.1186    6.8826 H         2 RES2    0.0000
     52 C32        4.2495   35.9579    7.9308 C.ar      2 RES2    0.0000
     53 H21        4.1416   36.8663    8.0842 H         2 RES2    0.0000
     54 C33        3.3286   35.0841    8.4033 C.ar      2 RES2    0.0000
     55 H22        2.5863   35.4045    8.8649 H         2 RES2    0.0000
     56 C34        2.6359   32.5983    8.6349 C.3       2 RES2    0.0000
     57 H23        1.7525   32.6679    8.2406 H         2 RES2    0.0000
     58 H24        2.5460   32.5894    9.6002 H         2 RES2    0.0000
     59 C35        3.3184   31.3811    8.1655 C.ar      2 RES2    0.0000
     60 C36        4.5963   31.8218    7.4474 C.ar      2 RES2    0.0000
     61 C37        5.3548   30.8719    6.9060 C.ar      2 RES2    0.0000
     62 H25        6.1171   31.1164    6.4335 H         2 RES2    0.0000
     63 C38        5.0438   29.5379    7.0234 C.ar      2 RES2    0.0000
     64 H26        5.6200   28.9181    6.6385 H         2 RES2    0.0000
     65 C39        3.9072   29.0616    7.6899 C.ar      2 RES2    0.0000
     66 C40        3.0778   30.0718    8.2500 C.ar      2 RES2    0.0000
     67 H27        2.3138   29.8004    8.7053 H         2 RES2    0.0000
     68 C41        3.5956   27.6458    7.8088 C.ar      2 RES2    0.0000
     69 C42        2.3235   27.2200    8.3627 C.ar      2 RES2    0.0000
     70 H28        1.6817   27.8600    8.5708 H         2 RES2    0.0000
     71 C43        2.0482   25.9119    8.5833 C.ar      2 RES2    0.0000
     72 H29        1.2242   25.6730    8.9431 H         2 RES2    0.0000
     73 C44        3.0239   24.8647    8.2672 C.ar      2 RES2    0.0000
     74 C45        4.2140   25.2834    7.6649 C.ar      2 RES2    0.0000
     75 C46        4.4680   26.6457    7.4552 C.ar      2 RES2    0.0000
     76 H30        5.2723   26.8843    7.0547 H         2 RES2    0.0000
     77 C47        5.0912   24.2792    7.3269 C.ar      2 RES2    0.0000
     78 H31        5.8973   24.5103    6.9264 H         2 RES2    0.0000
     79 C48        4.8274   22.9221    7.5600 C.ar      2 RES2    0.0000
     80 C49        3.6194   22.5213    8.2140 C.ar      2 RES2    0.0000
     81 C50        2.7229   23.5165    8.5551 C.ar      2 RES2    0.0000
     82 H32        1.9215   23.2990    8.9728 H         2 RES2    0.0000
     83 C51        5.7538   21.9003    7.1736 C.ar      2 RES2    0.0000
     84 H33        6.5437   22.1363    6.7433 H         2 RES2    0.0000
     85 C52        5.4965   20.6012    7.4255 C.ar      2 RES2    0.0000
     86 H34        6.1078   19.9529    7.1548 H         2 RES2    0.0000
     87 C53        4.3260   20.2049    8.0873 C.ar      2 RES2    0.0000
     88 H35        4.1804   19.3061    8.2750 H         2 RES2    0.0000
     89 C54        3.4076   21.1287    8.4534 C.ar      2 RES2    0.0000
     90 H36        2.6232   20.8502    8.8680 H         2 RES2    0.0000
@<TRIPOS>BOND
     1    1    2 ar
     2    2    3 ar
     3    3    4 1
     4    5    3 ar
     5    6    5 1
     6    7    5 ar
     7    8    7 1
     8    9    1 ar
     9   10    9 1
    10   11    1 1
    11   12   11 1
    12   13   11 1
    13   14   11 1
    14   15    2 1
    15   16   15 ar
    16   17   16 1
    17   18   16 ar
    18   19   18 1
    19   20   18 ar
    20   21   14 ar
    21   22   21 1
    22   23   20 1
    23   24   23 ar
    24   25   24 1
    25   26   24 ar
    26   27   26 ar
    27   28   27 ar
    28   29   28 1
    29   30   23 ar
    30   31   30 1
    31   32   26 ar
    32   33   32 1
    33   34   32 ar
    34   35   34 ar
    35   36   27 ar
    36   37   36 1
    37   38   34 ar
    38   39   38 1
    39   40   38 ar
    40   41   40 1
    41   42   40 ar
    42   43   42 1
    43   44   35 ar
    44   45   44 1
    45   46   47 ar
    46   47   48 ar
    47   48   49 1
    48   50   48 ar
    49   51   50 1
    50   52   50 ar
    51   53   52 1
    52   54   46 ar
    53   55   54 1
    54   56   46 1
    55   57   56 1
    56   58   56 1
    57   59   56 1
    58   60   47 1
    59   61   60 ar
    60   62   61 1
    61   63   61 ar
    62   64   63 1
    63   65   63 ar
    64   66   59 ar
    65   67   66 1
    66   68   65 1
    67   69   68 ar
    68   70   69 1
    69   71   69 ar
    70   72   71 1
    71   73   71 ar
    72   74   73 ar
    73   75   68 ar
    74   76   75 1
    75   77   74 ar
    76   78   77 1
    77   79   77 ar
    78   80   79 ar
    79   81   73 ar
    80   82   81 1
    81   83   79 ar
    82   84   83 1
    83   85   83 ar
    84   86   85 1
    85   87   85 ar
    86   88   87 1
    87   89   80 ar
    88   90   89 1
    89    7    9 ar
    90   14   15 ar
    91   20   21 ar
    92   28   30 ar
    93   35   36 ar
    94   42   44 ar
    95   52   54 ar
    96   59   60 ar
    97   65   66 ar
    98   74   75 ar
    99   80   81 ar
   100   87   89 ar
@<TRIPOS>SUBSTRUCTURE
     1 RES1 1
     2 RES2 46

@<TRIPOS>CRYSIN
   6.0492   37.3860   15.6460  90.0000  90.3110  90.0000  14 1

