# MOL2 file generated by ConQuest
# Please check atom types

@<TRIPOS>MOLECULE
DAGYES
    92   102     2
SMALL
NO_CHARGES
****
Generated from CSD

@<TRIPOS>ATOM
      1 C1         0.5471    2.6705    0.8606 C.ar      1 RES1    0.0000
      2 H1         0.8341    2.4659   -0.0233 H         1 RES1    0.0000
      3 C2        -0.6858    3.2873    1.0738 C.ar      1 RES1    0.0000
      4 H2        -1.2187    3.5502    0.3334 H         1 RES1    0.0000
      5 C3         0.9935    2.6257   17.0058 C.ar      1 RES1    0.0000
      6 H3         1.5568    2.3680   17.7268 H         1 RES1    0.0000
      7 C4        -1.1269    3.5136    2.3336 C.ar      1 RES1    0.0000
      8 H4        -1.9903    3.8907    2.4576 H         1 RES1    0.0000
      9 C5        -1.0716    3.5353   16.1995 C.ar      1 RES1    0.0000
     10 H5        -1.9225    3.9408   16.3196 H         1 RES1    0.0000
     11 C6        -0.4259    3.3090   17.2926 C.ar      1 RES1    0.0000
     12 H6        -0.7516    3.5218   18.1570 H         1 RES1    0.0000
     13 C7         2.1039    2.1485    6.8457 C.ar      1 RES1    0.0000
     14 H7         2.9602    1.7617    6.7062 H         1 RES1    0.0000
     15 C8        -1.4993    3.5300   10.0360 C.ar      1 RES1    0.0000
     16 H8        -2.0418    3.8086    9.3072 H         1 RES1    0.0000
     17 C9        -1.9595    3.6824   11.2958 C.ar      1 RES1    0.0000
     18 H9        -2.8390    4.0162   11.4276 H         1 RES1    0.0000
     19 C10        1.3739    2.4240   15.7498 C.ar      1 RES1    0.0000
     20 H10        2.2533    2.0887   15.6219 H         1 RES1    0.0000
     21 C11        1.6747    2.3053    8.1211 C.ar      1 RES1    0.0000
     22 H11        2.2321    2.0611    8.8498 H         1 RES1    0.0000
     23 C12       -1.4328    3.5801   13.7728 C.ar      1 RES1    0.0000
     24 H12       -2.2617    4.0192   13.9240 H         1 RES1    0.0000
     25 C13        1.3501    2.3591    1.9498 C.ar      1 RES1    0.0000
     26 H13        2.2034    1.9775    1.7793 H         1 RES1    0.0000
     27 C14       -0.7461    3.4188    4.7912 C.ar      1 RES1    0.0000
     28 H14       -1.6065    3.8071    4.8998 H         1 RES1    0.0000
     29 C15        1.8071    2.2993    4.4113 C.ar      1 RES1    0.0000
     30 H15        2.6818    1.9543    4.2795 H         1 RES1    0.0000
     31 C16       -0.3749    3.2806    7.2450 C.ar      1 RES1    0.0000
     32 H16       -1.1960    3.7324    7.4000 H         1 RES1    0.0000
     33 C17        0.6266    2.4935   10.8113 C.ar      1 RES1    0.0000
     34 H17        1.4620    2.0656   10.6678 H         1 RES1    0.0000
     35 C18        1.0062    2.3972   13.2844 C.ar      1 RES1    0.0000
     36 H18        1.8494    2.0118   13.0751 H         1 RES1    0.0000
     37 C19        1.3344    2.5361    5.6944 C.ar      1 RES1    0.0000
     38 C20       -1.1483    3.3523   12.4587 C.ar      1 RES1    0.0000
     39 C21       -0.0165    3.1186    5.9386 C.ar      1 RES1    0.0000
     40 C22       -0.1651    2.9356    9.7569 C.ar      1 RES1    0.0000
     41 C23        0.0733    2.7369   12.2223 C.ar      1 RES1    0.0000
     42 C24       -0.3020    3.1902    3.5275 C.ar      1 RES1    0.0000
     43 C25        0.9720    2.5771    3.2949 C.ar      1 RES1    0.0000
     44 C26       -0.7395    3.2911   14.9047 C.ar      1 RES1    0.0000
     45 C27        0.6519    2.6429   14.6334 C.ar      1 RES1    0.0000
     46 C28        0.3125    2.8684    8.3653 C.ar      1 RES1    0.0000
     47 C29        2.2049    6.2169    1.0234 C.ar      2 RES2    0.0000
     48 H19        1.6201    6.0459    0.2946 H         2 RES2    0.0000
     49 C30        3.4276    6.8017    0.8451 C.ar      2 RES2    0.0000
     50 H20        3.6883    6.9958   -0.0465 H         2 RES2    0.0000
     51 C31        4.3420    7.1452    1.8762 C.ar      2 RES2    0.0000
     52 H21        5.1840    7.5373    1.6746 H         2 RES2    0.0000
     53 C32        3.9508    6.8808    3.2213 C.ar      2 RES2    0.0000
     54 C33        2.6965    6.2087    3.4694 C.ar      2 RES2    0.0000
     55 C34        1.8763    5.8973    2.2871 C.ar      2 RES2    0.0000
     56 H22        1.0564    5.4388    2.4266 H         2 RES2    0.0000
     57 C35        4.7830    7.1639    4.3299 C.ar      2 RES2    0.0000
     58 H23        5.6458    7.5268    4.1671 H         2 RES2    0.0000
     59 C36        4.4079    6.9413    5.6208 C.ar      2 RES2    0.0000
     60 C37        2.9683    6.2909    5.8921 C.ar      2 RES2    0.0000
     61 C38        2.3799    5.9825    4.7215 C.ar      2 RES2    0.0000
     62 H24        1.5671    5.5015    4.8261 H         2 RES2    0.0000
     63 C39        5.0577    7.2841    6.7721 C.ar      2 RES2    0.0000
     64 H25        5.9301    7.6411    6.6519 H         2 RES2    0.0000
     65 C40        4.6440    7.1930    8.0823 C.ar      2 RES2    0.0000
     66 H26        5.2043    7.4618    8.7994 H         2 RES2    0.0000
     67 C41        3.2973    6.6605    8.3187 C.ar      2 RES2    0.0000
     68 C42        2.6939    6.2177    7.1791 C.ar      2 RES2    0.0000
     69 H27        1.8883    5.7457    7.3535 H         2 RES2    0.0000
     70 C43        2.8756    6.6553    9.7181 C.ar      2 RES2    0.0000
     71 C44        3.5190    7.0735   10.8074 C.ar      2 RES2    0.0000
     72 H28        4.3681    7.4775   10.6717 H         2 RES2    0.0000
     73 C45        3.0610    6.9779   12.1603 C.ar      2 RES2    0.0000
     74 C46        1.7793    6.3499   12.3928 C.ar      2 RES2    0.0000
     75 C47        1.0890    5.9571   11.2377 C.ar      2 RES2    0.0000
     76 H29        0.2208    5.5926   11.3617 H         2 RES2    0.0000
     77 C48        1.5379    6.0444    9.9507 C.ar      2 RES2    0.0000
     78 H30        1.0127    5.7248    9.2297 H         2 RES2    0.0000
     79 C49        3.8604    7.3416   13.2612 C.ar      2 RES2    0.0000
     80 H31        4.6923    7.7613   13.0751 H         2 RES2    0.0000
     81 C50        3.5366    7.1392   14.5753 C.ar      2 RES2    0.0000
     82 C51        2.1601    6.5194   14.8156 C.ar      2 RES2    0.0000
     83 C52        1.4275    6.1565   13.6992 C.ar      2 RES2    0.0000
     84 H32        0.5938    5.7300   13.8581 H         2 RES2    0.0000
     85 C53        4.2436    7.3983   15.7149 C.ar      2 RES2    0.0000
     86 H33        5.0939    7.8016   15.5870 H         2 RES2    0.0000
     87 C54        3.9044    7.1631   16.9747 C.ar      2 RES2    0.0000
     88 H34        4.4939    7.3506   17.6958 H         2 RES2    0.0000
     89 C55        2.5023    6.5694   17.2073 C.ar      2 RES2    0.0000
     90 H35        2.1778    6.4268   18.0873 H         2 RES2    0.0000
     91 C56        1.7338    6.2505   16.1258 C.ar      2 RES2    0.0000
     92 H36        0.8895    5.8376   16.2615 H         2 RES2    0.0000
@<TRIPOS>BOND
     1    1    2 1
     2    3    1 ar
     3    4    3 1
     4    5    6 1
     5    7    3 ar
     6    8    7 1
     7    9   10 1
     8   11    5 ar
     9   12   11 1
    10   13   14 1
    11   15   16 1
    12   17   15 ar
    13   18   17 1
    14   19    5 ar
    15   20   19 1
    16   21   13 ar
    17   22   21 1
    18   23   24 1
    19   25    1 ar
    20   26   25 1
    21   27   28 1
    22   29   30 1
    23   31   32 1
    24   33   34 1
    25   35   36 1
    26   37   13 ar
    27   38   17 ar
    28   39   27 ar
    29   40   15 ar
    30   41   33 ar
    31   42    7 ar
    32   43   25 ar
    33   44    9 ar
    34   45   19 ar
    35   46   21 ar
    36   47   48 1
    37   49   47 ar
    38   50   49 1
    39   51   49 ar
    40   52   51 1
    41   53   51 ar
    42   54   53 ar
    43   55   47 ar
    44   56   55 1
    45   57   53 ar
    46   58   57 1
    47   59   57 ar
    48   60   59 ar
    49   61   54 ar
    50   62   61 1
    51   63   59 ar
    52   64   63 1
    53   65   63 ar
    54   66   65 1
    55   67   65 ar
    56   68   60 ar
    57   69   68 1
    58   70   67 1
    59   71   70 ar
    60   72   71 1
    61   73   71 ar
    62   74   73 ar
    63   75   74 ar
    64   76   75 1
    65   77   70 ar
    66   78   77 1
    67   79   73 ar
    68   80   79 1
    69   81   79 ar
    70   82   81 ar
    71   83   74 ar
    72   84   83 1
    73   85   81 ar
    74   86   85 1
    75   87   85 ar
    76   88   87 1
    77   89   87 ar
    78   90   89 1
    79   91   82 ar
    80   92   91 1
    81    9   11 ar
    82   23   38 ar
    83   23   44 ar
    84   27   42 ar
    85   29   37 ar
    86   29   43 ar
    87   31   39 ar
    88   31   46 ar
    89   33   40 ar
    90   35   41 ar
    91   35   45 ar
    92   37   39 ar
    93   38   41 ar
    94   40   46 1
    95   42   43 ar
    96   44   45 ar
    97   54   55 ar
    98   60   61 ar
    99   67   68 ar
   100   75   77 ar
   101   82   83 ar
   102   89   91 ar
@<TRIPOS>SUBSTRUCTURE
     1 RES1 1
     2 RES2 47

