# MOL2 file generated by ConQuest
# Please check atom types

@<TRIPOS>MOLECULE
DAQJIP
    53    58     1
SMALL
NO_CHARGES
****
Generated from CSD

@<TRIPOS>ATOM
      1 C1         4.6405    0.4755    5.4301 C.2       1 RES1    0.0000
      2 C2         4.1743    1.8803    5.2741 C.3       1 RES1    0.0000
      3 H1         4.8922    2.4402    4.9394 H         1 RES1    0.0000
      4 H2         3.8773    2.2344    6.1287 H         1 RES1    0.0000
      5 C3         3.0417    1.8478    4.3025 C.ar      1 RES1    0.0000
      6 C4         2.1906    2.8551    3.8508 C.ar      1 RES1    0.0000
      7 C5         1.1793    2.5139    2.9084 C.ar      1 RES1    0.0000
      8 C6         0.2917    3.5006    2.3787 C.ar      1 RES1    0.0000
      9 H3         0.3640    4.3801    2.6712 H         1 RES1    0.0000
     10 C7        -0.6575    3.1832    1.4558 C.ar      1 RES1    0.0000
     11 H4        -1.2420    3.8309    1.1341 H         1 RES1    0.0000
     12 C8        -0.7376    1.8673    0.9976 C.ar      1 RES1    0.0000
     13 H5        -1.3944    1.6615    0.3737 H         1 RES1    0.0000
     14 C9         0.0837    0.8719    1.4071 C.ar      1 RES1    0.0000
     15 H6         0.0072    0.0173    1.0464 H         1 RES1    0.0000
     16 C10        1.0860    1.1589    2.4177 C.ar      1 RES1    0.0000
     17 C11        1.9957    0.1246    2.9344 C.ar      1 RES1    0.0000
     18 C12        2.9371    0.5036    3.8475 C.ar      1 RES1    0.0000
     19 C13        3.8934   -0.3379    4.5884 C.2       1 RES1    0.0000
     20 H7         3.9819   -1.2596    4.5072 H         1 RES1    0.0000
     21 C14        5.7068    0.0780    6.3107 C.ar      1 RES1    0.0000
     22 C15        6.6482    0.9867    6.7429 C.ar      1 RES1    0.0000
     23 H8         6.6082    1.8651    6.4407 H         1 RES1    0.0000
     24 C16        7.6530    0.6130    7.6203 C.ar      1 RES1    0.0000
     25 H9         8.2710    1.2412    7.9160 H         1 RES1    0.0000
     26 C17        7.7312   -0.6802    8.0428 C.ar      1 RES1    0.0000
     27 H10        8.4204   -0.9499    8.6082 H         1 RES1    0.0000
     28 C18        6.7803   -1.5781    7.6301 C.ar      1 RES1    0.0000
     29 H11        6.8018   -2.4511    7.9485 H         1 RES1    0.0000
     30 C19        5.7905   -1.1990    6.7429 C.ar      1 RES1    0.0000
     31 H12        5.1773   -1.8294    6.4407 H         1 RES1    0.0000
     32 C20        2.2964    4.2371    4.4292 C.ar      1 RES1    0.0000
     33 C21        1.2689    4.7678    5.2091 C.ar      1 RES1    0.0000
     34 H13        0.5045    4.2598    5.3586 H         1 RES1    0.0000
     35 C22        1.3622    6.0350    5.7680 C.ar      1 RES1    0.0000
     36 H14        0.6903    6.3632    6.3205 H         1 RES1    0.0000
     37 C23        2.5079    6.8127    5.4756 C.ar      1 RES1    0.0000
     38 H15        2.5713    7.6846    5.7908 H         1 RES1    0.0000
     39 C24        3.5115    6.2896    4.7314 C.ar      1 RES1    0.0000
     40 H16        4.2837    6.7889    4.5917 H         1 RES1    0.0000
     41 C25        3.4093    5.0386    4.1855 C.ar      1 RES1    0.0000
     42 H17        4.0942    4.7180    3.6461 H         1 RES1    0.0000
     43 C26        1.8869   -1.3084    2.4275 C.ar      1 RES1    0.0000
     44 C27        0.8356   -2.1413    2.7654 C.ar      1 RES1    0.0000
     45 H18        0.1446   -1.8283    3.3016 H         1 RES1    0.0000
     46 C28        0.8188   -3.4258    2.3007 C.ar      1 RES1    0.0000
     47 H19        0.0938   -3.9717    2.5054 H         1 RES1    0.0000
     48 C29        1.8379   -3.9327    1.5436 C.ar      1 RES1    0.0000
     49 H20        1.8098   -4.8111    1.2413 H         1 RES1    0.0000
     50 C30        2.8965   -3.1291    1.2413 C.ar      1 RES1    0.0000
     51 H21        3.6053   -3.4713    0.7474 H         1 RES1    0.0000
     52 C31        2.9311   -1.8326    1.6573 C.ar      1 RES1    0.0000
     53 H22        3.6525   -1.2921    1.4266 H         1 RES1    0.0000
@<TRIPOS>BOND
     1    1    2 1
     2    2    3 1
     3    4    2 1
     4    5    2 1
     5    6    5 ar
     6    7    6 ar
     7    8    7 ar
     8    9    8 1
     9   10    8 ar
    10   11   10 1
    11   12   10 ar
    12   13   12 1
    13   14   12 ar
    14   15   14 1
    15   16    7 ar
    16   17   16 ar
    17   18    5 ar
    18   19    1 2
    19   20   19 1
    20   21    1 1
    21   22   21 ar
    22   23   22 1
    23   24   22 ar
    24   25   24 1
    25   26   24 ar
    26   27   26 1
    27   28   26 ar
    28   29   28 1
    29   30   21 ar
    30   31   30 1
    31   32    6 1
    32   33   32 ar
    33   34   33 1
    34   35   33 ar
    35   36   35 1
    36   37   35 ar
    37   38   37 1
    38   39   37 ar
    39   40   39 1
    40   41   32 ar
    41   42   41 1
    42   43   17 1
    43   44   43 ar
    44   45   44 1
    45   46   44 ar
    46   47   46 1
    47   48   46 ar
    48   49   48 1
    49   50   48 ar
    50   51   50 1
    51   52   43 ar
    52   53   52 1
    53   14   16 ar
    54   17   18 ar
    55   18   19 1
    56   28   30 ar
    57   39   41 ar
    58   50   52 ar
@<TRIPOS>SUBSTRUCTURE
     1 RES1 1

@<TRIPOS>CRYSIN
   5.9770   10.8310   32.4960  90.0000  90.0000  90.0000  19 1

