# MOL2 file generated by ConQuest
# Please check atom types

@<TRIPOS>MOLECULE
DASTUM
    38    41     1
SMALL
NO_CHARGES
****
Generated from CSD

@<TRIPOS>ATOM
      1 C1         3.4930    8.4957    2.2987 C.ar      1 RES1    0.0000
      2 C2         3.1877    9.0801    1.0855 C.ar      1 RES1    0.0000
      3 H1         2.9246    8.4982    0.3204 H         1 RES1    0.0000
      4 C3         3.2011   10.4583    0.9448 C.ar      1 RES1    0.0000
      5 H2         3.0388   10.8601    0.0683 H         1 RES1    0.0000
      6 C4         3.4992   11.2667    2.0193 C.ar      1 RES1    0.0000
      7 H3         3.4336   12.2237    1.8906 H         1 RES1    0.0000
      8 C5         3.7889   10.7018    3.2298 C.ar      1 RES1    0.0000
      9 H4         4.0007   11.2984    4.0649 H         1 RES1    0.0000
     10 C6         3.7877    9.3285    3.3727 C.ar      1 RES1    0.0000
     11 H5         4.0455    8.9365    4.2224 H         1 RES1    0.0000
     12 C7         3.5116    7.0347    2.5061 C.2       1 RES1    0.0000
     13 H6         3.5826    6.7206    3.4452 H         1 RES1    0.0000
     14 C8         3.3843    6.1021    1.6118 C.2       1 RES1    0.0000
     15 H7         3.3105    6.3797    0.6670 H         1 RES1    0.0000
     16 C9         3.4091    4.6338    1.8712 C.ar      1 RES1    0.0000
     17 C10        4.4655    3.8643    1.3350 C.ar      1 RES1    0.0000
     18 C11        5.5167    4.4366    0.5714 C.ar      1 RES1    0.0000
     19 H8         5.5739    5.4544    0.4674 H         1 RES1    0.0000
     20 C12        6.5097    3.6817    0.0499 C.ar      1 RES1    0.0000
     21 H9         7.1894    4.0421   -0.5199 H         1 RES1    0.0000
     22 C13        6.5313    2.2840    0.2552 C.ar      1 RES1    0.0000
     23 H10        7.2509    1.7045   -0.1523 H         1 RES1    0.0000
     24 C14        5.5527    1.6972    0.9753 C.ar      1 RES1    0.0000
     25 H11        5.5064    0.7792    1.1344 H         1 RES1    0.0000
     26 C15        4.4869    2.4496    1.5487 C.ar      1 RES1    0.0000
     27 C16        3.4667    1.8676    2.2850 C.ar      1 RES1    0.0000
     28 H12        3.5131    0.9253    2.4263 H         1 RES1    0.0000
     29 C17        2.4065    2.5933    2.8254 C.ar      1 RES1    0.0000
     30 C18        1.3922    1.9821    3.5917 C.ar      1 RES1    0.0000
     31 H13        1.4579    0.9984    3.7655 H         1 RES1    0.0000
     32 C19        0.3998    2.7102    4.1190 C.ar      1 RES1    0.0000
     33 H14       -0.3133    2.3376    4.6110 H         1 RES1    0.0000
     34 C20        0.3340    4.1078    3.9005 C.ar      1 RES1    0.0000
     35 H15       -0.4553    4.6021    4.2749 H         1 RES1    0.0000
     36 C21        1.2892    4.7190    3.1726 C.ar      1 RES1    0.0000
     37 H16        1.2087    5.6005    3.0198 H         1 RES1    0.0000
     38 C22        2.3856    4.0104    2.6028 C.ar      1 RES1    0.0000
@<TRIPOS>BOND
     1    1    2 ar
     2    2    3 1
     3    4    2 ar
     4    5    4 1
     5    6    4 ar
     6    7    6 1
     7    8    6 ar
     8    9    8 1
     9   10    1 ar
    10   11   10 1
    11   12    1 1
    12   13   12 1
    13   14   12 2
    14   15   14 1
    15   16   14 1
    16   17   16 ar
    17   18   17 ar
    18   19   18 1
    19   20   18 ar
    20   21   20 1
    21   22   20 ar
    22   23   22 1
    23   24   22 ar
    24   25   24 1
    25   26   17 ar
    26   27   26 ar
    27   28   27 1
    28   29   27 ar
    29   30   29 ar
    30   31   30 1
    31   32   30 ar
    32   33   32 1
    33   34   32 ar
    34   35   34 1
    35   36   34 ar
    36   37   36 1
    37   38   16 ar
    38    8   10 ar
    39   24   26 ar
    40   29   38 ar
    41   36   38 ar
@<TRIPOS>SUBSTRUCTURE
     1 RES1 1

@<TRIPOS>CRYSIN
  11.7700   24.3500    5.5030  90.0000 107.3800  90.0000 231 1

