# MOL2 file generated by ConQuest
# Please check atom types

@<TRIPOS>MOLECULE
DASTOG
    38    41     1
SMALL
NO_CHARGES
****
Generated from CSD

@<TRIPOS>ATOM
      1 C1         2.0175   10.1973    2.3897 C.ar      1 RES1    0.0000
      2 C2         2.2550   11.3574    1.6479 C.ar      1 RES1    0.0000
      3 H1         3.0676   11.8625    1.9186 H         1 RES1    0.0000
      4 C3         1.4104   11.7241    0.6140 C.ar      1 RES1    0.0000
      5 H2         1.6613   12.5411    0.1279 H         1 RES1    0.0000
      6 C4         0.3139   10.9777    0.3070 C.ar      1 RES1    0.0000
      7 H3        -0.2855   11.2752   -0.4477 H         1 RES1    0.0000
      8 C5         0.0513    9.8384    1.0361 C.ar      1 RES1    0.0000
      9 H4        -0.7498    9.3308    0.8314 H         1 RES1    0.0000
     10 C6         0.8929    9.4599    2.0614 C.ar      1 RES1    0.0000
     11 H5         0.6532    8.6913    2.6008 H         1 RES1    0.0000
     12 C7         2.9609    9.8658    3.4599 C.2       1 RES1    0.0000
     13 H6         3.6234   10.5575    3.6241 H         1 RES1    0.0000
     14 C8         3.0439    8.7800    4.2295 C.2       1 RES1    0.0000
     15 H7         3.7386    8.7957    4.9458 H         1 RES1    0.0000
     16 C9         2.1703    7.5729    4.2210 C.ar      1 RES1    0.0000
     17 C10        2.3567    6.5759    3.2467 C.ar      1 RES1    0.0000
     18 C11        3.3853    6.6464    2.2597 C.ar      1 RES1    0.0000
     19 H8         3.9310    7.4516    2.2597 H         1 RES1    0.0000
     20 C12        3.5415    5.6637    1.3345 C.ar      1 RES1    0.0000
     21 H9         4.2711    5.7159    0.6822 H         1 RES1    0.0000
     22 C13        2.6935    4.5492    1.3281 C.ar      1 RES1    0.0000
     23 H10        2.8282    3.8367    0.6822 H         1 RES1    0.0000
     24 C14        1.7139    4.4422    2.2384 C.ar      1 RES1    0.0000
     25 H11        1.1313    3.7193    2.2810 H         1 RES1    0.0000
     26 C15        1.4991    5.4366    3.2425 C.ar      1 RES1    0.0000
     27 C16        0.4948    5.3257    4.1847 C.ar      1 RES1    0.0000
     28 H12       -0.2100    4.4631    4.1783 H         1 RES1    0.0000
     29 C17        0.3222    6.2940    5.1803 C.ar      1 RES1    0.0000
     30 C18       -0.6929    6.1831    6.1865 C.ar      1 RES1    0.0000
     31 H13       -1.2463    5.3766    6.0543 H         1 RES1    0.0000
     32 C19       -0.8032    7.1136    7.1650 C.ar      1 RES1    0.0000
     33 H14       -1.5328    7.0209    7.8663 H         1 RES1    0.0000
     34 C20        0.0788    8.2098    7.2161 C.ar      1 RES1    0.0000
     35 H15       -0.0324    8.8610    7.9516 H         1 RES1    0.0000
     36 C21        1.0264    8.3755    6.2632 C.ar      1 RES1    0.0000
     37 H16        1.6213    9.1742    6.2888 H         1 RES1    0.0000
     38 C22        1.1937    7.4215    5.2101 C.ar      1 RES1    0.0000
@<TRIPOS>BOND
     1    1    2 ar
     2    2    3 1
     3    4    2 ar
     4    5    4 1
     5    6    4 ar
     6    7    6 1
     7    8    6 ar
     8    9    8 1
     9   10    1 ar
    10   11   10 1
    11   12    1 1
    12   13   12 1
    13   14   12 2
    14   15   14 1
    15   16   14 1
    16   17   16 ar
    17   18   17 ar
    18   19   18 1
    19   20   18 ar
    20   21   20 1
    21   22   20 ar
    22   23   22 1
    23   24   22 ar
    24   25   24 1
    25   26   17 ar
    26   27   26 ar
    27   28   27 1
    28   29   27 ar
    29   30   29 ar
    30   31   30 1
    31   32   30 ar
    32   33   32 1
    33   34   32 ar
    34   35   34 1
    35   36   34 ar
    36   37   36 1
    37   38   16 ar
    38    8   10 ar
    39   24   26 ar
    40   29   38 ar
    41   36   38 ar
@<TRIPOS>SUBSTRUCTURE
     1 RES1 1

@<TRIPOS>CRYSIN
   5.5070   13.0500   21.4250  90.0000  95.7300  90.0000  14 1

