# MOL2 file generated by ConQuest
# Please check atom types

@<TRIPOS>MOLECULE
DASVAU
    72    80     1
SMALL
NO_CHARGES
****
Generated from CSD

@<TRIPOS>ATOM
      1 C1         5.7164    0.6836   12.4460 C.1       1 RES1    0.0000
      2 C2         5.8296   -0.3707   11.9727 C.1       1 RES1    0.0000
      3 C3         6.1425   -1.6131   11.3289 C.ar      1 RES1    0.0000
      4 C4         5.2545   -2.6618   11.2985 C.ar      1 RES1    0.0000
      5 C5         5.4797   -3.8521   10.6639 C.ar      1 RES1    0.0000
      6 C6         6.6949   -4.0495   10.0977 C.ar      1 RES1    0.0000
      7 C7         7.6624   -3.0772   10.0779 C.ar      1 RES1    0.0000
      8 C8         7.3722   -1.8366   10.6882 C.ar      1 RES1    0.0000
      9 C9         5.5006    2.0248   13.0380 C.3       1 RES1    0.0000
     10 C10        6.6087    2.3824   14.0501 C.ar      1 RES1    0.0000
     11 C11        7.6705    1.6056   14.4457 C.ar      1 RES1    0.0000
     12 C12        8.5700    2.1030   15.3954 C.ar      1 RES1    0.0000
     13 C13        8.3893    3.4050   15.9068 C.ar      1 RES1    0.0000
     14 C14        7.3277    4.1836   15.4882 C.ar      1 RES1    0.0000
     15 C15        6.4245    3.6695   14.5462 C.ar      1 RES1    0.0000
     16 C16        5.2297    4.3885   13.9709 C.3       1 RES1    0.0000
     17 C17        4.0093    3.5261   14.2799 C.ar      1 RES1    0.0000
     18 C18        2.8891    3.8893   14.9358 C.ar      1 RES1    0.0000
     19 C19        1.8740    2.9617   15.0941 C.ar      1 RES1    0.0000
     20 C20        1.9818    1.6727   14.5553 C.ar      1 RES1    0.0000
     21 C21        3.1427    1.3151   13.8887 C.ar      1 RES1    0.0000
     22 C22        4.1671    2.2203   13.7487 C.ar      1 RES1    0.0000
     23 C23        5.5635    3.1573   11.9636 C.2       1 RES1    0.0000
     24 C24        5.4691    4.4016   12.4338 C.2       1 RES1    0.0000
     25 C25        5.4920    5.6719   11.7216 C.ar      1 RES1    0.0000
     26 C26        6.3849    5.9122   10.6943 C.ar      1 RES1    0.0000
     27 C27        6.4630    7.1509   10.0886 C.ar      1 RES1    0.0000
     28 C28        5.6326    8.1940   10.4965 C.ar      1 RES1    0.0000
     29 C29        4.7446    7.9612   11.4933 C.ar      1 RES1    0.0000
     30 C30        4.6881    6.7299   12.1203 C.ar      1 RES1    0.0000
     31 C31        5.7296    2.7084   10.5269 C.ar      1 RES1    0.0000
     32 C32        6.9750    2.3451   10.1069 C.ar      1 RES1    0.0000
     33 C33        8.1774    2.5091   10.8511 C.ar      1 RES1    0.0000
     34 C34        9.4033    2.0657   10.4432 C.ar      1 RES1    0.0000
     35 C35        9.5595    1.5013    9.1115 C.ar      1 RES1    0.0000
     36 C36        8.4359    1.3281    8.3810 C.ar      1 RES1    0.0000
     37 C37        7.1369    1.7435    8.8117 C.ar      1 RES1    0.0000
     38 C38        6.0565    1.5274    8.0356 C.ar      1 RES1    0.0000
     39 C39        4.7693    1.9000    8.4282 C.ar      1 RES1    0.0000
     40 C40        3.6316    1.7640    7.6216 C.ar      1 RES1    0.0000
     41 C41        2.4552    2.1905    8.0066 C.ar      1 RES1    0.0000
     42 C42        2.2517    2.8257    9.2896 C.ar      1 RES1    0.0000
     43 C43        3.3296    2.9971   10.1008 C.ar      1 RES1    0.0000
     44 C44        4.6058    2.5426    9.7203 C.ar      1 RES1    0.0000
     45 H1         4.3532   -2.5333   11.7946 H         1 RES1    0.0000
     46 H2         4.8022   -4.5822   10.6532 H         1 RES1    0.0000
     47 H3         6.8936   -4.9548    9.6640 H         1 RES1    0.0000
     48 H4         8.5211   -3.2597    9.6183 H         1 RES1    0.0000
     49 H5         8.0656   -1.0990   10.6836 H         1 RES1    0.0000
     50 H6         7.8237    0.6892   14.0470 H         1 RES1    0.0000
     51 H7         9.3282    1.5088   15.7211 H         1 RES1    0.0000
     52 H8         9.0676    3.7068   16.5581 H         1 RES1    0.0000
     53 H9         7.1897    5.1224   15.8581 H         1 RES1    0.0000
     54 H10        5.1688    5.2528   14.4123 H         1 RES1    0.0000
     55 H11        2.7464    4.7685   15.3406 H         1 RES1    0.0000
     56 H12        1.0372    3.1666   15.5841 H         1 RES1    0.0000
     57 H13        1.2098    1.0245   14.5949 H         1 RES1    0.0000
     58 H14        3.2934    0.3725   13.5904 H         1 RES1    0.0000
     59 H15        6.9813    5.1783   10.3640 H         1 RES1    0.0000
     60 H16        7.1248    7.3018    9.3596 H         1 RES1    0.0000
     61 H17        5.6857    9.0900   10.0292 H         1 RES1    0.0000
     62 H18        4.0787    8.6802   11.7185 H         1 RES1    0.0000
     63 H19        4.0846    6.6126   12.8904 H         1 RES1    0.0000
     64 H20        8.1245    2.9803   11.7490 H         1 RES1    0.0000
     65 H21       10.2068    2.1049   11.0793 H         1 RES1    0.0000
     66 H22       10.4480    1.2666    8.8117 H         1 RES1    0.0000
     67 H23        8.5854    0.9500    7.4877 H         1 RES1    0.0000
     68 H24        6.1964    1.1176    7.1529 H         1 RES1    0.0000
     69 H25        3.7105    1.2666    6.7115 H         1 RES1    0.0000
     70 H26        1.6592    2.0862    7.4420 H         1 RES1    0.0000
     71 H27        1.3436    3.1852    9.5422 H         1 RES1    0.0000
     72 H28        3.2037    3.4460   10.9880 H         1 RES1    0.0000
@<TRIPOS>BOND
     1    1    2 3
     2    2    3 1
     3    3    4 ar
     4    4    5 ar
     5    5    6 ar
     6    6    7 ar
     7    7    8 ar
     8    8    3 ar
     9    9    1 1
    10   10    9 1
    11   11   10 ar
    12   12   11 ar
    13   13   12 ar
    14   14   13 ar
    15   15   10 ar
    16   16   15 1
    17   17   16 1
    18   18   17 ar
    19   19   18 ar
    20   20   19 ar
    21   21   20 ar
    22   22    9 1
    23   23    9 1
    24   24   16 1
    25   25   24 1
    26   26   25 ar
    27   27   26 ar
    28   28   27 ar
    29   29   28 ar
    30   30   25 ar
    31   31   23 1
    32   32   31 ar
    33   33   32 ar
    34   34   33 ar
    35   35   34 ar
    36   36   35 ar
    37   37   32 ar
    38   38   37 ar
    39   39   38 ar
    40   40   39 ar
    41   41   40 ar
    42   42   41 ar
    43   43   42 ar
    44   44   31 ar
    45   45    4 1
    46   46    5 1
    47   47    6 1
    48   48    7 1
    49   49    8 1
    50   50   11 1
    51   51   12 1
    52   52   13 1
    53   53   14 1
    54   54   16 1
    55   55   18 1
    56   56   19 1
    57   57   20 1
    58   58   21 1
    59   59   26 1
    60   60   27 1
    61   61   28 1
    62   62   29 1
    63   63   30 1
    64   64   33 1
    65   65   34 1
    66   66   35 1
    67   67   36 1
    68   68   38 1
    69   69   40 1
    70   70   41 1
    71   71   42 1
    72   72   43 1
    73   14   15 ar
    74   17   22 ar
    75   21   22 ar
    76   23   24 2
    77   29   30 ar
    78   36   37 ar
    79   39   44 ar
    80   43   44 ar
@<TRIPOS>SUBSTRUCTURE
     1 RES1 1

@<TRIPOS>CRYSIN
  10.7190   18.6270   15.5090  90.0000 101.1000  90.0000  14 1

