# MOL2 file generated by ConQuest
# Please check atom types

@<TRIPOS>MOLECULE
DASVAU01
    72    80     1
SMALL
NO_CHARGES
****
Generated from CSD

@<TRIPOS>ATOM
      1 C1         3.5471    7.4857    3.0770 C.ar      1 RES1    0.0000
      2 H1         4.1618    8.2095    3.0976 H         1 RES1    0.0000
      3 C2         3.8908    6.3044    2.4373 C.ar      1 RES1    0.0000
      4 H2         4.7433    6.2204    2.0280 H         1 RES1    0.0000
      5 C3         2.9974    5.2487    2.3929 C.ar      1 RES1    0.0000
      6 H3         3.2333    4.4436    1.9452 H         1 RES1    0.0000
      7 C4         1.7570    5.3662    3.0021 C.ar      1 RES1    0.0000
      8 H4         1.1461    4.6394    2.9712 H         1 RES1    0.0000
      9 C5         1.4027    6.5395    3.6565 C.ar      1 RES1    0.0000
     10 H5         0.5554    6.6101    4.0785 H         1 RES1    0.0000
     11 C6         2.2934    7.6150    3.6929 C.ar      1 RES1    0.0000
     12 C7         1.9511    8.8513    4.3472 C.1       1 RES1    0.0000
     13 C8         1.7347    9.9088    4.8563 C.1       1 RES1    0.0000
     14 C9         1.5502   11.2450    5.4299 C.3       1 RES1    0.0000
     15 C10        2.6315   11.6194    6.4625 C.ar      1 RES1    0.0000
     16 C11        3.7014   10.8400    6.8570 C.ar      1 RES1    0.0000
     17 H6         3.8210    9.9677    6.4976 H         1 RES1    0.0000
     18 C12        4.6058   11.3531    7.7929 C.ar      1 RES1    0.0000
     19 H7         5.3441   10.8265    8.0742 H         1 RES1    0.0000
     20 C13        4.4312   12.6241    8.3128 C.ar      1 RES1    0.0000
     21 H8         5.0451   12.9579    8.9558 H         1 RES1    0.0000
     22 C14        3.3600   13.4185    7.8982 C.ar      1 RES1    0.0000
     23 H9         3.2482   14.2950    8.2457 H         1 RES1    0.0000
     24 C15        2.4649   12.9102    6.9739 C.ar      1 RES1    0.0000
     25 C16        1.2564   13.6264    6.3884 C.3       1 RES1    0.0000
     26 H10        1.1413   14.5499    6.7533 H         1 RES1    0.0000
     27 C17        0.0535   12.7373    6.6562 C.ar      1 RES1    0.0000
     28 C18       -1.1007   13.0967    7.3277 C.ar      1 RES1    0.0000
     29 H11       -1.1912   13.9681    7.6951 H         1 RES1    0.0000
     30 C19       -2.1321   12.1644    7.4609 C.ar      1 RES1    0.0000
     31 H12       -2.9297   12.4001    7.9193 H         1 RES1    0.0000
     32 C20       -1.9911   10.8947    6.9250 C.ar      1 RES1    0.0000
     33 H13       -2.6995   10.2669    7.0136 H         1 RES1    0.0000
     34 C21       -0.8216   10.5242    6.2560 C.ar      1 RES1    0.0000
     35 H14       -0.7291    9.6519    5.8913 H         1 RES1    0.0000
     36 C22        0.1990   11.4502    6.1335 C.ar      1 RES1    0.0000
     37 C23        0.7121   15.9568    4.5274 C.ar      1 RES1    0.0000
     38 H15        0.0787   15.8224    5.2234 H         1 RES1    0.0000
     39 C24        0.8028   17.1980    3.9147 C.ar      1 RES1    0.0000
     40 H16        0.2286   17.9038    4.1853 H         1 RES1    0.0000
     41 C25        1.7341   17.4065    2.9056 C.ar      1 RES1    0.0000
     42 H17        1.8118   18.2621    2.5003 H         1 RES1    0.0000
     43 C26        2.5505   16.3639    2.4909 C.ar      1 RES1    0.0000
     44 H18        3.1763   16.5021    1.7903 H         1 RES1    0.0000
     45 C27        2.4544   15.1206    3.0966 C.ar      1 RES1    0.0000
     46 H19        3.0140   14.4114    2.8042 H         1 RES1    0.0000
     47 C28        1.5403   14.9010    4.1345 C.ar      1 RES1    0.0000
     48 C29        1.4796   13.6146    4.8588 C.2       1 RES1    0.0000
     49 C30        1.6223   12.3851    4.3529 C.2       1 RES1    0.0000
     50 C31        1.7982   11.9467    2.9461 C.ar      1 RES1    0.0000
     51 C32        0.6748   11.7688    2.1154 C.ar      1 RES1    0.0000
     52 C33       -0.6306   12.2091    2.4937 C.ar      1 RES1    0.0000
     53 H20       -0.7585   12.6217    3.3398 H         1 RES1    0.0000
     54 C34       -1.6966   12.0470    1.6576 C.ar      1 RES1    0.0000
     55 H21       -2.5500   12.3742    1.9151 H         1 RES1    0.0000
     56 C35       -1.5423   11.3935    0.4029 C.ar      1 RES1    0.0000
     57 H22       -2.2952   11.2735   -0.1640 H         1 RES1    0.0000
     58 C36       -0.3230   10.9410    0.0110 C.ar      1 RES1    0.0000
     59 H23       -0.2349   10.4978   -0.8259 H         1 RES1    0.0000
     60 C37        0.8330   11.1202    0.8380 C.ar      1 RES1    0.0000
     61 C38        2.0971   10.7013    0.4331 C.ar      1 RES1    0.0000
     62 H24        2.1942   10.2577   -0.4017 H         1 RES1    0.0000
     63 C39        3.2252   10.9191    1.2266 C.ar      1 RES1    0.0000
     64 C40        4.5316   10.5270    0.8016 C.ar      1 RES1    0.0000
     65 H25        4.6486   10.1487   -0.0617 H         1 RES1    0.0000
     66 C41        5.6114   10.6878    1.6135 C.ar      1 RES1    0.0000
     67 H26        6.4679   10.3980    1.3224 H         1 RES1    0.0000
     68 C42        5.4673   11.2862    2.8939 C.ar      1 RES1    0.0000
     69 H27        6.2264   11.3917    3.4557 H         1 RES1    0.0000
     70 C43        4.2410   11.7106    3.3215 C.ar      1 RES1    0.0000
     71 H28        4.1612   12.1267    4.1718 H         1 RES1    0.0000
     72 C44        3.0773   11.5405    2.5115 C.ar      1 RES1    0.0000
@<TRIPOS>BOND
     1    1    2 1
     2    3    1 ar
     3    4    3 1
     4    5    3 ar
     5    6    5 1
     6    7    5 ar
     7    8    7 1
     8    9    7 ar
     9   10    9 1
    10   11    1 ar
    11   12   11 1
    12   13   12 3
    13   14   13 1
    14   15   14 1
    15   16   15 ar
    16   17   16 1
    17   18   16 ar
    18   19   18 1
    19   20   18 ar
    20   21   20 1
    21   22   20 ar
    22   23   22 1
    23   24   15 ar
    24   25   24 1
    25   26   25 1
    26   27   25 1
    27   28   27 ar
    28   29   28 1
    29   30   28 ar
    30   31   30 1
    31   32   30 ar
    32   33   32 1
    33   34   32 ar
    34   35   34 1
    35   36   14 1
    36   37   38 1
    37   39   37 ar
    38   40   39 1
    39   41   39 ar
    40   42   41 1
    41   43   41 ar
    42   44   43 1
    43   45   43 ar
    44   46   45 1
    45   47   37 ar
    46   48   25 1
    47   49   14 1
    48   50   49 1
    49   51   50 ar
    50   52   51 ar
    51   53   52 1
    52   54   52 ar
    53   55   54 1
    54   56   54 ar
    55   57   56 1
    56   58   56 ar
    57   59   58 1
    58   60   51 ar
    59   61   60 ar
    60   62   61 1
    61   63   61 ar
    62   64   63 ar
    63   65   64 1
    64   66   64 ar
    65   67   66 1
    66   68   66 ar
    67   69   68 1
    68   70   68 ar
    69   71   70 1
    70   72   50 ar
    71    9   11 ar
    72   22   24 ar
    73   27   36 ar
    74   34   36 ar
    75   45   47 ar
    76   47   48 1
    77   48   49 2
    78   58   60 ar
    79   63   72 ar
    80   70   72 ar
@<TRIPOS>SUBSTRUCTURE
     1 RES1 1

@<TRIPOS>CRYSIN
  10.6160   18.4690   15.3060  90.0000 100.6120  90.0000  14 1

