# MOL2 file generated by ConQuest
# Please check atom types

@<TRIPOS>MOLECULE
DATDEK
    66    77     1
SMALL
NO_CHARGES
****
Generated from CSD

@<TRIPOS>ATOM
      1 C1        10.2956    4.1757    3.3054 C.ar      1 RES1    0.0000
      2 C2        10.9992    4.3141    4.5266 C.ar      1 RES1    0.0000
      3 H1        11.0228    5.1430    4.9488 H         1 RES1    0.0000
      4 C3        11.6453    3.2470    5.0983 C.ar      1 RES1    0.0000
      5 H2        12.1051    3.3572    5.8994 H         1 RES1    0.0000
      6 C4        11.6126    2.0045    4.4803 C.ar      1 RES1    0.0000
      7 H3        12.0772    1.2879    4.8513 H         1 RES1    0.0000
      8 C5        10.8953    1.8285    3.3196 C.ar      1 RES1    0.0000
      9 H4        10.8631    0.9898    2.9202 H         1 RES1    0.0000
     10 C6        10.2069    2.9089    2.7286 C.ar      1 RES1    0.0000
     11 C7         9.3594    2.7500    1.5644 C.ar      1 RES1    0.0000
     12 C8         9.5961    1.7125    0.6587 C.ar      1 RES1    0.0000
     13 H5        10.3005    1.1229    0.8082 H         1 RES1    0.0000
     14 C9         8.8124    1.5571   -0.4336 C.ar      1 RES1    0.0000
     15 H6         9.0560    0.9551   -1.0980 H         1 RES1    0.0000
     16 C10        7.6270    2.3110   -0.5632 C.ar      1 RES1    0.0000
     17 C11        7.2912    3.2826    0.4009 C.ar      1 RES1    0.0000
     18 C12        8.2943    3.6704    1.3522 C.ar      1 RES1    0.0000
     19 C13        6.7184    2.0112   -1.6441 C.ar      1 RES1    0.0000
     20 C14        7.1492    1.5038   -2.8725 C.ar      1 RES1    0.0000
     21 H7         8.0548    1.3458   -3.0120 H         1 RES1    0.0000
     22 C15        6.2512    1.2367   -3.8736 C.ar      1 RES1    0.0000
     23 H8         6.5468    0.9030   -4.6903 H         1 RES1    0.0000
     24 C16        4.8930    1.4668   -3.6607 C.ar      1 RES1    0.0000
     25 H9         4.2834    1.2908   -4.3414 H         1 RES1    0.0000
     26 C17        4.4461    1.9507   -2.4609 C.ar      1 RES1    0.0000
     27 H10        3.5357    2.0983   -2.3356 H         1 RES1    0.0000
     28 C18        5.3505    2.2277   -1.4099 C.ar      1 RES1    0.0000
     29 C19        4.9541    2.8467   -0.1638 C.2       1 RES1    0.0000
     30 C20        3.6285    2.6427    0.3923 C.ar      1 RES1    0.0000
     31 C21        2.8630    1.4946    0.1118 C.ar      1 RES1    0.0000
     32 H11        3.1555    0.8914   -0.5340 H         1 RES1    0.0000
     33 C22        1.6931    1.2567    0.7804 C.ar      1 RES1    0.0000
     34 H12        1.1938    0.4949    0.5846 H         1 RES1    0.0000
     35 C23        1.2419    2.1512    1.7574 C.ar      1 RES1    0.0000
     36 H13        0.4486    1.9825    2.2109 H         1 RES1    0.0000
     37 C24        1.9701    3.2696    2.0422 C.ar      1 RES1    0.0000
     38 H14        1.6601    3.8608    2.6895 H         1 RES1    0.0000
     39 C25        3.1783    3.5448    1.3771 C.ar      1 RES1    0.0000
     40 C26        3.9676    4.7233    1.6342 C.ar      1 RES1    0.0000
     41 C27        5.3484    4.7427    1.3358 C.ar      1 RES1    0.0000
     42 C28        5.8766    3.6464    0.5248 C.2       1 RES1    0.0000
     43 C29        6.0875    5.9739    1.5637 C.ar      1 RES1    0.0000
     44 C30        5.3058    7.1590    1.7239 C.ar      1 RES1    0.0000
     45 C31        3.9278    7.0786    2.0052 C.ar      1 RES1    0.0000
     46 H15        3.4495    7.8606    2.1668 H         1 RES1    0.0000
     47 C32        3.2959    5.9041    2.0457 C.ar      1 RES1    0.0000
     48 H16        2.4154    5.8578    2.3427 H         1 RES1    0.0000
     49 C33        7.5243    6.1241    1.6634 C.ar      1 RES1    0.0000
     50 C34        8.0637    7.4276    1.7289 C.ar      1 RES1    0.0000
     51 C35        7.2225    8.5621    1.5715 C.ar      1 RES1    0.0000
     52 H17        7.5986    9.4003    1.4305 H         1 RES1    0.0000
     53 C36        5.8999    8.4290    1.6242 C.ar      1 RES1    0.0000
     54 H18        5.3606    9.1861    1.5943 H         1 RES1    0.0000
     55 C37        8.4277    5.0026    1.9411 C.ar      1 RES1    0.0000
     56 C38        9.6034    5.2770    2.6524 C.ar      1 RES1    0.0000
     57 C39       10.1943    6.5984    2.6289 C.ar      1 RES1    0.0000
     58 C40       11.5328    6.8421    3.0092 C.ar      1 RES1    0.0000
     59 H19       12.0518    6.1443    3.3381 H         1 RES1    0.0000
     60 C41       12.0779    8.0973    2.8988 C.ar      1 RES1    0.0000
     61 H20       12.9541    8.2426    3.1715 H         1 RES1    0.0000
     62 C42       11.3427    9.1468    2.3890 C.ar      1 RES1    0.0000
     63 H21       11.7147    9.9965    2.3377 H         1 RES1    0.0000
     64 C43       10.0541    8.9297    1.9567 C.ar      1 RES1    0.0000
     65 H22        9.5730    9.6318    1.5822 H         1 RES1    0.0000
     66 C44        9.4504    7.6583    2.0728 C.ar      1 RES1    0.0000
@<TRIPOS>BOND
     1    1    2 ar
     2    2    3 1
     3    4    2 ar
     4    5    4 1
     5    6    4 ar
     6    7    6 1
     7    8    6 ar
     8    9    8 1
     9   10    1 ar
    10   11   10 1
    11   12   11 ar
    12   13   12 1
    13   14   12 ar
    14   15   14 1
    15   16   14 ar
    16   17   16 ar
    17   18   11 ar
    18   19   16 1
    19   20   19 ar
    20   21   20 1
    21   22   20 ar
    22   23   22 1
    23   24   22 ar
    24   25   24 1
    25   26   24 ar
    26   27   26 1
    27   28   19 ar
    28   29   28 1
    29   30   29 1
    30   31   30 ar
    31   32   31 1
    32   33   31 ar
    33   34   33 1
    34   35   33 ar
    35   36   35 1
    36   37   35 ar
    37   38   37 1
    38   39   30 ar
    39   40   39 1
    40   41   40 ar
    41   42   17 1
    42   43   41 ar
    43   44   43 ar
    44   45   44 ar
    45   46   45 1
    46   47   40 ar
    47   48   47 1
    48   49   43 ar
    49   50   49 ar
    50   51   50 ar
    51   52   51 1
    52   53   44 ar
    53   54   53 1
    54   55   18 1
    55   56    1 1
    56   57   56 ar
    57   58   57 ar
    58   59   58 1
    59   60   58 ar
    60   61   60 1
    61   62   60 ar
    62   63   62 1
    63   64   62 ar
    64   65   64 1
    65   66   50 ar
    66    8   10 ar
    67   17   18 ar
    68   26   28 ar
    69   29   42 2
    70   37   39 ar
    71   41   42 1
    72   45   47 ar
    73   49   55 ar
    74   51   53 ar
    75   55   56 ar
    76   57   66 ar
    77   64   66 ar
@<TRIPOS>SUBSTRUCTURE
     1 RES1 1

@<TRIPOS>CRYSIN
  25.3456   28.9418    7.1206  90.0000  90.0000  90.0000  45 1

