# MOL2 file generated by ConQuest
# Please check atom types

@<TRIPOS>MOLECULE
DATTID
    54    58     1
SMALL
NO_CHARGES
****
Generated from CSD

@<TRIPOS>ATOM
      1 C1         3.1364   14.1863   10.1067 C.3       1 RES1    0.0000
      2 H1         3.1813   15.1396    9.8433 H         1 RES1    0.0000
      3 H2         3.3562   14.1246   11.0699 H         1 RES1    0.0000
      4 C2         1.7041   13.6555    9.8718 C.3       1 RES1    0.0000
      5 H3         1.0810   14.1680   10.4464 H         1 RES1    0.0000
      6 H4         1.4544   13.8319    8.9296 H         1 RES1    0.0000
      7 C3         1.5083   12.1575   10.1559 C.3       1 RES1    0.0000
      8 H5         2.0963   11.9012   10.9104 H         1 RES1    0.0000
      9 H6         0.5728   12.0127   10.4452 H         1 RES1    0.0000
     10 C4         1.8014   11.2293    8.9729 C.3       1 RES1    0.0000
     11 H7         1.0003   11.1864    8.3924 H         1 RES1    0.0000
     12 H8         2.5399   11.6155    8.4391 H         1 RES1    0.0000
     13 C5         2.1834    9.8103    9.3924 C.3       1 RES1    0.0000
     14 H9         2.9206    9.8614   10.0519 H         1 RES1    0.0000
     15 H10        1.4069    9.3921    9.8421 H         1 RES1    0.0000
     16 C6         2.6208    8.9141    8.2399 C.3       1 RES1    0.0000
     17 H11        3.2810    9.4028    7.6873 H         1 RES1    0.0000
     18 H12        1.8353    8.7198    7.6693 H         1 RES1    0.0000
     19 C7         3.2395    7.5945    8.6944 C.3       1 RES1    0.0000
     20 H13        2.5291    7.0353    9.0962 H         1 RES1    0.0000
     21 H14        3.9054    7.7857    9.4020 H         1 RES1    0.0000
     22 C8         3.9248    6.7915    7.5849 C.3       1 RES1    0.0000
     23 H15        4.2990    7.4253    6.9235 H         1 RES1    0.0000
     24 H16        3.2390    6.2484    7.1213 H         1 RES1    0.0000
     25 C9         5.0485    5.8573    8.0553 C.3       1 RES1    0.0000
     26 H17        5.0824    5.0744    7.4499 H         1 RES1    0.0000
     27 H18        4.8250    5.5255    8.9607 H         1 RES1    0.0000
     28 C10        6.4540    6.5087    8.1004 C.3       1 RES1    0.0000
     29 H19        7.1125    5.8478    8.4319 H         1 RES1    0.0000
     30 H20        6.7217    6.7754    7.1849 H         1 RES1    0.0000
     31 C11        6.4655    7.7219    8.9998 C.ar      1 RES1    0.0000
     32 C12        6.5341    7.5184   10.3757 C.ar      1 RES1    0.0000
     33 H21        6.7795    6.6618   10.7042 H         1 RES1    0.0000
     34 C13        6.2555    8.5242   11.2747 C.ar      1 RES1    0.0000
     35 H22        6.3438    8.3616   12.2067 H         1 RES1    0.0000
     36 C14        5.3710   10.7989   11.7088 C.ar      1 RES1    0.0000
     37 H23        5.4301   10.6580   12.6467 H         1 RES1    0.0000
     38 C15        4.8420   11.9567   11.2510 C.ar      1 RES1    0.0000
     39 H24        4.4871   12.5828   11.8709 H         1 RES1    0.0000
     40 C16        4.1520   13.3963    9.3079 C.ar      1 RES1    0.0000
     41 C17        4.2874   13.6803    7.9532 C.ar      1 RES1    0.0000
     42 H25        3.9173   14.4857    7.6118 H         1 RES1    0.0000
     43 C18        4.9455   12.8236    7.0857 C.ar      1 RES1    0.0000
     44 H26        5.0558   13.0666    6.1741 H         1 RES1    0.0000
     45 C19        5.9624   10.6035    6.6583 C.ar      1 RES1    0.0000
     46 H27        6.0765   10.8096    5.7376 H         1 RES1    0.0000
     47 C20        6.2892    9.3672    7.1143 C.ar      1 RES1    0.0000
     48 H28        6.5739    8.7069    6.4930 H         1 RES1    0.0000
     49 C21        6.2167    9.0264    8.5134 C.ar      1 RES1    0.0000
     50 C22        5.8429    9.7830   10.8244 C.ar      1 RES1    0.0000
     51 C23        4.8044   12.2620    9.8394 C.ar      1 RES1    0.0000
     52 C24        5.4484   11.6008    7.5485 C.ar      1 RES1    0.0000
     53 C25        5.8510   10.0504    9.4269 C.ar      1 RES1    0.0000
     54 C26        5.3978   11.3226    8.9392 C.ar      1 RES1    0.0000
@<TRIPOS>BOND
     1    1    2 1
     2    3    1 1
     3    4    1 1
     4    5    4 1
     5    6    4 1
     6    7    4 1
     7    8    7 1
     8    9    7 1
     9   10    7 1
    10   11   10 1
    11   12   10 1
    12   13   10 1
    13   14   13 1
    14   15   13 1
    15   16   13 1
    16   17   16 1
    17   18   16 1
    18   19   16 1
    19   20   19 1
    20   21   19 1
    21   22   19 1
    22   23   22 1
    23   24   22 1
    24   25   22 1
    25   26   25 1
    26   27   25 1
    27   28   25 1
    28   29   28 1
    29   30   28 1
    30   31   28 1
    31   32   31 ar
    32   33   32 1
    33   34   32 ar
    34   35   34 1
    35   36   37 1
    36   38   36 ar
    37   39   38 1
    38   40    1 1
    39   41   40 ar
    40   42   41 1
    41   43   41 ar
    42   44   43 1
    43   45   46 1
    44   47   45 ar
    45   48   47 1
    46   49   31 ar
    47   50   34 ar
    48   51   38 ar
    49   52   43 ar
    50   53   49 ar
    51   54   51 ar
    52   36   50 ar
    53   40   51 ar
    54   45   52 ar
    55   47   49 ar
    56   50   53 ar
    57   52   54 ar
    58   53   54 ar
@<TRIPOS>SUBSTRUCTURE
     1 RES1 1

@<TRIPOS>CRYSIN
   7.3519   10.5590   12.9010  73.7660  73.4580  80.2300   2 1

