# MOL2 file generated by ConQuest
# Please check atom types

@<TRIPOS>MOLECULE
DATTEZ
   108   116     2
SMALL
NO_CHARGES
****
Generated from CSD

@<TRIPOS>ATOM
      1 C1        -3.2566   34.2835    8.6545 C.3       1 RES1    0.0000
      2 H1        -2.5957   34.0421    7.9564 H         1 RES1    0.0000
      3 H2        -2.8647   34.9987    9.2162 H         1 RES1    0.0000
      4 C2        -4.5472   34.7973    7.9897 C.3       1 RES1    0.0000
      5 H3        -5.1342   35.1691    8.6943 H         1 RES1    0.0000
      6 H4        -4.3101   35.5413    7.3786 H         1 RES1    0.0000
      7 C3        -5.3365   33.7632    7.2024 C.3       1 RES1    0.0000
      8 H5        -6.2320   34.1395    7.0113 H         1 RES1    0.0000
      9 H6        -5.4698   32.9708    7.7824 H         1 RES1    0.0000
     10 C4        -4.7285   33.2863    5.8803 C.3       1 RES1    0.0000
     11 H7        -4.8137   34.0039    5.2026 H         1 RES1    0.0000
     12 H8        -3.7649   33.1030    6.0113 H         1 RES1    0.0000
     13 C5        -5.4058   32.0431    5.3755 C.3       1 RES1    0.0000
     14 H9        -6.3655   32.2438    5.2445 H         1 RES1    0.0000
     15 H10       -5.3426   31.3499    6.0779 H         1 RES1    0.0000
     16 C6        -4.8671   31.4633    4.0899 C.3       1 RES1    0.0000
     17 H11       -3.8791   31.4230    4.1490 H         1 RES1    0.0000
     18 H12       -5.0973   32.0734    3.3456 H         1 RES1    0.0000
     19 C7        -5.3921   30.0817    3.7655 C.3       1 RES1    0.0000
     20 H13       -5.1022   29.8403    2.8505 H         1 RES1    0.0000
     21 H14       -6.3815   30.1116    3.7666 H         1 RES1    0.0000
     22 C8        -4.9342   28.9746    4.7300 C.3       1 RES1    0.0000
     23 H15       -5.1747   29.2351    5.6558 H         1 RES1    0.0000
     24 H16       -5.4194   28.1394    4.5152 H         1 RES1    0.0000
     25 C9        -3.4471   28.7120    4.6613 C.3       1 RES1    0.0000
     26 H17       -2.9651   29.5725    4.7590 H         1 RES1    0.0000
     27 H18       -3.2277   28.3447    3.7688 H         1 RES1    0.0000
     28 C10       -2.9420   27.7318    5.7428 C.3       1 RES1    0.0000
     29 H19       -3.1784   26.8142    5.4604 H         1 RES1    0.0000
     30 H20       -1.9540   27.7847    5.7707 H         1 RES1    0.0000
     31 C11       -3.4617   27.9412    7.1369 C.ar      1 RES1    0.0000
     32 C12       -4.1736   26.9332    7.7770 C.ar      1 RES1    0.0000
     33 H21       -4.2845   26.1012    7.3345 H         1 RES1    0.0000
     34 C13       -4.7259   27.0994    9.0315 C.ar      1 RES1    0.0000
     35 H22       -5.1672   26.3655    9.4450 H         1 RES1    0.0000
     36 C14       -5.2768   28.5398   10.9572 C.ar      1 RES1    0.0000
     37 H23       -5.7195   27.8229   11.3954 H         1 RES1    0.0000
     38 C15       -5.2526   29.7596   11.5404 C.ar      1 RES1    0.0000
     39 H24       -5.6558   29.8751   12.3943 H         1 RES1    0.0000
     40 C16       -4.7011   32.1562   11.4234 C.ar      1 RES1    0.0000
     41 H25       -5.0951   32.3065   12.2751 H         1 RES1    0.0000
     42 C17       -4.1949   33.2185   10.7123 C.ar      1 RES1    0.0000
     43 H26       -4.2913   34.0908   11.0721 H         1 RES1    0.0000
     44 C18       -3.5570   33.0731    9.5084 C.ar      1 RES1    0.0000
     45 C19       -2.5686   31.4668    7.8522 C.ar      1 RES1    0.0000
     46 H27       -2.0602   32.1673    7.4591 H         1 RES1    0.0000
     47 C20       -2.5213   30.2389    7.2916 C.ar      1 RES1    0.0000
     48 H28       -1.9614   30.0873    6.5398 H         1 RES1    0.0000
     49 C21       -3.3033   29.1732    7.8178 C.ar      1 RES1    0.0000
     50 C22       -4.6529   28.3106    9.7028 C.ar      1 RES1    0.0000
     51 C23       -4.6410   30.8664   10.9078 C.ar      1 RES1    0.0000
     52 C24       -3.3527   31.7558    9.0111 C.ar      1 RES1    0.0000
     53 C25       -3.9494   29.3756    9.0605 C.ar      1 RES1    0.0000
     54 C26       -3.9576   30.6640    9.6652 C.ar      1 RES1    0.0000
     55 C27        1.7172   33.2724    9.7908 C.3       2 RES2    0.0000
     56 H29        1.4000   34.1639   10.0776 H         2 RES2    0.0000
     57 H30        2.7069   33.3012    9.7822 H         2 RES2    0.0000
     58 C28        1.2801   32.2501   10.8477 C.3       2 RES2    0.0000
     59 H31        1.8781   31.4612   10.7908 H         2 RES2    0.0000
     60 H32        1.4017   32.6508   11.7445 H         2 RES2    0.0000
     61 C29       -0.1600   31.7750   10.7199 C.3       2 RES2    0.0000
     62 H33       -0.3297   31.5238    9.7779 H         2 RES2    0.0000
     63 H34       -0.7643   32.5256   10.9443 H         2 RES2    0.0000
     64 C30       -0.5042   30.5812   11.6199 C.3       2 RES2    0.0000
     65 H35       -0.2792   30.8177   12.5543 H         2 RES2    0.0000
     66 H36       -1.4822   30.4316   11.5791 H         2 RES2    0.0000
     67 C31        0.1952   29.2817   11.2751 C.3       2 RES2    0.0000
     68 H37        0.0730   28.6473   12.0259 H         2 RES2    0.0000
     69 H38        1.1653   29.4577   11.1860 H         2 RES2    0.0000
     70 C32       -0.3002   28.6233    9.9970 C.3       2 RES2    0.0000
     71 H39       -1.2248   28.3029   10.1506 H         2 RES2    0.0000
     72 H40       -0.3386   29.3116    9.2871 H         2 RES2    0.0000
     73 C33        0.5232   27.4681    9.4901 C.3       2 RES2    0.0000
     74 H41        0.5510   26.7620   10.1829 H         2 RES2    0.0000
     75 H42        1.4510   27.7742    9.3333 H         2 RES2    0.0000
     76 C34       -0.0360   26.8772    8.1938 C.3       2 RES2    0.0000
     77 H43       -0.8265   26.3273    8.4225 H         2 RES2    0.0000
     78 H44       -0.3517   27.6247    7.6267 H         2 RES2    0.0000
     79 C35        0.9075   26.0243    7.3678 C.3       2 RES2    0.0000
     80 H45        1.2681   25.3081    7.9478 H         2 RES2    0.0000
     81 H46        0.3841   25.5899    6.6493 H         2 RES2    0.0000
     82 C36        2.0740   26.7551    6.7320 C.3       2 RES2    0.0000
     83 H47        2.6993   27.0473    7.4419 H         2 RES2    0.0000
     84 H48        2.5591   26.1325    6.1348 H         2 RES2    0.0000
     85 C37        1.6283   27.9534    5.9437 C.ar      2 RES2    0.0000
     86 C38        1.0085   27.7694    4.7193 C.ar      2 RES2    0.0000
     87 H49        0.9918   26.8977    4.3444 H         2 RES2    0.0000
     88 C39        0.4190   28.7909    4.0298 C.ar      2 RES2    0.0000
     89 H50        0.0278   28.6195    3.1813 H         2 RES2    0.0000
     90 C40       -0.2614   31.1659    3.8987 C.ar      2 RES2    0.0000
     91 H51       -0.6396   31.0299    3.0384 H         2 RES2    0.0000
     92 C41       -0.3502   32.3670    4.4626 C.ar      2 RES2    0.0000
     93 H52       -0.7938   33.0647    3.9954 H         2 RES2    0.0000
     94 C42        0.0711   33.8466    6.4066 C.ar      2 RES2    0.0000
     95 H53       -0.3578   34.5673    5.9619 H         2 RES2    0.0000
     96 C43        0.5483   34.0237    7.6954 C.ar      2 RES2    0.0000
     97 H54        0.3896   34.8560    8.1282 H         2 RES2    0.0000
     98 C44        1.2454   33.0425    8.3796 C.ar      2 RES2    0.0000
     99 C45        2.3221   30.8017    8.2313 C.ar      2 RES2    0.0000
    100 H55        2.8285   30.9777    9.0154 H         2 RES2    0.0000
    101 C46        2.4082   29.5916    7.6600 C.ar      2 RES2    0.0000
    102 H56        2.9668   28.9360    8.0574 H         2 RES2    0.0000
    103 C47        1.6840   29.2570    6.4689 C.ar      2 RES2    0.0000
    104 C48        0.3857   30.0814    4.5517 C.ar      2 RES2    0.0000
    105 C49        0.2092   32.6400    5.7643 C.ar      2 RES2    0.0000
    106 C50        1.4997   31.8191    7.6997 C.ar      2 RES2    0.0000
    107 C51        1.0056   30.3134    5.8030 C.ar      2 RES2    0.0000
    108 C52        0.9161   31.5910    6.4259 C.ar      2 RES2    0.0000
@<TRIPOS>BOND
     1    1    2 1
     2    3    1 1
     3    4    1 1
     4    5    4 1
     5    6    4 1
     6    7    4 1
     7    8    7 1
     8    9    7 1
     9   10    7 1
    10   11   10 1
    11   12   10 1
    12   13   10 1
    13   14   13 1
    14   15   13 1
    15   16   13 1
    16   17   16 1
    17   18   16 1
    18   19   16 1
    19   20   19 1
    20   21   19 1
    21   22   19 1
    22   23   22 1
    23   24   22 1
    24   25   22 1
    25   26   25 1
    26   27   25 1
    27   28   25 1
    28   29   28 1
    29   30   28 1
    30   31   28 1
    31   32   31 ar
    32   33   32 1
    33   34   32 ar
    34   35   34 1
    35   36   37 1
    36   38   36 ar
    37   39   38 1
    38   40   41 1
    39   42   40 ar
    40   43   42 1
    41   44    1 1
    42   45   46 1
    43   47   45 ar
    44   48   47 1
    45   49   31 ar
    46   50   34 ar
    47   51   38 ar
    48   52   44 ar
    49   53   49 ar
    50   54   51 ar
    51   55   56 1
    52   57   55 1
    53   58   55 1
    54   59   58 1
    55   60   58 1
    56   61   58 1
    57   62   61 1
    58   63   61 1
    59   64   61 1
    60   65   64 1
    61   66   64 1
    62   67   64 1
    63   68   67 1
    64   69   67 1
    65   70   67 1
    66   71   70 1
    67   72   70 1
    68   73   70 1
    69   74   73 1
    70   75   73 1
    71   76   73 1
    72   77   76 1
    73   78   76 1
    74   79   76 1
    75   80   79 1
    76   81   79 1
    77   82   79 1
    78   83   82 1
    79   84   82 1
    80   85   82 1
    81   86   85 ar
    82   87   86 1
    83   88   86 ar
    84   89   88 1
    85   90   91 1
    86   92   90 ar
    87   93   92 1
    88   94   95 1
    89   96   94 ar
    90   97   96 1
    91   98   55 1
    92   99  100 1
    93  101   99 ar
    94  102  101 1
    95  103   85 ar
    96  104   88 ar
    97  105   92 ar
    98  106   98 ar
    99  107  103 ar
   100  108  105 ar
   101   36   50 ar
   102   40   51 ar
   103   42   44 ar
   104   45   52 ar
   105   47   49 ar
   106   50   53 ar
   107   52   54 ar
   108   53   54 ar
   109   90  104 ar
   110   94  105 ar
   111   96   98 ar
   112   99  106 ar
   113  101  103 ar
   114  104  107 ar
   115  106  108 ar
   116  107  108 ar
@<TRIPOS>SUBSTRUCTURE
     1 RES1 1
     2 RES2 55

@<TRIPOS>CRYSIN
   9.7990   34.7830   13.0650  90.0000 124.7080  90.0000  14 1

