# MOL2 file generated by ConQuest
# Please check atom types

@<TRIPOS>MOLECULE
DBPERY
    44    50     1
SMALL
NO_CHARGES
****
Generated from CSD

@<TRIPOS>ATOM
      1 C1        -2.6526    2.3037    5.1939 C.ar      1 RES1    0.0000
      2 C2        -2.2017    1.3006    6.1833 C.ar      1 RES1    0.0000
      3 C3        -1.9999    2.2913    3.8943 C.ar      1 RES1    0.0000
      4 C4        -2.4577    3.2058    2.9471 C.ar      1 RES1    0.0000
      5 C5        -3.4690    4.0960    3.2495 C.ar      1 RES1    0.0000
      6 C6        -4.0952    4.1259    4.4868 C.ar      1 RES1    0.0000
      7 C7        -3.6653    3.2026    5.4793 C.ar      1 RES1    0.0000
      8 C8        -4.2938    3.2053    6.7952 C.ar      1 RES1    0.0000
      9 C9        -5.2906    4.1319    7.1352 C.ar      1 RES1    0.0000
     10 C10       -5.8708    4.1299    8.4225 C.ar      1 RES1    0.0000
     11 C11       -5.4683    3.1342    9.3189 C.ar      1 RES1    0.0000
     12 C12       -4.5055    2.1877    9.0141 C.ar      1 RES1    0.0000
     13 C13       -3.9136    2.2689    7.7338 C.ar      1 RES1    0.0000
     14 C14       -2.8728    1.3739    7.4165 C.ar      1 RES1    0.0000
     15 H1        -2.0825    3.5512    2.0124 H         1 RES1    0.0000
     16 H2        -3.7189    4.3827    2.4813 H         1 RES1    0.0000
     17 H3        -4.8980    4.3043    4.6109 H         1 RES1    0.0000
     18 H4        -5.9010    4.7698    6.6037 H         1 RES1    0.0000
     19 H5        -6.6297    4.5972    8.6161 H         1 RES1    0.0000
     20 H6        -6.0174    3.1328   10.2573 H         1 RES1    0.0000
     21 H7        -4.1310    1.6422    9.7298 H         1 RES1    0.0000
     22 H8        -2.4718    0.4969    8.2644 H         1 RES1    0.0000
     23 C3E       -1.1366    0.3237    5.8746 C.ar      1 RES1    0.0000
     24 C2E       -0.9348    1.3144    3.5856 C.ar      1 RES1    0.0000
     25 C1E       -0.4839    0.3113    4.5749 C.ar      1 RES1    0.0000
     26 C4E       -0.6787   -0.5908    6.8218 C.ar      1 RES1    0.0000
     27 C14E      -0.2636    1.2411    2.3523 C.ar      1 RES1    0.0000
     28 C7E        0.5289   -0.5876    4.2895 C.ar      1 RES1    0.0000
     29 C5E        0.3325   -1.4810    6.5193 C.ar      1 RES1    0.0000
     30 H1E       -1.0540   -0.9362    7.7565 H         1 RES1    0.0000
     31 C13E       0.7772    0.3461    2.0350 C.ar      1 RES1    0.0000
     32 H8E       -0.6646    2.1182    1.5044 H         1 RES1    0.0000
     33 C6E        0.9588   -1.5109    5.2820 C.ar      1 RES1    0.0000
     34 C8E        1.1574   -0.5903    2.9736 C.ar      1 RES1    0.0000
     35 H2E        0.5825   -1.7677    7.2876 H         1 RES1    0.0000
     36 C12E       1.3691    0.4273    0.7547 C.ar      1 RES1    0.0000
     37 H3E        1.7615   -1.6893    5.1580 H         1 RES1    0.0000
     38 C9E        2.1541   -1.5169    2.6337 C.ar      1 RES1    0.0000
     39 C11E       2.3319   -0.5192    0.4500 C.ar      1 RES1    0.0000
     40 H7E        0.9946    0.9728    0.0391 H         1 RES1    0.0000
     41 C10E       2.7344   -1.5149    1.3463 C.ar      1 RES1    0.0000
     42 H4E        2.7646   -2.1548    3.1651 H         1 RES1    0.0000
     43 H6E        2.8810   -0.5178   -0.4884 H         1 RES1    0.0000
     44 H5E        3.4932   -1.9822    1.1527 H         1 RES1    0.0000
@<TRIPOS>BOND
     1    1    2 ar
     2    2   14 ar
     3    3    1 ar
     4    4    3 ar
     5    5    4 ar
     6    6    5 ar
     7    7    1 ar
     8    8    7 ar
     9    9    8 ar
    10   10    9 ar
    11   11   10 ar
    12   12   11 ar
    13   13    8 ar
    14   14   13 ar
    15   15    4 1
    16   16    5 1
    17   17    6 1
    18   18    9 1
    19   19   10 1
    20   20   11 1
    21   21   12 1
    22   22   14 1
    23   23    2 ar
    24   24    3 ar
    25   25   23 ar
    26   26   23 ar
    27   27   24 ar
    28   28   25 ar
    29   29   26 ar
    30   30   26 1
    31   31   27 ar
    32   32   27 1
    33   33   28 ar
    34   34   28 ar
    35   35   29 1
    36   36   31 ar
    37   37   33 1
    38   38   34 ar
    39   39   36 ar
    40   40   36 1
    41   41   38 ar
    42   42   38 1
    43   43   39 1
    44   44   41 1
    45    6    7 ar
    46   12   13 ar
    47   24   25 ar
    48   29   33 ar
    49   31   34 ar
    50   39   41 ar
@<TRIPOS>SUBSTRUCTURE
     1 RES1 1

@<TRIPOS>CRYSIN
  16.5100    5.2300   20.5200  90.0000 107.8000  90.0000  15 2

