# MOL2 file generated by ConQuest
# Please check atom types

@<TRIPOS>MOLECULE
DBPHEN04
   108   120     3
SMALL
NO_CHARGES
****
Generated from CSD

@<TRIPOS>ATOM
      1 C1         3.9624    2.2585   12.4693 C.ar      1 RES1    0.0000
      2 C2         3.5507    3.3189   13.3062 C.ar      1 RES1    0.0000
      3 H1         3.7894    3.2951   14.2266 H         1 RES1    0.0000
      4 C3         2.8237    4.3749   12.8429 C.ar      1 RES1    0.0000
      5 H2         2.5694    5.0724   13.4361 H         1 RES1    0.0000
      6 C4         2.4480    4.4367   11.4893 C.ar      1 RES1    0.0000
      7 H3         1.9720    5.1880   11.1569 H         1 RES1    0.0000
      8 C5         2.7754    3.4028   10.6584 C.ar      1 RES1    0.0000
      9 H4         2.5076    3.4363    9.7479 H         1 RES1    0.0000
     10 C6         3.5015    2.2894   11.1205 C.ar      1 RES1    0.0000
     11 C7         3.7063    1.1566   10.2848 C.ar      1 RES1    0.0000
     12 H5         3.5107    1.2131    9.3564 H         1 RES1    0.0000
     13 C8         4.1743    0.0079   10.7985 C.ar      1 RES1    0.0000
     14 H6         4.2178   -0.7646   10.2467 H         1 RES1    0.0000
     15 C9         4.6078   -0.0759   12.1573 C.ar      1 RES1    0.0000
     16 C10        4.8917   -1.3306   12.7429 C.ar      1 RES1    0.0000
     17 H7         4.8432   -2.1181   12.2142 H         1 RES1    0.0000
     18 C11        5.2326   -1.4224   14.0463 C.ar      1 RES1    0.0000
     19 H8         5.2869   -2.2771   14.4585 H         1 RES1    0.0000
     20 C12        5.5113   -0.2596   14.8099 C.ar      1 RES1    0.0000
     21 C13        5.9725   -0.3611   16.1558 C.ar      1 RES1    0.0000
     22 H9         5.9870   -1.2122   16.5782 H         1 RES1    0.0000
     23 C14        6.3874    0.7152   16.8413 C.ar      1 RES1    0.0000
     24 H10        6.6113    0.6295   17.7602 H         1 RES1    0.0000
     25 C15        6.4962    1.9928   16.2019 C.ar      1 RES1    0.0000
     26 C16        7.1361    3.0796   16.8325 C.ar      1 RES1    0.0000
     27 H11        7.3853    3.0037   17.7452 H         1 RES1    0.0000
     28 C17        7.4067    4.2345   16.1655 C.ar      1 RES1    0.0000
     29 H12        7.8325    4.9567   16.6106 H         1 RES1    0.0000
     30 C18        7.0497    4.3475   14.8104 C.ar      1 RES1    0.0000
     31 H13        7.2839    5.1271   14.3214 H         1 RES1    0.0000
     32 C19        6.3651    3.3357   14.1964 C.ar      1 RES1    0.0000
     33 H14        6.1101    3.4390   13.2865 H         1 RES1    0.0000
     34 C20        6.0228    2.1402   14.8695 C.ar      1 RES1    0.0000
     35 C21        5.3653    1.0189   14.2174 C.ar      1 RES1    0.0000
     36 C22        4.6793    1.0913   12.9476 C.ar      1 RES1    0.0000
     37 C23       -2.4370    2.1852   10.2659 C.ar      2 RES2    0.0000
     38 C24       -2.7196    0.9315   10.8559 C.ar      2 RES2    0.0000
     39 H15       -2.3746    0.7417   11.7204 H         2 RES2    0.0000
     40 C25       -3.4736   -0.0141   10.2225 C.ar      2 RES2    0.0000
     41 H16       -3.6594   -0.8379   10.6581 H         2 RES2    0.0000
     42 C26       -3.9785    0.2216    8.9300 C.ar      2 RES2    0.0000
     43 H17       -4.4628   -0.4547    8.4711 H         2 RES2    0.0000
     44 C27       -3.7624    1.4330    8.3484 C.ar      2 RES2    0.0000
     45 H18       -4.1037    1.5954    7.4761 H         2 RES2    0.0000
     46 C28       -3.0447    2.4528    9.0068 C.ar      2 RES2    0.0000
     47 C29       -2.9995    3.7842    8.4821 C.ar      2 RES2    0.0000
     48 H19       -3.3098    3.9546    7.6008 H         2 RES2    0.0000
     49 C30       -2.5202    4.7969    9.2305 C.ar      2 RES2    0.0000
     50 H20       -2.5918    5.6869    8.9050 H         2 RES2    0.0000
     51 C31       -1.9080    4.5656   10.5005 C.ar      2 RES2    0.0000
     52 C32       -1.5631    5.6622   11.3304 C.ar      2 RES2    0.0000
     53 H21       -1.6526    6.5495   11.0023 H         2 RES2    0.0000
     54 C33       -1.1068    5.4511   12.5922 C.ar      2 RES2    0.0000
     55 H22       -1.0108    6.1849   13.1867 H         2 RES2    0.0000
     56 C34       -0.7728    4.1427   13.0279 C.ar      2 RES2    0.0000
     57 C35       -0.2415    3.9484   14.3393 C.ar      2 RES2    0.0000
     58 H23       -0.2364    4.6724   14.9548 H         2 RES2    0.0000
     59 C36        0.2523    2.7547   14.7164 C.ar      2 RES2    0.0000
     60 H24        0.5269    2.6232   15.6156 H         2 RES2    0.0000
     61 C37        0.3695    1.6864   13.7827 C.ar      2 RES2    0.0000
     62 C38        1.0901    0.5209   14.1069 C.ar      2 RES2    0.0000
     63 H25        1.4187    0.4097   14.9922 H         2 RES2    0.0000
     64 C39        1.3266   -0.4512   13.1820 C.ar      2 RES2    0.0000
     65 H26        1.7925   -1.2432   13.4236 H         2 RES2    0.0000
     66 C40        0.8729   -0.2693   11.8661 C.ar      2 RES2    0.0000
     67 H27        1.0679   -0.9235   11.2067 H         2 RES2    0.0000
     68 C41        0.1522    0.8432   11.5264 C.ar      2 RES2    0.0000
     69 H28       -0.1364    0.9509   10.6282 H         2 RES2    0.0000
     70 C42       -0.1765    1.8356   12.4795 C.ar      2 RES2    0.0000
     71 C43       -0.9140    3.0461   12.1526 C.ar      2 RES2    0.0000
     72 C44       -1.7104    3.2386   10.9551 C.ar      2 RES2    0.0000
     73 C45        4.3736    0.1015    5.3256 C.ar      3 RES3    0.0000
     74 C46        3.7721   -1.1178    4.9483 C.ar      3 RES3    0.0000
     75 H29        2.8649   -1.2714    5.1819 H         3 RES3    0.0000
     76 C47        4.4491   -2.0899    4.2568 C.ar      3 RES3    0.0000
     77 H30        4.0099   -2.8960    4.0124 H         3 RES3    0.0000
     78 C48        5.7989   -1.8859    3.9119 C.ar      3 RES3    0.0000
     79 H31        6.2938   -2.5746    3.4837 H         3 RES3    0.0000
     80 C49        6.3932   -0.6834    4.2002 C.ar      3 RES3    0.0000
     81 H32        7.2976   -0.5430    3.9500 H         3 RES3    0.0000
     82 C50        5.6973    0.3488    4.8577 C.ar      3 RES3    0.0000
     83 C51        6.2658    1.6564    4.9947 C.ar      3 RES3    0.0000
     84 H33        7.1748    1.8065    4.7605 H         3 RES3    0.0000
     85 C52        5.5064    2.6779    5.4570 C.ar      3 RES3    0.0000
     86 H34        5.8729    3.5546    5.4662 H         3 RES3    0.0000
     87 C53        4.1804    2.4810    5.9288 C.ar      3 RES3    0.0000
     88 C54        3.3651    3.5953    6.2477 C.ar      3 RES3    0.0000
     89 H35        3.7279    4.4720    6.2168 H         3 RES3    0.0000
     90 C55        2.0649    3.4125    6.5994 C.ar      3 RES3    0.0000
     91 H36        1.4987    4.1683    6.6956 H         3 RES3    0.0000
     92 C56        1.5424    2.1252    6.8225 C.ar      3 RES3    0.0000
     93 C57        0.1830    1.9618    7.2382 C.ar      3 RES3    0.0000
     94 H37       -0.3914    2.7185    7.2642 H         3 RES3    0.0000
     95 C58       -0.2973    0.7602    7.5924 C.ar      3 RES3    0.0000
     96 H38       -1.2244    0.6569    7.7654 H         3 RES3    0.0000
     97 C59        0.5733   -0.3620    7.7101 C.ar      3 RES3    0.0000
     98 C60        0.1217   -1.5548    8.2978 C.ar      3 RES3    0.0000
     99 H39       -0.8033   -1.6590    8.4911 H         3 RES3    0.0000
    100 C61        0.9824   -2.5649    8.5953 C.ar      3 RES3    0.0000
    101 H40        0.6610   -3.3745    8.9774 H         3 RES3    0.0000
    102 C62        2.3526   -2.3971    8.3322 C.ar      3 RES3    0.0000
    103 H41        2.9674   -3.0734    8.5933 H         3 RES3    0.0000
    104 C63        2.8131   -1.2705    7.7041 C.ar      3 RES3    0.0000
    105 H42        3.7419   -1.1849    7.5260 H         3 RES3    0.0000
    106 C64        1.9386   -0.2331    7.3136 C.ar      3 RES3    0.0000
    107 C65        2.3848    0.9968    6.6896 C.ar      3 RES3    0.0000
    108 C66        3.6542    1.1681    6.0166 C.ar      3 RES3    0.0000
@<TRIPOS>BOND
     1    1    2 ar
     2    2    3 1
     3    4    2 ar
     4    5    4 1
     5    6    4 ar
     6    7    6 1
     7    8    6 ar
     8    9    8 1
     9   10    1 ar
    10   11   10 ar
    11   12   11 1
    12   13   11 ar
    13   14   13 1
    14   15   13 ar
    15   16   15 ar
    16   17   16 1
    17   18   16 ar
    18   19   18 1
    19   20   18 ar
    20   21   20 ar
    21   22   21 1
    22   23   21 ar
    23   24   23 1
    24   25   23 ar
    25   26   25 ar
    26   27   26 1
    27   28   26 ar
    28   29   28 1
    29   30   28 ar
    30   31   30 1
    31   32   30 ar
    32   33   32 1
    33   34   25 ar
    34   35   20 ar
    35   36    1 ar
    36   37   38 ar
    37   38   39 1
    38   40   38 ar
    39   41   40 1
    40   42   40 ar
    41   43   42 1
    42   44   42 ar
    43   45   44 1
    44   46   37 ar
    45   47   46 ar
    46   48   47 1
    47   49   47 ar
    48   50   49 1
    49   51   49 ar
    50   52   51 ar
    51   53   52 1
    52   54   52 ar
    53   55   54 1
    54   56   54 ar
    55   57   56 ar
    56   58   57 1
    57   59   57 ar
    58   60   59 1
    59   61   59 ar
    60   62   61 ar
    61   63   62 1
    62   64   62 ar
    63   65   64 1
    64   66   64 ar
    65   67   66 1
    66   68   66 ar
    67   69   68 1
    68   70   61 ar
    69   71   56 ar
    70   72   37 ar
    71   73   74 ar
    72   74   75 1
    73   76   74 ar
    74   77   76 1
    75   78   76 ar
    76   79   78 1
    77   80   78 ar
    78   81   80 1
    79   82   73 ar
    80   83   82 ar
    81   84   83 1
    82   85   83 ar
    83   86   85 1
    84   87   85 ar
    85   88   87 ar
    86   89   88 1
    87   90   88 ar
    88   91   90 1
    89   92   90 ar
    90   93   92 ar
    91   94   93 1
    92   95   93 ar
    93   96   95 1
    94   97   95 ar
    95   98   97 ar
    96   99   98 1
    97  100   98 ar
    98  101  100 1
    99  102  100 ar
   100  103  102 1
   101  104  102 ar
   102  105  104 1
   103  106   97 ar
   104  107   92 ar
   105  108   73 ar
   106    8   10 ar
   107   15   36 ar
   108   32   34 ar
   109   34   35 ar
   110   35   36 ar
   111   44   46 ar
   112   51   72 ar
   113   68   70 ar
   114   70   71 ar
   115   71   72 ar
   116   80   82 ar
   117   87  108 ar
   118  104  106 ar
   119  106  107 ar
   120  107  108 ar
@<TRIPOS>SUBSTRUCTURE
     1 RES1 1
     2 RES2 37
     3 RES3 73

@<TRIPOS>CRYSIN
  19.3065    8.8292   25.6713  90.0000 103.7360  90.0000  14 1

