# MOL2 file generated by ConQuest
# Please check atom types

@<TRIPOS>MOLECULE
DBZCOR
    32    40     1
SMALL
NO_CHARGES
****
Generated from CSD

@<TRIPOS>ATOM
      1 C1         5.3233   -1.1745    2.5121 C.ar      1 RES1    0.0000
      2 C2         5.1191   -2.9754    0.9108 C.ar      1 RES1    0.0000
      3 C3         6.5023   -2.9911    0.6537 C.ar      1 RES1    0.0000
      4 C4         7.1262   -3.9254   -0.2067 C.ar      1 RES1    0.0000
      5 C5         8.5094   -3.9463   -0.4363 C.ar      1 RES1    0.0000
      6 C6         9.0978   -4.8181   -1.3196 C.ar      1 RES1    0.0000
      7 C7        10.4933   -4.8181   -1.4971 C.ar      1 RES1    0.0000
      8 C8        11.0935   -5.6950   -2.4095 C.ar      1 RES1    0.0000
      9 C9         6.6788   -1.2006    2.3024 C.ar      1 RES1    0.0000
     10 C10        7.3018   -2.0515    1.4084 C.ar      1 RES1    0.0000
     11 C11        8.6725   -2.0880    1.2017 C.ar      1 RES1    0.0000
     12 C12        9.2769   -2.9754    0.3184 C.ar      1 RES1    0.0000
     13 C13       10.2694   -6.6242   -3.0923 C.ar      1 RES1    0.0000
     14 C14        8.9211   -6.6607   -2.8841 C.ar      1 RES1    0.0000
     15 C15        8.2878   -5.7472   -2.0222 C.ar      1 RES1    0.0000
     16 C16        4.5109   -2.0932    1.7911 C.ar      1 RES1    0.0000
     17 C4E        4.2888   -3.9046    0.2067 C.ar      1 RES1    0.0000
     18 C2E        6.2959   -4.8546   -0.9108 C.ar      1 RES1    0.0000
     19 C16E       6.9041   -5.7368   -1.7911 C.ar      1 RES1    0.0000
     20 C15E       3.1272   -2.0828    2.0222 C.ar      1 RES1    0.0000
     21 C3E        4.9127   -4.8389   -0.6537 C.ar      1 RES1    0.0000
     22 C5E        2.9056   -3.8837    0.4363 C.ar      1 RES1    0.0000
     23 C1E        6.0917   -6.6555   -2.5121 C.ar      1 RES1    0.0000
     24 C6E        2.3172   -3.0119    1.3196 C.ar      1 RES1    0.0000
     25 C14E       2.4939   -1.1693    2.8841 C.ar      1 RES1    0.0000
     26 C10E       4.1132   -5.7785   -1.4084 C.ar      1 RES1    0.0000
     27 C12E       2.1381   -4.8546   -0.3184 C.ar      1 RES1    0.0000
     28 C9E        4.7362   -6.6294   -2.3024 C.ar      1 RES1    0.0000
     29 C7E        0.9217   -3.0119    1.4971 C.ar      1 RES1    0.0000
     30 C13E       1.1456   -1.2058    3.0923 C.ar      1 RES1    0.0000
     31 C11E       2.7425   -5.7420   -1.2017 C.ar      1 RES1    0.0000
     32 C8E        0.3215   -2.1350    2.4095 C.ar      1 RES1    0.0000
@<TRIPOS>BOND
     1    1    9 ar
     2    2    3 ar
     3    3    4 ar
     4    4    5 ar
     5    5    6 ar
     6    6    7 ar
     7    7    8 ar
     8    8   13 ar
     9    9   10 ar
    10   10    3 ar
    11   11   10 ar
    12   12    5 ar
    13   13   14 ar
    14   14   15 ar
    15   15    6 ar
    16   16    1 ar
    17   17    2 ar
    18   18    4 ar
    19   19   15 ar
    20   20   16 ar
    21   21   17 ar
    22   22   17 ar
    23   23   19 ar
    24   24   20 ar
    25   25   20 ar
    26   26   21 ar
    27   27   22 ar
    28   28   23 ar
    29   29   24 ar
    30   30   25 ar
    31   31   26 ar
    32   32   29 ar
    33    2   16 ar
    34   11   12 ar
    35   18   19 ar
    36   18   21 ar
    37   22   24 ar
    38   26   28 ar
    39   27   31 ar
    40   30   32 ar
@<TRIPOS>SUBSTRUCTURE
     1 RES1 1

@<TRIPOS>CRYSIN
  22.8300    5.2200   15.7700  90.0000 103.9000  90.0000  15 1

