# MOL2 file generated by ConQuest
# Please check atom types

@<TRIPOS>MOLECULE
DEBHIB
    50    55     1
SMALL
NO_CHARGES
****
Generated from CSD

@<TRIPOS>ATOM
      1 C1         5.2812    1.6486    3.5022 C.2       1 RES1    0.0000
      2 C2         6.6090    1.6524    4.1881 C.ar      1 RES1    0.0000
      3 C3         7.5697    2.6370    3.9167 C.ar      1 RES1    0.0000
      4 C4         7.3500    3.7353    3.0275 C.ar      1 RES1    0.0000
      5 C5         8.3218    4.6500    2.7732 C.ar      1 RES1    0.0000
      6 C6         9.5895    4.5465    3.3830 C.ar      1 RES1    0.0000
      7 C7         9.8361    3.5593    4.2620 C.ar      1 RES1    0.0000
      8 C8         8.8481    2.5771    4.5720 C.ar      1 RES1    0.0000
      9 C9         9.0878    1.5737    5.5066 C.ar      1 RES1    0.0000
     10 C10        8.1370    0.6115    5.8098 C.ar      1 RES1    0.0000
     11 C11        8.3963   -0.4281    6.7478 C.ar      1 RES1    0.0000
     12 C12        7.4853   -1.3815    7.0067 C.ar      1 RES1    0.0000
     13 C13        6.2379   -1.3678    6.3435 C.ar      1 RES1    0.0000
     14 C14        5.9369   -0.3919    5.4509 C.ar      1 RES1    0.0000
     15 C15        6.8691    0.6440    5.1398 C.ar      1 RES1    0.0000
     16 H1         4.4312    1.6474    4.1223 H         1 RES1    0.0000
     17 H2         6.4189    3.8563    2.6346 H         1 RES1    0.0000
     18 H3         8.1373    5.4038    2.1804 H         1 RES1    0.0000
     19 H4        10.2689    5.2541    3.1911 H         1 RES1    0.0000
     20 H5        10.7518    3.4694    4.7014 H         1 RES1    0.0000
     21 H6         9.9635    1.5600    5.9279 H         1 RES1    0.0000
     22 H7         9.2450   -0.3619    7.1998 H         1 RES1    0.0000
     23 H8         7.6802   -2.1590    7.6427 H         1 RES1    0.0000
     24 H9         5.6126   -2.0842    6.4616 H         1 RES1    0.0000
     25 H10        5.1129   -0.4118    5.0081 H         1 RES1    0.0000
     26 C1B        5.1108    1.6486    2.1758 C.2       1 RES1    0.0000
     27 C2B        3.7830    1.6524    1.4899 C.ar      1 RES1    0.0000
     28 H1B        5.9609    1.6474    1.5558 H         1 RES1    0.0000
     29 C3B        2.8223    2.6370    1.7613 C.ar      1 RES1    0.0000
     30 C15B       3.5229    0.6440    0.5383 C.ar      1 RES1    0.0000
     31 C4B        3.0420    3.7353    2.6505 C.ar      1 RES1    0.0000
     32 C8B        1.5439    2.5771    1.1061 C.ar      1 RES1    0.0000
     33 C10B       2.2550    0.6115   -0.1317 C.ar      1 RES1    0.0000
     34 C14B       4.4551   -0.3919    0.2271 C.ar      1 RES1    0.0000
     35 C5B        2.0703    4.6500    2.9049 C.ar      1 RES1    0.0000
     36 H2B        3.9731    3.8563    3.0434 H         1 RES1    0.0000
     37 C7B        0.5560    3.5593    1.4161 C.ar      1 RES1    0.0000
     38 C9B        1.3042    1.5737    0.1715 C.ar      1 RES1    0.0000
     39 C11B       1.9957   -0.4281   -1.0697 C.ar      1 RES1    0.0000
     40 C13B       4.1541   -1.3678   -0.6655 C.ar      1 RES1    0.0000
     41 H10B       5.2791   -0.4118    0.6700 H         1 RES1    0.0000
     42 C6B        0.8025    4.5465    2.2951 C.ar      1 RES1    0.0000
     43 H3B        2.2547    5.4038    3.4977 H         1 RES1    0.0000
     44 H5B       -0.3598    3.4694    0.9766 H         1 RES1    0.0000
     45 H6B        0.4285    1.5600   -0.2498 H         1 RES1    0.0000
     46 C12B       2.9067   -1.3815   -1.3287 C.ar      1 RES1    0.0000
     47 H7B        1.1470   -0.3619   -1.5217 H         1 RES1    0.0000
     48 H9B        4.7794   -2.0842   -0.7836 H         1 RES1    0.0000
     49 H4B        0.1231    5.2541    2.4870 H         1 RES1    0.0000
     50 H8B        2.7118   -2.1590   -1.9646 H         1 RES1    0.0000
@<TRIPOS>BOND
     1    1    2 1
     2    2    3 ar
     3    3    4 ar
     4    4    5 ar
     5    5    6 ar
     6    6    7 ar
     7    7    8 ar
     8    8    3 ar
     9    9    8 ar
    10   10    9 ar
    11   11   10 ar
    12   12   11 ar
    13   13   12 ar
    14   14   13 ar
    15   15    2 ar
    16   16    1 1
    17   17    4 1
    18   18    5 1
    19   19    6 1
    20   20    7 1
    21   21    9 1
    22   22   11 1
    23   23   12 1
    24   24   13 1
    25   25   14 1
    26   26    1 2
    27   27   26 1
    28   28   26 1
    29   29   27 ar
    30   30   27 ar
    31   31   29 ar
    32   32   29 ar
    33   33   30 ar
    34   34   30 ar
    35   35   31 ar
    36   36   31 1
    37   37   32 ar
    38   38   32 ar
    39   39   33 ar
    40   40   34 ar
    41   41   34 1
    42   42   35 ar
    43   43   35 1
    44   44   37 1
    45   45   38 1
    46   46   39 ar
    47   47   39 1
    48   48   40 1
    49   49   42 1
    50   50   46 1
    51   10   15 ar
    52   14   15 ar
    53   33   38 ar
    54   37   42 ar
    55   40   46 ar
@<TRIPOS>SUBSTRUCTURE
     1 RES1 1

@<TRIPOS>CRYSIN
  13.4200   12.4800   12.8700  90.0000 118.0700  90.0000  15 1

