# MOL2 file generated by ConQuest
# Please check atom types

@<TRIPOS>MOLECULE
DEFTUG
    42    50     1
SMALL
NO_CHARGES
****
Generated from CSD

@<TRIPOS>ATOM
      1 C1        11.2115    7.8250    2.6474 C.3       1 RES1    0.0000
      2 H1        11.6695    7.2397    2.0240 H         1 RES1    0.0000
      3 H2        11.6577    7.7902    3.5079 H         1 RES1    0.0000
      4 C2         5.5762    8.6754    3.5862 C.3       1 RES1    0.0000
      5 H3         4.7931    8.2817    3.1713 H         1 RES1    0.0000
      6 H4         5.4363    8.7302    4.5448 H         1 RES1    0.0000
      7 C3         7.8732   11.0412    1.8674 C.ar      1 RES1    0.0000
      8 C4         7.0756    9.9485    2.2479 C.ar      1 RES1    0.0000
      9 C5         7.3698   12.2896    2.1747 C.ar      1 RES1    0.0000
     10 C6         9.2738   10.8904    1.6544 C.ar      1 RES1    0.0000
     11 C7         6.1288   12.4765    2.8216 C.ar      1 RES1    0.0000
     12 C8         7.3374   14.5134    2.7396 C.ar      1 RES1    0.0000
     13 C9         8.2052   13.4555    2.1901 C.ar      1 RES1    0.0000
     14 C10       10.1428   12.0040    1.7547 C.ar      1 RES1    0.0000
     15 C11        7.6497    8.6639    2.3825 C.ar      1 RES1    0.0000
     16 C12        5.3821   11.3613    3.2577 C.ar      1 RES1    0.0000
     17 H5         4.5774   11.4734    3.7113 H         1 RES1    0.0000
     18 C13        9.5695   13.3187    1.9705 C.ar      1 RES1    0.0000
     19 H6        10.1162   14.0717    1.9618 H         1 RES1    0.0000
     20 C14        9.8108    9.5922    1.7979 C.ar      1 RES1    0.0000
     21 C15        9.7133    7.4615    2.7703 C.ar      1 RES1    0.0000
     22 C16        5.8890   10.0649    2.9862 C.ar      1 RES1    0.0000
     23 C17       11.1258    9.2816    2.1052 C.ar      1 RES1    0.0000
     24 C18        7.5797   15.8676    2.9672 C.ar      1 RES1    0.0000
     25 H7         8.3815   16.2554    2.7008 H         1 RES1    0.0000
     26 C19       12.0182   10.3655    2.0876 C.ar      1 RES1    0.0000
     27 H8        12.9294   10.2208    2.2062 H         1 RES1    0.0000
     28 C20        5.1251   14.6991    3.7779 C.ar      1 RES1    0.0000
     29 H9         4.3144   14.3254    4.0391 H         1 RES1    0.0000
     30 C21       11.5316   11.6814    1.8901 C.ar      1 RES1    0.0000
     31 H10       12.1492   12.3750    1.8462 H         1 RES1    0.0000
     32 C22        6.0914   13.9204    3.1472 C.ar      1 RES1    0.0000
     33 C23        8.9883    8.4849    2.1637 C.ar      1 RES1    0.0000
     34 C24        6.8676    7.8579    3.2489 C.ar      1 RES1    0.0000
     35 C25        8.9400    6.5735    3.5386 C.ar      1 RES1    0.0000
     36 H11        9.3567    5.8217    3.8965 H         1 RES1    0.0000
     37 C26        6.5927   16.6341    3.6038 C.ar      1 RES1    0.0000
     38 H12        6.7405   17.5398    3.7530 H         1 RES1    0.0000
     39 C27        7.5472    6.7651    3.7991 C.ar      1 RES1    0.0000
     40 H13        7.0902    6.1592    4.3377 H         1 RES1    0.0000
     41 C28        5.3930   16.0558    4.0143 C.ar      1 RES1    0.0000
     42 H14        4.7606   16.5770    4.4526 H         1 RES1    0.0000
@<TRIPOS>BOND
     1    1    2 1
     2    3    1 1
     3    4    5 1
     4    6    4 1
     5    7    8 ar
     6    8   15 ar
     7    9    7 ar
     8   10    7 ar
     9   11    9 ar
    10   12   13 1
    11   13    9 ar
    12   14   10 ar
    13   15   33 ar
    14   16   11 ar
    15   17   16 1
    16   18   13 ar
    17   19   18 1
    18   20   10 ar
    19   21    1 1
    20   22    4 1
    21   23    1 1
    22   24   12 ar
    23   25   24 1
    24   26   23 ar
    25   27   26 1
    26   28   29 1
    27   30   14 ar
    28   31   30 1
    29   32   11 1
    30   33   20 ar
    31   34    4 1
    32   35   21 ar
    33   36   35 1
    34   37   24 ar
    35   38   37 1
    36   39   34 ar
    37   40   39 1
    38   41   28 ar
    39   42   41 1
    40    8   22 ar
    41   12   32 ar
    42   14   18 ar
    43   15   34 ar
    44   16   22 ar
    45   20   23 ar
    46   21   33 ar
    47   26   30 ar
    48   28   32 ar
    49   35   39 ar
    50   37   41 ar
@<TRIPOS>SUBSTRUCTURE
     1 RES1 1

@<TRIPOS>CRYSIN
   9.8502   22.6524    7.3173  90.0000  90.0000  90.0000  33 1

