# MOL2 file generated by ConQuest
# Please check atom types

@<TRIPOS>MOLECULE
DEMBON
    48    53     1
SMALL
NO_CHARGES
****
Generated from CSD

@<TRIPOS>ATOM
      1 C1         3.1563    0.2739    6.2221 C.1       1 RES1    0.0000
      2 C2         3.0129    0.9169    4.9472 C.ar      1 RES1    0.0000
      3 C3         1.8014    0.9544    4.3199 C.ar      1 RES1    0.0000
      4 C4         1.6427    1.5443    3.0266 C.ar      1 RES1    0.0000
      5 C5         0.3846    1.5283    2.3764 C.ar      1 RES1    0.0000
      6 C6         0.2276    2.0769    1.1268 C.ar      1 RES1    0.0000
      7 C7         1.3277    2.6593    0.4783 C.ar      1 RES1    0.0000
      8 C8         2.5625    2.6834    1.0892 C.ar      1 RES1    0.0000
      9 C9         2.7565    2.1299    2.3753 C.ar      1 RES1    0.0000
     10 C10        4.0471    2.1358    3.0472 C.ar      1 RES1    0.0000
     11 C11        5.1919    2.7370    2.4805 C.ar      1 RES1    0.0000
     12 C12        6.4064    2.7108    3.1307 C.ar      1 RES1    0.0000
     13 C13        6.5364    2.0717    4.3691 C.ar      1 RES1    0.0000
     14 C14        5.4384    1.4878    4.9553 C.ar      1 RES1    0.0000
     15 C15        4.1798    1.5146    4.3191 C.ar      1 RES1    0.0000
     16 H1         1.0444    0.5786    4.7534 H         1 RES1    0.0000
     17 H2        -0.3620    1.1329    2.8110 H         1 RES1    0.0000
     18 H3        -0.6225    2.0617    0.7033 H         1 RES1    0.0000
     19 H4         1.2199    3.0392   -0.3860 H         1 RES1    0.0000
     20 H5         3.2977    3.0803    0.6371 H         1 RES1    0.0000
     21 H6         5.1237    3.1671    1.6360 H         1 RES1    0.0000
     22 H7         7.1619    3.1306    2.7354 H         1 RES1    0.0000
     23 H8         7.3805    2.0419    4.8033 H         1 RES1    0.0000
     24 H9         5.5289    1.0613    5.7995 H         1 RES1    0.0000
     25 C1B        3.3066   -0.2739    7.2760 C.1       1 RES1    0.0000
     26 C2B        3.4500   -0.9169    8.5509 C.ar      1 RES1    0.0000
     27 C3B        4.6614   -0.9544    9.1782 C.ar      1 RES1    0.0000
     28 C4B        4.8202   -1.5443   10.4715 C.ar      1 RES1    0.0000
     29 C5B        6.0783   -1.5283   11.1217 C.ar      1 RES1    0.0000
     30 C6B        6.2352   -2.0769   12.3713 C.ar      1 RES1    0.0000
     31 C7B        5.1352   -2.6593   13.0198 C.ar      1 RES1    0.0000
     32 C8B        3.9003   -2.6834   12.4089 C.ar      1 RES1    0.0000
     33 C9B        3.7064   -2.1299   11.1228 C.ar      1 RES1    0.0000
     34 C10B       2.4158   -2.1358   10.4509 C.ar      1 RES1    0.0000
     35 C11B       1.2710   -2.7370   11.0176 C.ar      1 RES1    0.0000
     36 C12B       0.0565   -2.7108   10.3674 C.ar      1 RES1    0.0000
     37 C13B      -0.0735   -2.0717    9.1290 C.ar      1 RES1    0.0000
     38 C14B       1.0244   -1.4878    8.5428 C.ar      1 RES1    0.0000
     39 C15B       2.2830   -1.5146    9.1790 C.ar      1 RES1    0.0000
     40 H1B        5.4185   -0.5786    8.7448 H         1 RES1    0.0000
     41 H2B        6.8248   -1.1329   10.6871 H         1 RES1    0.0000
     42 H3B        7.0854   -2.0617   12.7949 H         1 RES1    0.0000
     43 H4B        5.2429   -3.0392   13.8842 H         1 RES1    0.0000
     44 H5B        3.1652   -3.0803   12.8610 H         1 RES1    0.0000
     45 H6B        1.3391   -3.1671   11.8621 H         1 RES1    0.0000
     46 H7B       -0.6990   -3.1306   10.7627 H         1 RES1    0.0000
     47 H8B       -0.9176   -2.0419    8.6948 H         1 RES1    0.0000
     48 H9B        0.9340   -1.0613    7.6986 H         1 RES1    0.0000
@<TRIPOS>BOND
     1    1    2 1
     2    2    3 ar
     3    3    4 ar
     4    4    5 ar
     5    5    6 ar
     6    6    7 ar
     7    7    8 ar
     8    8    9 ar
     9    9    4 ar
    10   10    9 ar
    11   11   10 ar
    12   12   11 ar
    13   13   12 ar
    14   14   13 ar
    15   15    2 ar
    16   16    3 1
    17   17    5 1
    18   18    6 1
    19   19    7 1
    20   20    8 1
    21   21   11 1
    22   22   12 1
    23   23   13 1
    24   24   14 1
    25   25    1 3
    26   26   25 1
    27   27   26 ar
    28   28   27 ar
    29   29   28 ar
    30   30   29 ar
    31   31   30 ar
    32   32   31 ar
    33   33   28 ar
    34   34   33 ar
    35   35   34 ar
    36   36   35 ar
    37   37   36 ar
    38   38   37 ar
    39   39   26 ar
    40   40   27 1
    41   41   29 1
    42   42   30 1
    43   43   31 1
    44   44   32 1
    45   45   35 1
    46   46   36 1
    47   47   37 1
    48   48   38 1
    49   10   15 ar
    50   14   15 ar
    51   32   33 ar
    52   34   39 ar
    53   38   39 ar
@<TRIPOS>SUBSTRUCTURE
     1 RES1 1

@<TRIPOS>CRYSIN
   9.3403   15.2266    6.9007  90.0000 102.0338  90.0000  14 1

