# MOL2 file generated by ConQuest
# Please check atom types

@<TRIPOS>MOLECULE
DENWAU
    53    58     1
SMALL
NO_CHARGES
****
Generated from CSD

@<TRIPOS>ATOM
      1 C1        12.7747    3.3391    5.3606 C.2       1 RES1    0.0000
      2 C2        12.9465    2.2661    4.3408 C.ar      1 RES1    0.0000
      3 C3        12.3969    0.9571    4.5401 C.ar      1 RES1    0.0000
      4 C4        11.6670    0.5924    5.7141 C.ar      1 RES1    0.0000
      5 C5        11.1378   -0.6300    5.8866 C.ar      1 RES1    0.0000
      6 C6        11.3011   -1.6080    4.8798 C.ar      1 RES1    0.0000
      7 C7        12.0332   -1.3235    3.7846 C.ar      1 RES1    0.0000
      8 C8        12.6381   -0.0438    3.5654 C.ar      1 RES1    0.0000
      9 C9        13.4120    0.2069    2.4399 C.ar      1 RES1    0.0000
     10 C10       13.7139   -0.8925    1.4487 C.3       1 RES1    0.0000
     11 C11       13.9738    1.4808    2.2484 C.ar      1 RES1    0.0000
     12 C12       14.7853    1.8090    1.1134 C.ar      1 RES1    0.0000
     13 C13       15.2650    3.0508    0.9037 C.ar      1 RES1    0.0000
     14 C14       14.9972    4.0695    1.8290 C.ar      1 RES1    0.0000
     15 C15       14.2694    3.8117    2.9468 C.ar      1 RES1    0.0000
     16 C16       13.7271    2.5072    3.2006 C.ar      1 RES1    0.0000
     17 C17       11.6577    3.7715    5.8623 C.2       1 RES1    0.0000
     18 C18       11.5574    4.8306    6.9107 C.ar      1 RES1    0.0000
     19 C19       10.7461    5.9571    6.6672 C.ar      1 RES1    0.0000
     20 C20       10.0470    6.1619    5.4352 C.ar      1 RES1    0.0000
     21 C21        9.2924    7.2669    5.2411 C.ar      1 RES1    0.0000
     22 C22        9.1814    8.2686    6.2253 C.ar      1 RES1    0.0000
     23 C23        9.8245    8.1232    7.3942 C.ar      1 RES1    0.0000
     24 C24       10.6545    6.9974    7.6506 C.ar      1 RES1    0.0000
     25 C25       11.3694    6.8833    8.8221 C.ar      1 RES1    0.0000
     26 C26       12.1654    5.7852    9.0941 C.ar      1 RES1    0.0000
     27 C27       12.9038    5.6605   10.3115 C.ar      1 RES1    0.0000
     28 C28       13.6376    4.5669   10.5835 C.ar      1 RES1    0.0000
     29 C29       13.6692    3.4801    9.6980 C.ar      1 RES1    0.0000
     30 C30       12.9870    3.5568    8.5032 C.ar      1 RES1    0.0000
     31 C31       12.2342    4.7138    8.1428 C.ar      1 RES1    0.0000
     32 H1        11.5465    1.2760    6.4116 H         1 RES1    0.0000
     33 H2        10.6169   -0.8482    6.7062 H         1 RES1    0.0000
     34 H3        10.9081   -2.4746    4.9907 H         1 RES1    0.0000
     35 H4        12.1260   -2.0052    3.0758 H         1 RES1    0.0000
     36 H5        14.9994    1.0975    0.4765 H         1 RES1    0.0000
     37 H6        15.7918    3.2591    0.0866 H         1 RES1    0.0000
     38 H7        15.3286    4.9682    1.6809 H         1 RES1    0.0000
     39 H8        14.1212    4.5165    3.6130 H         1 RES1    0.0000
     40 H9        14.1354   -1.6283    1.9235 H         1 RES1    0.0000
     41 H10       12.8727   -1.2207    1.1177 H         1 RES1    0.0000
     42 H11       14.2535   -0.7648    0.6758 H         1 RES1    0.0000
     43 H12       13.7192    3.6073    5.5019 H         1 RES1    0.0000
     44 H13       10.1511    5.4784    4.7307 H         1 RES1    0.0000
     45 H14        8.8136    7.3789    4.3842 H         1 RES1    0.0000
     46 H15        8.6371    9.0599    6.0477 H         1 RES1    0.0000
     47 H16        9.7115    8.8039    8.1012 H         1 RES1    0.0000
     48 H17       11.2970    7.6150    9.4875 H         1 RES1    0.0000
     49 H18       12.8738    6.4071   10.9431 H         1 RES1    0.0000
     50 H19       14.1696    4.5316   11.4196 H         1 RES1    0.0000
     51 H20       14.1448    2.6682    9.9294 H         1 RES1    0.0000
     52 H21       13.0232    2.7894    7.8846 H         1 RES1    0.0000
     53 H22       10.7147    3.5502    5.7098 H         1 RES1    0.0000
@<TRIPOS>BOND
     1    1    2 1
     2    2    3 ar
     3    3    4 ar
     4    4    5 ar
     5    5    6 ar
     6    6    7 ar
     7    7    8 ar
     8    8    3 ar
     9    9    8 ar
    10   10    9 1
    11   11    9 ar
    12   12   11 ar
    13   13   12 ar
    14   14   13 ar
    15   15   14 ar
    16   16    2 ar
    17   17    1 2
    18   18   17 1
    19   19   18 ar
    20   20   19 ar
    21   21   20 ar
    22   22   21 ar
    23   23   22 ar
    24   24   19 ar
    25   25   24 ar
    26   26   25 ar
    27   27   26 ar
    28   28   27 ar
    29   29   28 ar
    30   30   29 ar
    31   31   18 ar
    32   32    4 1
    33   33    5 1
    34   34    6 1
    35   35    7 1
    36   36   12 1
    37   37   13 1
    38   38   14 1
    39   39   15 1
    40   40   10 1
    41   41   10 1
    42   42   10 1
    43   43    1 1
    44   44   20 1
    45   45   21 1
    46   46   22 1
    47   47   23 1
    48   48   25 1
    49   49   27 1
    50   50   28 1
    51   51   29 1
    52   52   30 1
    53   53   17 1
    54   11   16 ar
    55   15   16 ar
    56   23   24 ar
    57   26   31 ar
    58   30   31 ar
@<TRIPOS>SUBSTRUCTURE
     1 RES1 1

@<TRIPOS>CRYSIN
  12.9500    9.3160    9.0980  86.1700  72.2600  74.6100   2 1

