# MOL2 file generated by ConQuest
# Please check atom types

@<TRIPOS>MOLECULE
DEYNAP
    44    46     2
SMALL
NO_CHARGES
****
Generated from CSD

@<TRIPOS>ATOM
      1 C1        -6.7908    1.4426    6.1614 C.ar      1 RES1    0.0000
      2 C2        -7.3251    0.7976    5.0542 C.ar      1 RES1    0.0000
      3 C3        -6.5143    0.4314    3.9736 C.ar      1 RES1    0.0000
      4 C4        -5.1910    0.7291    3.9580 C.ar      1 RES1    0.0000
      5 C5        -4.5759    1.4060    5.0777 C.ar      1 RES1    0.0000
      6 C6        -3.1997    1.7408    5.1027 C.ar      1 RES1    0.0000
      7 C7        -2.6716    2.3854    6.1864 C.ar      1 RES1    0.0000
      8 C8        -3.4762    2.7021    7.2983 C.ar      1 RES1    0.0000
      9 C9        -4.8058    2.4180    7.3076 C.ar      1 RES1    0.0000
     10 C10       -5.3960    1.7492    6.2036 C.ar      1 RES1    0.0000
     11 C11       -7.6637    1.7895    7.2779 C.1       1 RES1    0.0000
     12 C12       -8.4186    2.0852    8.1130 C.1       1 RES1    0.0000
     13 C13       -4.3833    0.3376    2.8117 C.1       1 RES1    0.0000
     14 C14       -3.7092   -0.0318    1.9157 C.1       1 RES1    0.0000
     15 C15      -13.0939   -1.5078    6.1489 C.ar      2 RES2    0.0000
     16 C16      -11.7457   -1.7022    6.2536 C.ar      2 RES2    0.0000
     17 C17      -10.8510   -1.2523    5.2982 C.ar      2 RES2    0.0000
     18 C18      -11.3139   -0.5758    4.1613 C.ar      2 RES2    0.0000
     19 C19      -12.7087   -0.3441    4.0127 C.ar      2 RES2    0.0000
     20 C20      -13.2306    0.3432    2.8774 C.ar      2 RES2    0.0000
     21 C21      -14.5415    0.5533    2.7460 C.ar      2 RES2    0.0000
     22 C22      -15.4673    0.1223    3.6984 C.ar      2 RES2    0.0000
     23 C23      -15.0168   -0.5678    4.8212 C.ar      2 RES2    0.0000
     24 C24      -13.6282   -0.8092    4.9885 C.ar      2 RES2    0.0000
     25 C25      -13.9979   -2.0237    7.1559 C.1       2 RES2    0.0000
     26 C26      -14.7124   -2.5222    7.9519 C.1       2 RES2    0.0000
     27 C27      -10.3726   -0.1070    3.1776 C.1       2 RES2    0.0000
     28 C28       -9.6364    0.3143    2.3645 C.1       2 RES2    0.0000
     29 H1        -8.3844    0.5742    5.0526 H         1 RES1    0.0000
     30 H2        -6.9461   -0.0757    3.1167 H         1 RES1    0.0000
     31 H3        -2.5722    1.4841    4.2551 H         1 RES1    0.0000
     32 H4        -1.6247    2.6220    6.2052 H         1 RES1    0.0000
     33 H5        -3.0568    3.2051    8.1505 H         1 RES1    0.0000
     34 H6        -5.4239    2.6679    8.1458 H         1 RES1    0.0000
     35 H7        -9.1114    2.3721    8.8949 H         1 RES1    0.0000
     36 H8        -3.0879   -0.4024    1.1228 H         1 RES1    0.0000
     37 H9       -11.3636   -2.2196    7.1106 H         2 RES2    0.0000
     38 H10       -9.7886   -1.4173    5.4326 H         2 RES2    0.0000
     39 H11      -12.5316    0.6957    2.1283 H         2 RES2    0.0000
     40 H12      -14.9112    1.0865    1.8797 H         2 RES2    0.0000
     41 H13      -16.5235    0.2901    3.5874 H         2 RES2    0.0000
     42 H14      -15.7127   -0.9223    5.5734 H         2 RES2    0.0000
     43 H15      -15.3647   -2.9842    8.6556 H         2 RES2    0.0000
     44 H16       -8.9374    0.6957    1.6467 H         2 RES2    0.0000
@<TRIPOS>BOND
     1    1    2 ar
     2    2    3 ar
     3    3    4 ar
     4    4    5 ar
     5    5    6 ar
     6    6    7 ar
     7    7    8 ar
     8    8    9 ar
     9    9   10 ar
    10   10    1 ar
    11   11    1 1
    12   12   11 3
    13   13    4 1
    14   14   13 3
    15   15   16 ar
    16   16   17 ar
    17   17   18 ar
    18   18   19 ar
    19   19   20 ar
    20   20   21 ar
    21   21   22 ar
    22   22   23 ar
    23   23   24 ar
    24   24   15 ar
    25   25   15 1
    26   26   25 3
    27   27   18 1
    28   28   27 3
    29   29    2 1
    30   30    3 1
    31   31    6 1
    32   32    7 1
    33   33    8 1
    34   34    9 1
    35   35   12 1
    36   36   14 1
    37   37   16 1
    38   38   17 1
    39   39   20 1
    40   40   21 1
    41   41   22 1
    42   42   23 1
    43   43   26 1
    44   44   28 1
    45    5   10 ar
    46   19   24 ar
@<TRIPOS>SUBSTRUCTURE
     1 RES1 1
     2 RES2 15

@<TRIPOS>CRYSIN
  31.0650    4.0240   15.6380  90.0000  90.0000  90.0000  29 1

