# MOL2 file generated by ConQuest
# Please check atom types

@<TRIPOS>MOLECULE
DHCBAN
    24    27     1
SMALL
NO_CHARGES
****
Generated from CSD

@<TRIPOS>ATOM
      1 C1        -2.5639   -2.8051    3.6109 C.2       1 RES1    0.0000
      2 C2        -3.8821   -2.6668    2.8562 C.3       1 RES1    0.0000
      3 C3        -5.0753   -2.2784    3.6978 C.ar      1 RES1    0.0000
      4 C4        -5.5871   -1.0742    4.0793 C.ar      1 RES1    0.0000
      5 C5        -6.7063   -1.0521    4.9526 C.ar      1 RES1    0.0000
      6 C6        -7.2953   -2.1885    5.4168 C.ar      1 RES1    0.0000
      7 C7        -6.8010   -3.4562    5.0361 C.ar      1 RES1    0.0000
      8 C8        -5.6898   -3.4562    4.1712 C.ar      1 RES1    0.0000
      9 H1        -1.9900   -2.1152    3.9658 H         1 RES1    0.0000
     10 H2        -3.8288   -2.2120    1.9537 H         1 RES1    0.0000
     11 H3        -5.1979   -0.2488    3.7487 H         1 RES1    0.0000
     12 H4        -7.0207   -0.1797    5.2181 H         1 RES1    0.0000
     13 H5        -8.0316   -2.1290    5.9946 H         1 RES1    0.0000
     14 C1B       -2.5639   -4.1074    3.6109 C.2       1 RES1    0.0000
     15 C2B       -3.8821   -4.2457    2.8562 C.3       1 RES1    0.0000
     16 C6B       -7.2953   -4.7240    5.4168 C.ar      1 RES1    0.0000
     17 C3B       -5.0753   -4.6341    3.6978 C.ar      1 RES1    0.0000
     18 H1B       -1.9900   -4.7973    3.9658 H         1 RES1    0.0000
     19 H2B       -3.8288   -4.7005    1.9537 H         1 RES1    0.0000
     20 C5B       -6.7063   -5.8604    4.9526 C.ar      1 RES1    0.0000
     21 H5B       -8.0316   -4.7835    5.9946 H         1 RES1    0.0000
     22 C4B       -5.5871   -5.8383    4.0793 C.ar      1 RES1    0.0000
     23 H4B       -7.0207   -6.7328    5.2181 H         1 RES1    0.0000
     24 H3B       -5.1979   -6.6637    3.7487 H         1 RES1    0.0000
@<TRIPOS>BOND
     1    1    2 1
     2    2    3 1
     3    3    4 ar
     4    4    5 ar
     5    5    6 ar
     6    6    7 ar
     7    7    8 ar
     8    8    3 ar
     9    9    1 1
    10   10    2 1
    11   11    4 1
    12   12    5 1
    13   13    6 1
    14   14    1 2
    15   15    2 1
    16   16    7 ar
    17   17    8 ar
    18   18   14 1
    19   19   15 1
    20   20   16 ar
    21   21   16 1
    22   22   17 ar
    23   23   20 1
    24   24   22 1
    25   14   15 1
    26   15   17 1
    27   20   22 ar
@<TRIPOS>SUBSTRUCTURE
     1 RES1 1

@<TRIPOS>CRYSIN
   7.9600   13.8250    8.3490  90.0000  90.0000  90.0000  62 1

