# MOL2 file generated by ConQuest
# Please check atom types

@<TRIPOS>MOLECULE
DICYIZ
    94   105     1
SMALL
NO_CHARGES
****
Generated from CSD

@<TRIPOS>ATOM
      1 C1         6.9922    0.1676    6.8114 C.ar      1 RES1    0.0000
      2 C2         6.1911   -0.6854    7.5828 C.ar      1 RES1    0.0000
      3 H1         5.4214   -1.0829    7.1921 H         1 RES1    0.0000
      4 C3         6.5010   -0.9565    8.8976 C.ar      1 RES1    0.0000
      5 H2         5.9547   -1.5513    9.3964 H         1 RES1    0.0000
      6 C4         7.6025   -0.3698    9.4986 C.ar      1 RES1    0.0000
      7 H3         7.8114   -0.5586   10.4064 H         1 RES1    0.0000
      8 C5         8.3886    0.4886    8.7676 C.ar      1 RES1    0.0000
      9 H4         9.1328    0.9067    9.1831 H         1 RES1    0.0000
     10 C6         8.1113    0.7559    7.4231 C.ar      1 RES1    0.0000
     11 C7         8.9677    1.6473    6.6404 C.ar      1 RES1    0.0000
     12 C8        10.3164    1.8342    6.9732 C.ar      1 RES1    0.0000
     13 H5        10.6709    1.3987    7.7398 H         1 RES1    0.0000
     14 C9        11.1385    2.6335    6.2144 C.ar      1 RES1    0.0000
     15 H6        12.0546    2.7373    6.4422 H         1 RES1    0.0000
     16 C10       10.6105    3.2860    5.1114 C.ar      1 RES1    0.0000
     17 H7        11.1689    3.8481    4.5861 H         1 RES1    0.0000
     18 C11        9.2831    3.1290    4.7680 C.ar      1 RES1    0.0000
     19 H8         8.9424    3.5924    4.0123 H         1 RES1    0.0000
     20 C12        8.4255    2.3026    5.5084 C.ar      1 RES1    0.0000
     21 C13        7.0724    1.9094    5.0386 C.ar      1 RES1    0.0000
     22 C14        6.2854    2.6511    4.1551 C.ar      1 RES1    0.0000
     23 C15        5.2215    1.9954    3.4399 C.ar      1 RES1    0.0000
     24 C16        5.2215    0.5653    3.4399 C.ar      1 RES1    0.0000
     25 C17        5.8008   -0.1113    4.5631 C.ar      1 RES1    0.0000
     26 C18        6.6170    0.6046    5.4378 C.ar      1 RES1    0.0000
     27 C19        6.5923    4.0870    3.9222 C.ar      1 RES1    0.0000
     28 C20        6.5942    4.9937    4.9898 C.ar      1 RES1    0.0000
     29 H9         6.4075    4.6817    5.8685 H         1 RES1    0.0000
     30 C21        6.8615    6.3282    4.7864 C.ar      1 RES1    0.0000
     31 H10        6.8307    6.9334    5.5176 H         1 RES1    0.0000
     32 C22        7.1749    6.7931    3.5205 C.ar      1 RES1    0.0000
     33 H11        7.3710    7.7134    3.3835 H         1 RES1    0.0000
     34 C23        7.2008    5.9137    2.4632 C.ar      1 RES1    0.0000
     35 H12        7.4228    6.2287    1.5947 H         1 RES1    0.0000
     36 C24        6.9058    4.5709    2.6523 C.ar      1 RES1    0.0000
     37 H13        6.9170    3.9770    1.9112 H         1 RES1    0.0000
     38 C25        5.4561   -1.5276    4.8639 C.ar      1 RES1    0.0000
     39 C26        4.1364   -1.8903    5.0970 C.ar      1 RES1    0.0000
     40 H14        3.4432   -1.2655    4.9232 H         1 RES1    0.0000
     41 C27        3.8146   -3.1436    5.5769 C.ar      1 RES1    0.0000
     42 H15        2.9095   -3.3668    5.7598 H         1 RES1    0.0000
     43 C28        4.8125   -4.0709    5.7895 C.ar      1 RES1    0.0000
     44 H16        4.5951   -4.9310    6.1285 H         1 RES1    0.0000
     45 C29        6.1287   -3.7529    5.5102 C.ar      1 RES1    0.0000
     46 H17        6.8119   -4.4003    5.6332 H         1 RES1    0.0000
     47 C30        6.4468   -2.4814    5.0491 C.ar      1 RES1    0.0000
     48 H18        7.3521   -2.2624    4.8585 H         1 RES1    0.0000
     49 C1A        3.4509    0.1676    0.0684 C.ar      1 RES1    0.0000
     50 C2A        4.2519   -0.6854   -0.7030 C.ar      1 RES1    0.0000
     51 H1A        5.0217   -1.0829   -0.3123 H         1 RES1    0.0000
     52 C3A        3.9421   -0.9565   -2.0178 C.ar      1 RES1    0.0000
     53 H2A        4.4884   -1.5513   -2.5166 H         1 RES1    0.0000
     54 C4A        2.8406   -0.3698   -2.6189 C.ar      1 RES1    0.0000
     55 H3A        2.6317   -0.5586   -3.5266 H         1 RES1    0.0000
     56 C5A        2.0545    0.4886   -1.8878 C.ar      1 RES1    0.0000
     57 H4A        1.3103    0.9067   -2.3034 H         1 RES1    0.0000
     58 C6A        2.3318    0.7559   -0.5434 C.ar      1 RES1    0.0000
     59 C7A        1.4754    1.6473    0.2394 C.ar      1 RES1    0.0000
     60 C8A        0.1266    1.8342   -0.0934 C.ar      1 RES1    0.0000
     61 H5A       -0.2278    1.3987   -0.8600 H         1 RES1    0.0000
     62 C9A       -0.6954    2.6335    0.6654 C.ar      1 RES1    0.0000
     63 H6A       -1.6116    2.7373    0.4376 H         1 RES1    0.0000
     64 C10A      -0.1674    3.2860    1.7684 C.ar      1 RES1    0.0000
     65 H7A       -0.7258    3.8481    2.2937 H         1 RES1    0.0000
     66 C11A       1.1600    3.1290    2.1118 C.ar      1 RES1    0.0000
     67 H8A        1.5007    3.5924    2.8675 H         1 RES1    0.0000
     68 C12A       2.0176    2.3026    1.3714 C.ar      1 RES1    0.0000
     69 C13A       3.3706    1.9094    1.8412 C.ar      1 RES1    0.0000
     70 C14A       4.1577    2.6511    2.7247 C.ar      1 RES1    0.0000
     71 C17A       4.6423   -0.1113    2.3167 C.ar      1 RES1    0.0000
     72 C18A       3.8261    0.6046    1.4420 C.ar      1 RES1    0.0000
     73 C19A       3.8508    4.0870    2.9576 C.ar      1 RES1    0.0000
     74 C20A       3.8489    4.9937    1.8900 C.ar      1 RES1    0.0000
     75 H9A        4.0355    4.6817    1.0113 H         1 RES1    0.0000
     76 C21A       3.5816    6.3282    2.0934 C.ar      1 RES1    0.0000
     77 H10A       3.6124    6.9334    1.3622 H         1 RES1    0.0000
     78 C22A       3.2681    6.7931    3.3593 C.ar      1 RES1    0.0000
     79 H11A       3.0720    7.7134    3.4963 H         1 RES1    0.0000
     80 C23A       3.2423    5.9137    4.4165 C.ar      1 RES1    0.0000
     81 H12A       3.0203    6.2287    5.2850 H         1 RES1    0.0000
     82 C24A       3.5373    4.5709    4.2275 C.ar      1 RES1    0.0000
     83 H13A       3.5261    3.9770    4.9686 H         1 RES1    0.0000
     84 C25A       4.9870   -1.5276    2.0159 C.ar      1 RES1    0.0000
     85 C26A       6.3067   -1.8903    1.7828 C.ar      1 RES1    0.0000
     86 H14A       6.9998   -1.2655    1.9566 H         1 RES1    0.0000
     87 C27A       6.6285   -3.1436    1.3029 C.ar      1 RES1    0.0000
     88 H15A       7.5336   -3.3668    1.1200 H         1 RES1    0.0000
     89 C28A       5.6305   -4.0709    1.0903 C.ar      1 RES1    0.0000
     90 H16A       5.8480   -4.9310    0.7513 H         1 RES1    0.0000
     91 C29A       4.3144   -3.7529    1.3696 C.ar      1 RES1    0.0000
     92 H17A       3.6311   -4.4003    1.2466 H         1 RES1    0.0000
     93 C30A       3.9962   -2.4814    1.8307 C.ar      1 RES1    0.0000
     94 H18A       3.0910   -2.2624    2.0213 H         1 RES1    0.0000
@<TRIPOS>BOND
     1    1    2 ar
     2    2    3 1
     3    4    2 ar
     4    5    4 1
     5    6    4 ar
     6    7    6 1
     7    8    6 ar
     8    9    8 1
     9   10    1 ar
    10   11   10 1
    11   12   11 ar
    12   13   12 1
    13   14   12 ar
    14   15   14 1
    15   16   14 ar
    16   17   16 1
    17   18   16 ar
    18   19   18 1
    19   20   11 ar
    20   21   20 1
    21   22   21 ar
    22   23   22 ar
    23   24   23 ar
    24   25   24 ar
    25   26    1 1
    26   27   22 1
    27   28   27 ar
    28   29   28 1
    29   30   28 ar
    30   31   30 1
    31   32   30 ar
    32   33   32 1
    33   34   32 ar
    34   35   34 1
    35   36   27 ar
    36   37   36 1
    37   38   25 1
    38   39   38 ar
    39   40   39 1
    40   41   39 ar
    41   42   41 1
    42   43   41 ar
    43   44   43 1
    44   45   43 ar
    45   46   45 1
    46   47   38 ar
    47   48   47 1
    48   49   50 ar
    49   50   51 1
    50   52   50 ar
    51   53   52 1
    52   54   52 ar
    53   55   54 1
    54   56   54 ar
    55   57   56 1
    56   58   49 ar
    57   59   58 1
    58   60   59 ar
    59   61   60 1
    60   62   60 ar
    61   63   62 1
    62   64   62 ar
    63   65   64 1
    64   66   64 ar
    65   67   66 1
    66   68   59 ar
    67   69   68 1
    68   70   23 ar
    69   71   24 ar
    70   72   49 1
    71   73   70 1
    72   74   73 ar
    73   75   74 1
    74   76   74 ar
    75   77   76 1
    76   78   76 ar
    77   79   78 1
    78   80   78 ar
    79   81   80 1
    80   82   73 ar
    81   83   82 1
    82   84   71 1
    83   85   84 ar
    84   86   85 1
    85   87   85 ar
    86   88   87 1
    87   89   87 ar
    88   90   89 1
    89   91   89 ar
    90   92   91 1
    91   93   84 ar
    92   94   93 1
    93    8   10 ar
    94   18   20 ar
    95   21   26 ar
    96   25   26 ar
    97   34   36 ar
    98   45   47 ar
    99   56   58 ar
   100   66   68 ar
   101   69   70 ar
   102   69   72 ar
   103   71   72 ar
   104   80   82 ar
   105   91   93 ar
@<TRIPOS>SUBSTRUCTURE
     1 RES1 1

@<TRIPOS>CRYSIN
  12.6924   21.4857   14.4763  90.0000 108.1050  90.0000  15 1

