# MOL2 file generated by ConQuest
# Please check atom types

@<TRIPOS>MOLECULE
DIGGIL
    90   100     2
SMALL
NO_CHARGES
****
Generated from CSD

@<TRIPOS>ATOM
      1 C1         4.7943    6.5396    7.6965 C.ar      1 RES1    0.0000
      2 C2        -0.6505    7.6178    5.1035 C.ar      1 RES1    0.0000
      3 C3         3.2434    8.1169    6.6925 C.ar      1 RES1    0.0000
      4 C4         1.8812    8.1234    6.1251 C.ar      1 RES1    0.0000
      5 C5         1.2985    6.8990    6.3500 C.ar      1 RES1    0.0000
      6 C6         0.0041    6.5756    5.8476 C.ar      1 RES1    0.0000
      7 C7         2.2589    5.9944    7.1338 C.3       1 RES1    0.0000
      8 H1         2.4645    5.1906    6.6127 H         1 RES1    0.0000
      9 C8         5.7923    7.5457    7.6082 C.ar      1 RES1    0.0000
     10 C9         3.4926    6.8889    7.2215 C.ar      1 RES1    0.0000
     11 C10        1.6895    5.6026    8.4987 C.ar      1 RES1    0.0000
     12 C11       -0.0466    8.8429    4.9072 C.ar      1 RES1    0.0000
     13 H2        -0.4930    9.4911    4.4129 H         1 RES1    0.0000
     14 C12        1.2053    9.1374    5.4236 C.ar      1 RES1    0.0000
     15 H3         1.5849    9.9786    5.3108 H         1 RES1    0.0000
     16 C13        1.2141    6.5936    9.3435 C.ar      1 RES1    0.0000
     17 H4         1.2656    7.4874    9.0920 H         1 RES1    0.0000
     18 C14        5.1430    5.2547    8.1450 C.ar      1 RES1    0.0000
     19 H5         4.4965    4.5892    8.2017 H         1 RES1    0.0000
     20 C15        4.2318    9.1259    6.6448 C.ar      1 RES1    0.0000
     21 H6         4.0395    9.9714    6.3064 H         1 RES1    0.0000
     22 C16        5.4707    8.8205    7.1097 C.ar      1 RES1    0.0000
     23 H7         6.1293    9.4767    7.0990 H         1 RES1    0.0000
     24 C17       -1.9064    7.2944    4.5209 C.ar      1 RES1    0.0000
     25 H8        -2.3379    7.9318    3.9994 H         1 RES1    0.0000
     26 C18        6.4486    4.9810    8.5008 C.ar      1 RES1    0.0000
     27 H9         6.6778    4.1305    8.7971 H         1 RES1    0.0000
     28 C19       -0.6285    5.3584    6.0276 C.ar      1 RES1    0.0000
     29 H10       -0.2134    4.7052    6.5418 H         1 RES1    0.0000
     30 C20       -1.8536    5.0884    5.4659 C.ar      1 RES1    0.0000
     31 H11       -2.2561    4.2587    5.5903 H         1 RES1    0.0000
     32 C21        7.1220    7.2195    8.0045 C.ar      1 RES1    0.0000
     33 H12        7.7820    7.8749    7.9758 H         1 RES1    0.0000
     34 C22        7.4358    5.9807    8.4175 C.ar      1 RES1    0.0000
     35 H13        8.3148    5.7812    8.6497 H         1 RES1    0.0000
     36 C23        0.6609    6.2436   10.5650 C.ar      1 RES1    0.0000
     37 H14        0.3328    6.9076   11.1271 H         1 RES1    0.0000
     38 C24        1.6216    4.2911    8.8986 C.ar      1 RES1    0.0000
     39 H15        1.9517    3.6220    8.3434 H         1 RES1    0.0000
     40 C25       -2.4938    6.0837    4.7039 C.ar      1 RES1    0.0000
     41 H16       -3.3237    5.9108    4.3210 H         1 RES1    0.0000
     42 C26        1.0625    3.9576   10.1277 C.ar      1 RES1    0.0000
     43 H17        1.0105    3.0667   10.3862 H         1 RES1    0.0000
     44 C27        0.5925    4.9378   10.9529 C.ar      1 RES1    0.0000
     45 H18        0.2250    4.7153   11.7780 H         1 RES1    0.0000
     46 C28        0.9867    2.9378    1.8913 C.ar      2 RES2    0.0000
     47 C29        3.8833    4.5302    3.4402 C.ar      2 RES2    0.0000
     48 C30        2.5245    4.5143    2.8798 C.ar      2 RES2    0.0000
     49 C31        6.4192    4.0051    4.4748 C.ar      2 RES2    0.0000
     50 C32        5.7528    2.9846    3.7159 C.ar      2 RES2    0.0000
     51 C33        2.2577    3.2770    2.3428 C.ar      2 RES2    0.0000
     52 C34        4.4568    3.2856    3.2169 C.ar      2 RES2    0.0000
     53 C35       -0.0183    3.9598    1.9687 C.ar      2 RES2    0.0000
     54 C36        3.5078    2.3983    2.4379 C.3       2 RES2    0.0000
     55 H19        3.3058    1.5953    2.9617 H         2 RES2    0.0000
     56 C37        4.0715    1.9907    1.0779 C.ar      2 RES2    0.0000
     57 C38        0.2978    5.2151    2.4712 C.ar      2 RES2    0.0000
     58 H20       -0.3601    5.8720    2.4888 H         2 RES2    0.0000
     59 C39        0.6112    1.6651    1.4190 C.ar      2 RES2    0.0000
     60 H21        1.2684    1.0119    1.3421 H         2 RES2    0.0000
     61 C40        5.7958    5.2612    4.6706 C.ar      2 RES2    0.0000
     62 H22        6.2380    5.9216    5.1538 H         2 RES2    0.0000
     63 C41        4.5577    5.5162    4.1621 C.ar      2 RES2    0.0000
     64 H23        4.1622    6.3466    4.2961 H         2 RES2    0.0000
     65 C42        1.5264    5.5111    2.9344 C.ar      2 RES2    0.0000
     66 H24        1.7142    6.3531    3.2815 H         2 RES2    0.0000
     67 C43        4.5599    2.9695    0.2328 C.ar      2 RES2    0.0000
     68 H25        4.5257    3.8611    0.4959 H         2 RES2    0.0000
     69 C44       -0.6854    1.3382    1.0647 C.ar      2 RES2    0.0000
     70 H26       -0.9107    0.4804    0.7849 H         2 RES2    0.0000
     71 C45       -1.3415    3.6047    1.5720 C.ar      2 RES2    0.0000
     72 H27       -2.0074    4.2529    1.6101 H         2 RES2    0.0000
     73 C46        7.6774    3.7027    5.0451 C.ar      2 RES2    0.0000
     74 H28        8.1246    4.3465    5.5463 H         2 RES2    0.0000
     75 C47        6.3853    1.7537    3.5367 C.ar      2 RES2    0.0000
     76 H29        5.9704    1.0883    3.0364 H         2 RES2    0.0000
     77 C48        7.6071    1.5211    4.0894 C.ar      2 RES2    0.0000
     78 H30        8.0257    0.7044    3.9420 H         2 RES2    0.0000
     79 C49       -1.6636    2.3774    1.1485 C.ar      2 RES2    0.0000
     80 H31       -2.5429    2.1967    0.9036 H         2 RES2    0.0000
     81 C50        5.1011    2.6425   -1.0005 C.ar      2 RES2    0.0000
     82 H32        5.4140    3.3094   -1.5680 H         2 RES2    0.0000
     83 C51        4.1347    0.6893    0.6726 C.ar      2 RES2    0.0000
     84 H33        3.8045    0.0209    1.2291 H         2 RES2    0.0000
     85 C52        8.2384    2.4747    4.8667 C.ar      2 RES2    0.0000
     86 H34        9.0526    2.2759    5.2687 H         2 RES2    0.0000
     87 C53        5.1696    1.3252   -1.3727 C.ar      2 RES2    0.0000
     88 H35        5.5521    1.0983   -2.1902 H         2 RES2    0.0000
     89 C54        4.6850    0.3435   -0.5609 C.ar      2 RES2    0.0000
     90 H36        4.7195   -0.5474   -0.8271 H         2 RES2    0.0000
@<TRIPOS>BOND
     1    1    9 ar
     2    2    6 ar
     3    3    4 1
     4    4    5 ar
     5    5    6 ar
     6    6   28 ar
     7    7    5 1
     8    8    7 1
     9    9   22 ar
    10   10    1 ar
    11   11    7 1
    12   12    2 ar
    13   13   12 1
    14   14    4 ar
    15   15   14 1
    16   16   11 ar
    17   17   16 1
    18   18    1 ar
    19   19   18 1
    20   20    3 ar
    21   21   20 1
    22   22   20 ar
    23   23   22 1
    24   24    2 ar
    25   25   24 1
    26   26   18 ar
    27   27   26 1
    28   28   29 1
    29   30   28 ar
    30   31   30 1
    31   32    9 ar
    32   33   32 1
    33   34   26 ar
    34   35   34 1
    35   36   16 ar
    36   37   36 1
    37   38   11 ar
    38   39   38 1
    39   40   24 ar
    40   41   40 1
    41   42   38 ar
    42   43   42 1
    43   44   36 ar
    44   45   44 1
    45   46   51 ar
    46   47   48 1
    47   48   51 ar
    48   49   50 ar
    49   50   52 ar
    50   51   54 1
    51   52   47 ar
    52   53   46 ar
    53   54   52 1
    54   55   54 1
    55   56   54 1
    56   57   53 ar
    57   58   57 1
    58   59   46 ar
    59   60   59 1
    60   61   49 ar
    61   62   61 1
    62   63   47 ar
    63   64   63 1
    64   65   48 ar
    65   66   65 1
    66   67   56 ar
    67   68   67 1
    68   69   59 ar
    69   70   69 1
    70   71   53 ar
    71   72   71 1
    72   73   49 ar
    73   74   73 1
    74   75   50 ar
    75   76   75 1
    76   77   75 ar
    77   78   77 1
    78   79   69 ar
    79   80   79 1
    80   81   67 ar
    81   82   81 1
    82   83   56 ar
    83   84   83 1
    84   85   73 ar
    85   86   85 1
    86   87   81 ar
    87   88   87 1
    88   89   83 ar
    89   90   89 1
    90    3   10 ar
    91    7   10 1
    92   12   14 ar
    93   30   40 ar
    94   32   34 ar
    95   42   44 ar
    96   57   65 ar
    97   61   63 ar
    98   71   79 ar
    99   77   85 ar
   100   87   89 ar
@<TRIPOS>SUBSTRUCTURE
     1 RES1 1
     2 RES2 46

@<TRIPOS>CRYSIN
  12.9750    7.2022   19.2000  90.0000  94.3380  90.0000   2 1

