# MOL2 file generated by ConQuest
# Please check atom types

@<TRIPOS>MOLECULE
DIMNAP
    24    25     1
SMALL
NO_CHARGES
****
Generated from CSD

@<TRIPOS>ATOM
      1 C1         1.2405    3.6121    5.3657 C.ar      1 RES1    0.0000
      2 C2         0.2355    2.9011    3.2270 C.ar      1 RES1    0.0000
      3 C3         2.2720    4.3891    6.1285 C.3       1 RES1    0.0000
      4 C4        -0.8518    2.1215    1.0094 C.3       1 RES1    0.0000
      5 C5         0.2671    2.8993    6.0249 C.ar      1 RES1    0.0000
      6 C6        -0.7504    2.1821    5.3246 C.ar      1 RES1    0.0000
      7 C7        -0.7804    2.1669    3.9438 C.ar      1 RES1    0.0000
      8 C8         0.1937    2.9180    1.7919 C.ar      1 RES1    0.0000
      9 C9         1.1414    3.6264    1.1310 C.ar      1 RES1    0.0000
     10 C10        2.1561    4.3463    1.8182 C.ar      1 RES1    0.0000
     11 C11        2.1918    4.3516    3.2073 C.ar      1 RES1    0.0000
     12 C12        1.1926    3.6139    3.9207 C.ar      1 RES1    0.0000
     13 H1         2.1909    5.4440    5.8688 H         1 RES1    0.0000
     14 H2         3.2662    4.0273    5.8688 H         1 RES1    0.0000
     15 H3        -0.6789    2.2453   -0.0658 H         1 RES1    0.0000
     16 H4        -1.8497    2.4859    1.2658 H         1 RES1    0.0000
     17 H5        -0.7744    1.0603    1.2658 H         1 RES1    0.0000
     18 H6         0.2642    2.8779    7.1182 H         1 RES1    0.0000
     19 H7        -1.5080    1.6305    5.8852 H         1 RES1    0.0000
     20 H8        -1.5513    1.6127    3.4029 H         1 RES1    0.0000
     21 H9         1.1272    3.6442    0.0493 H         1 RES1    0.0000
     22 H10        2.9213    4.8916    1.2658 H         1 RES1    0.0000
     23 H11        2.9646    4.9005    3.7481 H         1 RES1    0.0000
     24 H12        2.1078    4.2679    7.2003 H         1 RES1    0.0000
@<TRIPOS>BOND
     1    1    3 1
     2    2    7 ar
     3    3   13 1
     4    4    8 1
     5    5    1 ar
     6    6    5 ar
     7    7    6 ar
     8    8    2 ar
     9    9    8 ar
    10   10    9 ar
    11   11   10 ar
    12   12    1 ar
    13   14    3 1
    14   15    4 1
    15   16    4 1
    16   17    4 1
    17   18    5 1
    18   19    6 1
    19   20    7 1
    20   21    9 1
    21   22   10 1
    22   23   11 1
    23   24    3 1
    24    2   12 ar
    25   11   12 ar
@<TRIPOS>SUBSTRUCTURE
     1 RES1 1

@<TRIPOS>CRYSIN
   6.1800    8.9100   16.7700  90.0000 101.4000  90.0000  14 1

