# MOL2 file generated by ConQuest
# Please check atom types

@<TRIPOS>MOLECULE
DITBEN03
    48    53     1
SMALL
NO_CHARGES
****
Generated from CSD

@<TRIPOS>ATOM
      1 C1        -1.0628    5.2179    5.6176 C.ar      1 RES1    0.0000
      2 H1        -1.8828    5.2521    5.1814 H         1 RES1    0.0000
      3 C2         0.4457    4.1158    7.2119 C.ar      1 RES1    0.0000
      4 C3         1.4018    5.1521    6.9962 C.ar      1 RES1    0.0000
      5 C4         1.1588    6.1875    6.0478 C.ar      1 RES1    0.0000
      6 C5        -0.8192    4.1629    6.5093 C.ar      1 RES1    0.0000
      7 C6        -0.1154    6.2259    5.3569 C.ar      1 RES1    0.0000
      8 C7        -0.3622    7.3042    4.4393 C.ar      1 RES1    0.0000
      9 H2        -1.1841    7.3516    4.0066 H         1 RES1    0.0000
     10 C8         0.6771    3.0275    8.1159 C.ar      1 RES1    0.0000
     11 H3         1.4890    2.9772    8.5674 H         1 RES1    0.0000
     12 C9         1.8435    8.2052    4.8385 C.ar      1 RES1    0.0000
     13 H4         2.4856    8.8501    4.6500 H         1 RES1    0.0000
     14 C10        2.6144    5.1664    7.7906 C.1       1 RES1    0.0000
     15 C11        2.1226    7.2078    5.7416 C.ar      1 RES1    0.0000
     16 H5         2.9510    7.1931    6.1634 H         1 RES1    0.0000
     17 C12       -1.7836    3.1199    6.7814 C.ar      1 RES1    0.0000
     18 H6        -2.6048    3.1342    6.3463 H         1 RES1    0.0000
     19 C13       -0.2666    2.0650    8.3288 C.ar      1 RES1    0.0000
     20 H7        -0.0888    1.3673    8.9179 H         1 RES1    0.0000
     21 C14       -1.5137    2.1176    7.6613 C.ar      1 RES1    0.0000
     22 H8        -2.1534    1.4629    7.8248 H         1 RES1    0.0000
     23 C15        0.5769    8.2576    4.1883 C.ar      1 RES1    0.0000
     24 H9         0.3911    8.9458    3.5907 H         1 RES1    0.0000
     25 C1A        7.2342    5.2179   10.7136 C.ar      1 RES1    0.0000
     26 H1A        8.0542    5.2521   11.1499 H         1 RES1    0.0000
     27 C2A        5.7256    4.1158    9.1194 C.ar      1 RES1    0.0000
     28 C3A        4.7696    5.1521    9.3350 C.ar      1 RES1    0.0000
     29 C4A        5.0125    6.1875   10.2834 C.ar      1 RES1    0.0000
     30 C5A        6.9906    4.1629    9.8219 C.ar      1 RES1    0.0000
     31 C6A        6.2868    6.2259   10.9744 C.ar      1 RES1    0.0000
     32 C7A        6.5336    7.3042   11.8920 C.ar      1 RES1    0.0000
     33 H2A        7.3555    7.3516   12.3246 H         1 RES1    0.0000
     34 C8A        5.4943    3.0275    8.2154 C.ar      1 RES1    0.0000
     35 H3A        4.6824    2.9772    7.7639 H         1 RES1    0.0000
     36 C9A        4.3279    8.2052   11.4927 C.ar      1 RES1    0.0000
     37 H4A        3.6857    8.8501   11.6812 H         1 RES1    0.0000
     38 C10A       3.5570    5.1664    8.5406 C.1       1 RES1    0.0000
     39 C11A       4.0488    7.2078   10.5896 C.ar      1 RES1    0.0000
     40 H5A        3.2203    7.1931   10.1678 H         1 RES1    0.0000
     41 C12A       7.9550    3.1199    9.5498 C.ar      1 RES1    0.0000
     42 H6A        8.7761    3.1342    9.9849 H         1 RES1    0.0000
     43 C13A       6.4380    2.0650    8.0024 C.ar      1 RES1    0.0000
     44 H7A        6.2601    1.3673    7.4133 H         1 RES1    0.0000
     45 C14A       7.6850    2.1176    8.6699 C.ar      1 RES1    0.0000
     46 H8A        8.3248    1.4629    8.5064 H         1 RES1    0.0000
     47 C15A       5.5945    8.2576   12.1429 C.ar      1 RES1    0.0000
     48 H9A        5.7802    8.9458   12.7405 H         1 RES1    0.0000
@<TRIPOS>BOND
     1    1    2 1
     2    3    4 ar
     3    4    5 ar
     4    5    7 ar
     5    6    1 ar
     6    7    1 ar
     7    8    7 ar
     8    9    8 1
     9   10    3 ar
    10   11   10 1
    11   12   13 1
    12   14    4 1
    13   15    5 ar
    14   16   15 1
    15   17    6 ar
    16   18   17 1
    17   19   10 ar
    18   20   19 1
    19   21   17 ar
    20   22   21 1
    21   23    8 ar
    22   24   23 1
    23   25   26 1
    24   27   28 ar
    25   28   29 ar
    26   29   31 ar
    27   30   25 ar
    28   31   25 ar
    29   32   31 ar
    30   33   32 1
    31   34   27 ar
    32   35   34 1
    33   36   37 1
    34   38   14 3
    35   39   29 ar
    36   40   39 1
    37   41   30 ar
    38   42   41 1
    39   43   34 ar
    40   44   43 1
    41   45   41 ar
    42   46   45 1
    43   47   32 ar
    44   48   47 1
    45    3    6 ar
    46   12   15 ar
    47   12   23 ar
    48   19   21 ar
    49   27   30 ar
    50   28   38 1
    51   36   39 ar
    52   36   47 ar
    53   43   45 ar
@<TRIPOS>SUBSTRUCTURE
     1 RES1 1

@<TRIPOS>CRYSIN
  13.0387   14.2721   11.8109  90.0000 112.8069  90.0000  15 1

