# MOL2 file generated by ConQuest
# Please check atom types

@<TRIPOS>MOLECULE
DITBEN02
    48    53     1
SMALL
NO_CHARGES
****
Generated from CSD

@<TRIPOS>ATOM
      1 C1         1.4565    5.0787    6.9023 C.ar      1 RES1    0.0000
      2 C2         1.2012    6.1008    5.9607 C.ar      1 RES1    0.0000
      3 C3         2.1521    7.1140    5.6495 C.ar      1 RES1    0.0000
      4 H1         2.9838    7.1045    6.0644 H         1 RES1    0.0000
      5 C4         1.8603    8.0981    4.7518 C.ar      1 RES1    0.0000
      6 H2         2.4965    8.7474    4.5553 H         1 RES1    0.0000
      7 C5         0.5906    8.1395    4.1143 C.ar      1 RES1    0.0000
      8 H3         0.3924    8.8262    3.5199 H         1 RES1    0.0000
      9 C6        -0.3305    7.1816    4.3705 C.ar      1 RES1    0.0000
     10 H4        -1.1547    7.2185    3.9420 H         1 RES1    0.0000
     11 C7        -0.0674    6.1183    5.2814 C.ar      1 RES1    0.0000
     12 C8        -0.9986    5.1144    5.5435 C.ar      1 RES1    0.0000
     13 H5        -1.8219    5.1424    5.1128 H         1 RES1    0.0000
     14 C9        -0.7370    4.0711    6.4275 C.ar      1 RES1    0.0000
     15 C10       -1.6845    3.0321    6.6983 C.ar      1 RES1    0.0000
     16 H6        -2.5073    3.0410    6.2653 H         1 RES1    0.0000
     17 C11       -1.4044    2.0401    7.5709 C.ar      1 RES1    0.0000
     18 H7        -2.0358    1.3770    7.7347 H         1 RES1    0.0000
     19 C12       -0.1593    2.0008    8.2363 C.ar      1 RES1    0.0000
     20 H8         0.0272    1.3067    8.8271 H         1 RES1    0.0000
     21 C13        0.7692    2.9698    8.0190 C.ar      1 RES1    0.0000
     22 H9         1.5835    2.9299    8.4672 H         1 RES1    0.0000
     23 C14        0.5190    4.0413    7.1205 C.ar      1 RES1    0.0000
     24 C15        2.6587    5.1040    7.6895 C.1       1 RES1    0.0000
     25 C1A        4.8089    5.0787    9.2095 C.ar      1 RES1    0.0000
     26 C2A        5.0642    6.1008   10.1510 C.ar      1 RES1    0.0000
     27 C3A        4.1133    7.1140   10.4622 C.ar      1 RES1    0.0000
     28 H1A        3.2816    7.1045   10.0473 H         1 RES1    0.0000
     29 C4A        4.4051    8.0981   11.3599 C.ar      1 RES1    0.0000
     30 H2A        3.7689    8.7474   11.5564 H         1 RES1    0.0000
     31 C5A        5.6748    8.1395   11.9974 C.ar      1 RES1    0.0000
     32 H3A        5.8730    8.8262   12.5918 H         1 RES1    0.0000
     33 C6A        6.5959    7.1816   11.7412 C.ar      1 RES1    0.0000
     34 H4A        7.4201    7.2185   12.1697 H         1 RES1    0.0000
     35 C7A        6.3328    6.1183   10.8303 C.ar      1 RES1    0.0000
     36 C8A        7.2640    5.1144   10.5682 C.ar      1 RES1    0.0000
     37 H5A        8.0873    5.1424   10.9989 H         1 RES1    0.0000
     38 C9A        7.0024    4.0711    9.6842 C.ar      1 RES1    0.0000
     39 C10A       7.9499    3.0321    9.4134 C.ar      1 RES1    0.0000
     40 H6A        8.7727    3.0410    9.8464 H         1 RES1    0.0000
     41 C11A       7.6698    2.0401    8.5408 C.ar      1 RES1    0.0000
     42 H7A        8.3012    1.3770    8.3770 H         1 RES1    0.0000
     43 C12A       6.4247    2.0008    7.8754 C.ar      1 RES1    0.0000
     44 H8A        6.2382    1.3067    7.2846 H         1 RES1    0.0000
     45 C13A       5.4962    2.9698    8.0927 C.ar      1 RES1    0.0000
     46 H9A        4.6819    2.9299    7.6445 H         1 RES1    0.0000
     47 C14A       5.7464    4.0413    8.9912 C.ar      1 RES1    0.0000
     48 C15A       3.6067    5.1040    8.4222 C.1       1 RES1    0.0000
@<TRIPOS>BOND
     1    1    2 ar
     2    2    3 ar
     3    3    4 1
     4    5    3 ar
     5    6    5 1
     6    7    5 ar
     7    8    7 1
     8    9    7 ar
     9   10    9 1
    10   11    2 ar
    11   12   11 ar
    12   13   12 1
    13   14   12 ar
    14   15   14 ar
    15   16   15 1
    16   17   15 ar
    17   18   17 1
    18   19   17 ar
    19   20   19 1
    20   21   19 ar
    21   22   21 1
    22   23    1 ar
    23   24    1 1
    24   25   26 ar
    25   26   27 ar
    26   27   28 1
    27   29   27 ar
    28   30   29 1
    29   31   29 ar
    30   32   31 1
    31   33   31 ar
    32   34   33 1
    33   35   26 ar
    34   36   35 ar
    35   37   36 1
    36   38   36 ar
    37   39   38 ar
    38   40   39 1
    39   41   39 ar
    40   42   41 1
    41   43   41 ar
    42   44   43 1
    43   45   43 ar
    44   46   45 1
    45   47   25 ar
    46   48   24 3
    47    9   11 ar
    48   14   23 ar
    49   21   23 ar
    50   25   48 1
    51   33   35 ar
    52   38   47 ar
    53   45   47 ar
@<TRIPOS>SUBSTRUCTURE
     1 RES1 1

@<TRIPOS>CRYSIN
  12.8185   14.0656   11.5956  90.0000 112.1330  90.0000  15 1

