# MOL2 file generated by ConQuest
# Please check atom types

@<TRIPOS>MOLECULE
DIWPAC
    49    53     1
SMALL
NO_CHARGES
****
Generated from CSD

@<TRIPOS>ATOM
      1 C1         4.1626    5.1522    5.7023 C.ar      1 RES1    0.0000
      2 C2         3.0803    4.4367    6.1528 C.ar      1 RES1    0.0000
      3 H1         2.9353    3.5617    5.8120 H         1 RES1    0.0000
      4 C3         2.1673    4.9638    7.1133 C.ar      1 RES1    0.0000
      5 C4         1.0448    4.2339    7.5634 C.ar      1 RES1    0.0000
      6 H2         0.8918    3.3561    7.2337 H         1 RES1    0.0000
      7 C5         0.1773    4.7776    8.4683 C.ar      1 RES1    0.0000
      8 H3        -0.5733    4.2750    8.7632 H         1 RES1    0.0000
      9 C6         0.3892    6.0838    8.9675 C.ar      1 RES1    0.0000
     10 H4        -0.2241    6.4590    9.5879 H         1 RES1    0.0000
     11 C7         1.4668    6.8043    8.5613 C.ar      1 RES1    0.0000
     12 H5         1.6003    7.6799    8.9051 H         1 RES1    0.0000
     13 C8         2.4011    6.2649    7.6275 C.ar      1 RES1    0.0000
     14 C9         3.5517    6.9656    7.2088 C.ar      1 RES1    0.0000
     15 H6         3.7348    7.8228    7.5739 H         1 RES1    0.0000
     16 C10        4.4075    6.4311    6.2855 C.ar      1 RES1    0.0000
     17 H7         5.1802    6.9202    6.0273 H         1 RES1    0.0000
     18 C11        5.0470    4.5751    4.6694 C.2       1 RES1    0.0000
     19 H8         5.1122    3.6280    4.6545 H         1 RES1    0.0000
     20 C12        7.2571    5.7921    1.9788 C.3       1 RES1    0.0000
     21 H9         7.6429    5.5924    1.0792 H         1 RES1    0.0000
     22 C13        6.0547    6.7383    1.9599 C.3       1 RES1    0.0000
     23 H10        5.2806    6.3661    1.4683 H         1 RES1    0.0000
     24 H11        6.2796    7.6381    1.6151 H         1 RES1    0.0000
     25 C14        5.8570    6.7167    3.4886 C.3       1 RES1    0.0000
     26 H12        5.0881    7.2606    3.8273 H         1 RES1    0.0000
     27 C15        5.7622    5.2268    3.7564 C.2       1 RES1    0.0000
     28 C16        6.6693    4.5546    2.7188 C.3       1 RES1    0.0000
     29 H13        7.4072    4.0717    3.1911 H         1 RES1    0.0000
     30 C17        7.2561    7.1796    3.9705 C.3       1 RES1    0.0000
     31 H14        7.4442    6.8563    4.8869 H         1 RES1    0.0000
     32 H15        7.3322    8.1667    3.9521 H         1 RES1    0.0000
     33 C18        8.2134    6.5241    2.9371 C.3       1 RES1    0.0000
     34 H16        8.7431    7.2094    2.4569 H         1 RES1    0.0000
     35 H17        8.8319    5.8886    3.3771 H         1 RES1    0.0000
     36 C19        5.9892    3.6055    1.7536 C.ar      1 RES1    0.0000
     37 C20        6.7449    2.5964    1.1536 C.ar      1 RES1    0.0000
     38 H18        7.6401    2.4558    1.4389 H         1 RES1    0.0000
     39 C21        6.2181    1.7914    0.1476 C.ar      1 RES1    0.0000
     40 H19        6.7626    1.1234   -0.2521 H         1 RES1    0.0000
     41 C22        4.9052    1.9526   -0.2800 C.ar      1 RES1    0.0000
     42 C23        4.1430    2.9359    0.3404 C.ar      1 RES1    0.0000
     43 H20        3.2409    3.0611    0.0685 H         1 RES1    0.0000
     44 C24        4.6609    3.7388    1.3432 C.ar      1 RES1    0.0000
     45 H21        4.1056    4.3889    1.7570 H         1 RES1    0.0000
     46 C25        4.3288    1.1106   -1.3875 C.3       1 RES1    0.0000
     47 H22        3.6603    0.4972   -1.0180 H         1 RES1    0.0000
     48 H23        5.0460    0.5948   -1.8133 H         1 RES1    0.0000
     49 H24        3.9056    1.6914   -2.0532 H         1 RES1    0.0000
@<TRIPOS>BOND
     1    1    2 ar
     2    2    3 1
     3    4    2 ar
     4    5    4 ar
     5    6    5 1
     6    7    5 ar
     7    8    7 1
     8    9    7 ar
     9   10    9 1
    10   11    9 ar
    11   12   11 1
    12   13    4 ar
    13   14   13 ar
    14   15   14 1
    15   16    1 ar
    16   17   16 1
    17   18    1 1
    18   19   18 1
    19   20   21 1
    20   22   20 1
    21   23   22 1
    22   24   22 1
    23   25   22 1
    24   26   25 1
    25   27   18 2
    26   28   20 1
    27   29   28 1
    28   30   25 1
    29   31   30 1
    30   32   30 1
    31   33   20 1
    32   34   33 1
    33   35   33 1
    34   36   28 1
    35   37   36 ar
    36   38   37 1
    37   39   37 ar
    38   40   39 1
    39   41   39 ar
    40   42   41 ar
    41   43   42 1
    42   44   36 ar
    43   45   44 1
    44   46   41 1
    45   47   46 1
    46   48   46 1
    47   49   46 1
    48   11   13 ar
    49   14   16 ar
    50   25   27 1
    51   27   28 1
    52   30   33 1
    53   42   44 ar
@<TRIPOS>SUBSTRUCTURE
     1 RES1 1

@<TRIPOS>CRYSIN
   6.1765   11.6169   24.6124  90.0000  96.1360  90.0000  14 1

