# MOL2 file generated by ConQuest
# Please check atom types

@<TRIPOS>MOLECULE
DIWQUX
    68    74     2
SMALL
NO_CHARGES
****
Generated from CSD

@<TRIPOS>ATOM
      1 C1        10.0922    3.1485    2.1012 C.ar      1 RES1    0.0000
      2 C2        10.3115    1.7455    2.1305 C.ar      1 RES1    0.0000
      3 H1        10.2058    1.2934    2.9363 H         1 RES1    0.0000
      4 C3        10.6809    1.0120    0.9933 C.ar      1 RES1    0.0000
      5 H2        10.8030    0.0929    1.0653 H         1 RES1    0.0000
      6 C4        10.8674    1.6258   -0.2351 C.ar      1 RES1    0.0000
      7 H3        11.1336    1.1342   -0.9783 H         1 RES1    0.0000
      8 C5        10.6513    2.9524   -0.3234 C.ar      1 RES1    0.0000
      9 H4        10.7598    3.3715   -1.1468 H         1 RES1    0.0000
     10 C6        10.2485    3.7637    0.8404 C.ar      1 RES1    0.0000
     11 C7         9.9648    5.1208    0.8024 C.ar      1 RES1    0.0000
     12 H5        10.0427    5.5595   -0.0136 H         1 RES1    0.0000
     13 C8         9.5560    5.8961    1.9486 C.ar      1 RES1    0.0000
     14 C9         9.4430    5.2897    3.2184 C.ar      1 RES1    0.0000
     15 C10        9.7095    3.9296    3.2515 C.ar      1 RES1    0.0000
     16 H6         9.6379    3.4928    4.0695 H         1 RES1    0.0000
     17 C11        9.2185    7.2735    1.8914 C.ar      1 RES1    0.0000
     18 H7         9.2841    7.7150    1.0748 H         1 RES1    0.0000
     19 C12        8.7890    7.9937    3.0137 C.ar      1 RES1    0.0000
     20 H8         8.5752    8.8942    2.9186 H         1 RES1    0.0000
     21 C13        8.6748    7.4037    4.2652 C.ar      1 RES1    0.0000
     22 H9         8.3754    7.8971    4.9948 H         1 RES1    0.0000
     23 C14        9.0036    6.1027    4.4070 C.ar      1 RES1    0.0000
     24 C15        8.8871    5.5363    5.7484 C.ar      1 RES1    0.0000
     25 C16        9.9789    4.9433    6.2490 C.ar      1 RES1    0.0000
     26 H10       10.7763    4.8892    5.7734 H         1 RES1    0.0000
     27 C17        9.8448    4.4267    7.5004 C.ar      1 RES1    0.0000
     28 H11       10.5828    4.0027    7.8754 H         1 RES1    0.0000
     29 C18        8.6397    4.4916    8.2790 C.ar      1 RES1    0.0000
     30 H12        8.6226    4.1108    9.1282 H         1 RES1    0.0000
     31 C19        7.5512    5.0855    7.8088 C.ar      1 RES1    0.0000
     32 H13        6.7624    5.1440    8.2980 H         1 RES1    0.0000
     33 C20        7.6766    5.6024    6.5609 C.ar      1 RES1    0.0000
     34 H14        6.9366    6.0304    6.1960 H         1 RES1    0.0000
     35 C21        4.1258    4.6926    6.5969 C.ar      2 RES2    0.0000
     36 C22        3.9644    3.6581    7.5323 C.ar      2 RES2    0.0000
     37 H15        4.0504    2.7727    7.2599 H         2 RES2    0.0000
     38 C23        3.6776    3.9445    8.8555 C.ar      2 RES2    0.0000
     39 H16        3.5984    3.2403    9.4584 H         2 RES2    0.0000
     40 C24        3.4996    5.2834    9.3320 C.ar      2 RES2    0.0000
     41 H17        3.3000    5.4411   10.2261 H         2 RES2    0.0000
     42 C25        3.6206    6.2904    8.4882 C.ar      2 RES2    0.0000
     43 H18        3.4855    7.1606    8.7871 H         2 RES2    0.0000
     44 C26        3.9658    6.0508    7.0906 C.ar      2 RES2    0.0000
     45 C27        4.1967    7.0707    6.2041 C.ar      2 RES2    0.0000
     46 H19        4.0912    7.9499    6.4867 H         2 RES2    0.0000
     47 C28        4.5966    6.8150    4.8516 C.ar      2 RES2    0.0000
     48 C29        4.7368    5.4524    4.3389 C.ar      2 RES2    0.0000
     49 C30        4.4994    4.4353    5.2379 C.ar      2 RES2    0.0000
     50 H20        4.5840    3.5541    4.9527 H         2 RES2    0.0000
     51 C31        4.9261    7.8680    3.9676 C.ar      2 RES2    0.0000
     52 H21        4.8273    8.7493    4.2475 H         2 RES2    0.0000
     53 C32        5.3947    7.6067    2.6863 C.ar      2 RES2    0.0000
     54 H22        5.6277    8.3238    2.1414 H         2 RES2    0.0000
     55 C33        5.5352    6.2721    2.1713 C.ar      2 RES2    0.0000
     56 H23        5.8555    6.1373    1.3085 H         2 RES2    0.0000
     57 C34        5.2008    5.2133    2.9427 C.ar      2 RES2    0.0000
     58 C35        5.3634    3.8313    2.3379 C.ar      2 RES2    0.0000
     59 C36        6.5830    3.4319    1.6749 C.ar      2 RES2    0.0000
     60 H24        7.2818    4.0433    1.6305 H         2 RES2    0.0000
     61 C37        6.7662    2.1648    1.0935 C.ar      2 RES2    0.0000
     62 H25        7.5622    1.9401    0.6699 H         2 RES2    0.0000
     63 C38        5.7247    1.2711    1.1748 C.ar      2 RES2    0.0000
     64 H26        5.8135    0.4185    0.8139 H         2 RES2    0.0000
     65 C39        4.4980    1.6561    1.8173 C.ar      2 RES2    0.0000
     66 H27        3.8006    1.0418    1.8520 H         2 RES2    0.0000
     67 C40        4.3128    2.9222    2.3937 C.ar      2 RES2    0.0000
     68 H28        3.5080    3.1469    2.8018 H         2 RES2    0.0000
@<TRIPOS>BOND
     1    1    2 ar
     2    2    3 1
     3    4    2 ar
     4    5    4 1
     5    6    4 ar
     6    7    6 1
     7    8    6 ar
     8    9    8 1
     9   10    1 ar
    10   11   10 ar
    11   12   11 1
    12   13   11 ar
    13   14   13 ar
    14   15    1 ar
    15   16   15 1
    16   17   13 ar
    17   18   17 1
    18   19   17 ar
    19   20   19 1
    20   21   19 ar
    21   22   21 1
    22   23   14 ar
    23   24   23 1
    24   25   24 ar
    25   26   25 1
    26   27   25 ar
    27   28   27 1
    28   29   27 ar
    29   30   29 1
    30   31   29 ar
    31   32   31 1
    32   33   24 ar
    33   34   33 1
    34   35   36 ar
    35   36   37 1
    36   38   36 ar
    37   39   38 1
    38   40   38 ar
    39   41   40 1
    40   42   40 ar
    41   43   42 1
    42   44   35 ar
    43   45   44 ar
    44   46   45 1
    45   47   45 ar
    46   48   47 ar
    47   49   35 ar
    48   50   49 1
    49   51   47 ar
    50   52   51 1
    51   53   51 ar
    52   54   53 1
    53   55   53 ar
    54   56   55 1
    55   57   48 ar
    56   58   57 1
    57   59   58 ar
    58   60   59 1
    59   61   59 ar
    60   62   61 1
    61   63   61 ar
    62   64   63 1
    63   65   63 ar
    64   66   65 1
    65   67   58 ar
    66   68   67 1
    67    8   10 ar
    68   14   15 ar
    69   21   23 ar
    70   31   33 ar
    71   42   44 ar
    72   48   49 ar
    73   55   57 ar
    74   65   67 ar
@<TRIPOS>SUBSTRUCTURE
     1 RES1 1
     2 RES2 35

@<TRIPOS>CRYSIN
   9.6530   11.0910   14.6930  67.8700  85.1090  68.9300   2 1

