# MOL2 file generated by ConQuest
# Please check atom types

@<TRIPOS>MOLECULE
DIWQOR
    41    45     1
SMALL
NO_CHARGES
****
Generated from CSD

@<TRIPOS>ATOM
      1 C1         1.3723    6.4328    2.0379 C.ar      1 RES1    0.0000
      2 C2         1.5885    6.0542    0.6907 C.ar      1 RES1    0.0000
      3 H1         2.3815    5.6319    0.4488 H         1 RES1    0.0000
      4 C3         0.6473    6.3042   -0.2460 C.ar      1 RES1    0.0000
      5 H2         0.8068    6.0617   -1.1291 H         1 RES1    0.0000
      6 C4        -0.5580    6.9177    0.0857 C.ar      1 RES1    0.0000
      7 H3        -1.1911    7.0741   -0.5778 H         1 RES1    0.0000
      8 C5        -0.8204    7.2895    1.3632 C.ar      1 RES1    0.0000
      9 H4        -1.6335    7.6899    1.5730 H         1 RES1    0.0000
     10 C6         0.1502    7.0658    2.3857 C.ar      1 RES1    0.0000
     11 C7        -0.0404    7.4693    3.7043 C.ar      1 RES1    0.0000
     12 H5        -0.8375    7.8864    3.9384 H         1 RES1    0.0000
     13 C8         0.9271    7.2660    4.6786 C.ar      1 RES1    0.0000
     14 C9         2.1522    6.6033    4.3364 C.ar      1 RES1    0.0000
     15 C10        2.3329    6.2019    3.0227 C.ar      1 RES1    0.0000
     16 H6         3.1199    5.7652    2.7899 H         1 RES1    0.0000
     17 C11        0.7417    7.6848    6.0209 C.ar      1 RES1    0.0000
     18 H7        -0.0364    8.1373    6.2558 H         1 RES1    0.0000
     19 C12        1.6724    7.4385    6.9569 C.ar      1 RES1    0.0000
     20 H8         1.5236    7.7267    7.8288 H         1 RES1    0.0000
     21 C13        2.8828    6.7467    6.6503 C.ar      1 RES1    0.0000
     22 C14        3.1407    6.3574    5.3595 C.ar      1 RES1    0.0000
     23 C15        4.4002    5.6705    4.9581 C.3       1 RES1    0.0000
     24 H9         4.3260    4.6967    4.8668 H         1 RES1    0.0000
     25 C16        5.3479    6.3216    3.9928 C.3       1 RES1    0.0000
     26 H10        5.7812    5.7564    3.3356 H         1 RES1    0.0000
     27 H11        5.1339    7.2162    3.6848 H         1 RES1    0.0000
     28 C17        5.7424    6.1570    5.4139 C.3       1 RES1    0.0000
     29 H12        5.7690    6.9512    5.9694 H         1 RES1    0.0000
     30 H13        6.4177    5.4915    5.6202 H         1 RES1    0.0000
     31 C18        3.8060    6.4716    7.7828 C.ar      1 RES1    0.0000
     32 C19        4.2893    5.2024    8.0428 C.ar      1 RES1    0.0000
     33 H14        4.0393    4.4950    7.4929 H         1 RES1    0.0000
     34 C20        5.1351    4.9710    9.1021 C.ar      1 RES1    0.0000
     35 H15        5.4488    4.1107    9.2659 H         1 RES1    0.0000
     36 C21        5.5144    5.9980    9.9141 C.ar      1 RES1    0.0000
     37 H16        6.1047    5.8424   10.6166 H         1 RES1    0.0000
     38 C22        5.0296    7.2507    9.6938 C.ar      1 RES1    0.0000
     39 H17        5.2700    7.9478   10.2612 H         1 RES1    0.0000
     40 C23        4.1860    7.4865    8.6366 C.ar      1 RES1    0.0000
     41 H18        3.8646    8.3478    8.4930 H         1 RES1    0.0000
@<TRIPOS>BOND
     1    1    2 ar
     2    2    3 1
     3    4    2 ar
     4    5    4 1
     5    6    4 ar
     6    7    6 1
     7    8    6 ar
     8    9    8 1
     9   10    1 ar
    10   11   10 ar
    11   12   11 1
    12   13   11 ar
    13   14   13 ar
    14   15    1 ar
    15   16   15 1
    16   17   13 ar
    17   18   17 1
    18   19   17 ar
    19   20   19 1
    20   21   19 ar
    21   22   14 ar
    22   23   22 1
    23   24   23 1
    24   25   23 1
    25   26   25 1
    26   27   25 1
    27   28   23 1
    28   29   28 1
    29   30   28 1
    30   31   21 1
    31   32   31 ar
    32   33   32 1
    33   34   32 ar
    34   35   34 1
    35   36   34 ar
    36   37   36 1
    37   38   36 ar
    38   39   38 1
    39   40   31 ar
    40   41   40 1
    41    8   10 ar
    42   14   15 ar
    43   21   22 ar
    44   25   28 1
    45   38   40 ar
@<TRIPOS>SUBSTRUCTURE
     1 RES1 1

@<TRIPOS>CRYSIN
  13.2621   17.5448    7.8579  90.0000 117.5090  90.0000   9 1

