# MOL2 file generated by ConQuest
# Please check atom types

@<TRIPOS>MOLECULE
DIWQUX01
    68    74     2
SMALL
NO_CHARGES
****
Generated from CSD

@<TRIPOS>ATOM
      1 C1        11.3609   11.1463    4.4107 C.ar      1 RES1    0.0000
      2 C2        11.0100   12.4596    4.2747 C.ar      1 RES1    0.0000
      3 H1        10.7694   12.9508    5.0397 H         1 RES1    0.0000
      4 C3        10.9985   13.1025    3.0084 C.ar      1 RES1    0.0000
      5 H2        10.7628   14.0110    2.9490 H         1 RES1    0.0000
      6 C4        11.3250   12.4181    1.8866 C.ar      1 RES1    0.0000
      7 H3        11.3237   12.8593    1.0569 H         1 RES1    0.0000
      8 C5        11.6710   11.0337    1.9480 C.ar      1 RES1    0.0000
      9 C6        11.9714   10.3006    0.7968 C.ar      1 RES1    0.0000
     10 H4        11.9790   10.7424   -0.0326 H         1 RES1    0.0000
     11 C7        12.2608    8.9331    0.8367 C.ar      1 RES1    0.0000
     12 C8        12.5584    8.1643   -0.3339 C.ar      1 RES1    0.0000
     13 H5        12.5984    8.5910   -1.1712 H         1 RES1    0.0000
     14 C9        12.7842    6.8273   -0.2537 C.ar      1 RES1    0.0000
     15 H6        12.9840    6.3419   -1.0324 H         1 RES1    0.0000
     16 C10       12.7219    6.1591    0.9926 C.ar      1 RES1    0.0000
     17 H7        12.8650    5.2308    1.0324 H         1 RES1    0.0000
     18 C11       12.4559    6.8535    2.1348 C.ar      1 RES1    0.0000
     19 H8        12.4191    6.3969    2.9558 H         1 RES1    0.0000
     20 C12       12.2316    8.2620    2.1052 C.ar      1 RES1    0.0000
     21 C13       11.9607    9.0023    3.2614 C.ar      1 RES1    0.0000
     22 H9        11.9613    8.5607    4.0916 H         1 RES1    0.0000
     23 C14       11.6889   10.3750    3.2284 C.ar      1 RES1    0.0000
     24 C15       11.3818   10.5236    5.7636 C.ar      1 RES1    0.0000
     25 C16       12.5278    9.8992    6.2688 C.ar      1 RES1    0.0000
     26 H10       13.3086    9.8669    5.7470 H         1 RES1    0.0000
     27 C17       12.5222    9.3292    7.5304 C.ar      1 RES1    0.0000
     28 H11       13.2976    8.9122    7.8594 H         1 RES1    0.0000
     29 C18       11.3752    9.3719    8.3109 C.ar      1 RES1    0.0000
     30 H12       11.3703    8.9752    9.1625 H         1 RES1    0.0000
     31 C19       10.2404    9.9982    7.8332 C.ar      1 RES1    0.0000
     32 H13        9.4657   10.0354    8.3641 H         1 RES1    0.0000
     33 C20       10.2430   10.5723    6.5716 C.ar      1 RES1    0.0000
     34 H14        9.4681   11.0000    6.2557 H         1 RES1    0.0000
     35 C21        7.4281   10.2907    2.9387 C.ar      2 RES2    0.0000
     36 C22        7.6901   11.3904    2.1670 C.ar      2 RES2    0.0000
     37 H15        7.9397   11.2686    1.2691 H         2 RES2    0.0000
     38 C23        7.5960   12.7092    2.6822 C.ar      2 RES2    0.0000
     39 H16        7.7814   13.4406    2.1220 H         2 RES2    0.0000
     40 C24        7.2450   12.9270    3.9651 C.ar      2 RES2    0.0000
     41 H17        7.1592   13.8080    4.2820 H         2 RES2    0.0000
     42 C25        7.0020   11.8275    4.8491 C.ar      2 RES2    0.0000
     43 C26        6.7330   12.0360    6.2035 C.ar      2 RES2    0.0000
     44 H18        6.6415   12.9168    6.5210 H         2 RES2    0.0000
     45 C27        6.5963   10.9742    7.1015 C.ar      2 RES2    0.0000
     46 C28        6.3942   11.1743    8.5017 C.ar      2 RES2    0.0000
     47 H19        6.2797   12.0456    8.8347 H         2 RES2    0.0000
     48 C29        6.3661   10.1197    9.3551 C.ar      2 RES2    0.0000
     49 H20        6.2498   10.2697   10.2752 H         2 RES2    0.0000
     50 C30        6.5111    8.7904    8.8728 C.ar      2 RES2    0.0000
     51 H21        6.5040    8.0714    9.4781 H         2 RES2    0.0000
     52 C31        6.6609    8.5529    7.5401 C.ar      2 RES2    0.0000
     53 H22        6.7257    7.6682    7.2310 H         2 RES2    0.0000
     54 C32        6.7214    9.6317    6.6073 C.ar      2 RES2    0.0000
     55 C33        6.9539    9.4198    5.2406 C.ar      2 RES2    0.0000
     56 H23        7.0140    8.5383    4.9200 H         2 RES2    0.0000
     57 C34        7.0990   10.4806    4.3393 C.ar      2 RES2    0.0000
     58 C35        7.5396    8.9313    2.3320 C.ar      2 RES2    0.0000
     59 C36        6.4952    7.9956    2.3890 C.ar      2 RES2    0.0000
     60 H24        5.6926    8.2211    2.8238 H         2 RES2    0.0000
     61 C37        6.6323    6.7417    1.8122 C.ar      2 RES2    0.0000
     62 H25        5.9249    6.1242    1.8635 H         2 RES2    0.0000
     63 C38        7.8048    6.3919    1.1608 C.ar      2 RES2    0.0000
     64 H26        7.8974    5.5387    0.7781 H         2 RES2    0.0000
     65 C39        8.8414    7.3107    1.0787 C.ar      2 RES2    0.0000
     66 H27        9.6363    7.0826    0.6311 H         2 RES2    0.0000
     67 C40        8.7073    8.5643    1.6543 C.ar      2 RES2    0.0000
     68 H28        9.4146    9.1796    1.5888 H         2 RES2    0.0000
@<TRIPOS>BOND
     1    1    2 ar
     2    2    3 1
     3    4    2 ar
     4    5    4 1
     5    6    4 ar
     6    7    6 1
     7    8    6 ar
     8    9    8 ar
     9   10    9 1
    10   11    9 ar
    11   12   11 ar
    12   13   12 1
    13   14   12 ar
    14   15   14 1
    15   16   14 ar
    16   17   16 1
    17   18   16 ar
    18   19   18 1
    19   20   11 ar
    20   21   20 ar
    21   22   21 1
    22   23    1 ar
    23   24    1 1
    24   25   24 ar
    25   26   25 1
    26   27   25 ar
    27   28   27 1
    28   29   27 ar
    29   30   29 1
    30   31   29 ar
    31   32   31 1
    32   33   24 ar
    33   34   33 1
    34   35   36 ar
    35   36   37 1
    36   38   36 ar
    37   39   38 1
    38   40   38 ar
    39   41   40 1
    40   42   40 ar
    41   43   42 ar
    42   44   43 1
    43   45   43 ar
    44   46   45 ar
    45   47   46 1
    46   48   46 ar
    47   49   48 1
    48   50   48 ar
    49   51   50 1
    50   52   50 ar
    51   53   52 1
    52   54   45 ar
    53   55   54 ar
    54   56   55 1
    55   57   35 ar
    56   58   35 1
    57   59   58 ar
    58   60   59 1
    59   61   59 ar
    60   62   61 1
    61   63   61 ar
    62   64   63 1
    63   65   63 ar
    64   66   65 1
    65   67   58 ar
    66   68   67 1
    67    8   23 ar
    68   18   20 ar
    69   21   23 ar
    70   31   33 ar
    71   42   57 ar
    72   52   54 ar
    73   55   57 ar
    74   65   67 ar
@<TRIPOS>SUBSTRUCTURE
     1 RES1 1
     2 RES2 35

@<TRIPOS>CRYSIN
   9.6321   11.0943   14.7022  67.8620  79.8830  69.2190   2 1

