# MOL2 file generated by ConQuest
# Please check atom types

@<TRIPOS>MOLECULE
DIWRAE
    92    98     2
SMALL
NO_CHARGES
****
Generated from CSD

@<TRIPOS>ATOM
      1 C1         1.6876    4.1918   10.3065 C.ar      1 RES1    0.0000
      2 C2         1.9167    5.6149   10.5249 C.ar      1 RES1    0.0000
      3 C3         1.0062    6.5951   10.1072 C.ar      1 RES1    0.0000
      4 H1         0.2459    6.3306    9.6415 H         1 RES1    0.0000
      5 C4         1.2007    7.9613   10.3671 C.ar      1 RES1    0.0000
      6 C5         0.2789    8.9521    9.9559 C.ar      1 RES1    0.0000
      7 H2        -0.4850    8.6977    9.4909 H         1 RES1    0.0000
      8 C6         0.4828   10.2647   10.2228 C.ar      1 RES1    0.0000
      9 H3        -0.1498   10.8908    9.9575 H         1 RES1    0.0000
     10 C7         1.6547   10.6931   10.9073 C.ar      1 RES1    0.0000
     11 H4         1.7969   11.5975   11.0678 H         1 RES1    0.0000
     12 C8         2.5664    9.7723   11.3232 C.ar      1 RES1    0.0000
     13 H5         3.3262   10.0579   11.7768 H         1 RES1    0.0000
     14 C9         2.3831    8.3734   11.0792 C.ar      1 RES1    0.0000
     15 C10        3.2794    7.3979   11.4940 C.ar      1 RES1    0.0000
     16 H6         4.0451    7.6615   11.9504 H         1 RES1    0.0000
     17 C11        3.0772    6.0442   11.2533 C.ar      1 RES1    0.0000
     18 C12        3.9689    5.0564   11.7506 C.ar      1 RES1    0.0000
     19 H7         4.7531    5.3145   12.1796 H         1 RES1    0.0000
     20 C13        3.6850    3.7401   11.6065 C.ar      1 RES1    0.0000
     21 H8         4.2548    3.1122   11.9897 H         1 RES1    0.0000
     22 C14        2.5452    3.2859   10.8925 C.ar      1 RES1    0.0000
     23 C15        2.3480    1.7954   10.8451 C.ar      1 RES1    0.0000
     24 C16        1.2498    1.1790   11.4427 C.ar      1 RES1    0.0000
     25 H9         0.5917    1.7044   11.8390 H         1 RES1    0.0000
     26 C17        1.1228   -0.1904   11.4575 C.ar      1 RES1    0.0000
     27 H10        0.3870   -0.5858   11.8668 H         1 RES1    0.0000
     28 C18        2.0847   -0.9758   10.8663 C.ar      1 RES1    0.0000
     29 H11        2.0017   -1.9021   10.8762 H         1 RES1    0.0000
     30 C19        3.1587   -0.3954   10.2654 C.ar      1 RES1    0.0000
     31 H12        3.7973   -0.9263    9.8478 H         1 RES1    0.0000
     32 C20        3.3074    0.9794   10.2703 C.ar      1 RES1    0.0000
     33 H13        4.0621    1.3620    9.8822 H         1 RES1    0.0000
     34 C21        0.6101    3.7588    9.3402 C.3       1 RES1    0.0000
     35 H14       -0.2179    4.2124    9.5629 H         1 RES1    0.0000
     36 H15        0.4620    2.8046    9.4352 H         1 RES1    0.0000
     37 C22        0.9741    4.0660    7.8878 C.3       1 RES1    0.0000
     38 H16        0.2712    3.7273    7.3114 H         1 RES1    0.0000
     39 H17        1.0114    5.0289    7.7731 H         1 RES1    0.0000
     40 C23        2.3058    3.4655    7.4440 C.3       1 RES1    0.0000
     41 H18        3.0216    3.9049    7.9303 H         1 RES1    0.0000
     42 H19        2.3190    2.5264    7.6847 H         1 RES1    0.0000
     43 C24        2.5774    3.5882    5.9768 C.3       1 RES1    0.0000
     44 H20        1.8943    3.1287    5.4839 H         1 RES1    0.0000
     45 H21        3.4326    3.2019    5.7754 H         1 RES1    0.0000
     46 H22        2.5803    4.5163    5.7279 H         1 RES1    0.0000
     47 C25        4.6338   13.6524    7.3277 C.ar      2 RES2    0.0000
     48 C26        4.8326   12.2492    7.0328 C.ar      2 RES2    0.0000
     49 C27        3.9303   11.2555    7.4327 C.ar      2 RES2    0.0000
     50 H23        3.1734   11.5078    7.9107 H         2 RES2    0.0000
     51 C28        4.1225    9.8783    7.1380 C.ar      2 RES2    0.0000
     52 C29        3.1976    8.8859    7.5422 C.ar      2 RES2    0.0000
     53 H24        2.4196    9.1297    7.9909 H         2 RES2    0.0000
     54 C30        3.4472    7.5663    7.2770 C.ar      2 RES2    0.0000
     55 H25        2.8454    6.9164    7.5619 H         2 RES2    0.0000
     56 C31        4.6094    7.1800    6.5712 C.ar      2 RES2    0.0000
     57 H26        4.7572    6.2793    6.3911 H         2 RES2    0.0000
     58 C32        5.5035    8.0917    6.1569 C.ar      2 RES2    0.0000
     59 H27        6.2626    7.8189    5.6919 H         2 RES2    0.0000
     60 C33        5.2882    9.4891    6.4288 C.ar      2 RES2    0.0000
     61 C34        6.1994   10.4762    6.0292 C.ar      2 RES2    0.0000
     62 H28        6.9645   10.2208    5.5658 H         2 RES2    0.0000
     63 C35        5.9949   11.8386    6.3055 C.ar      2 RES2    0.0000
     64 C36        6.8951   12.8435    5.8352 C.ar      2 RES2    0.0000
     65 H29        7.6708   12.5952    5.3873 H         2 RES2    0.0000
     66 C37        6.6292   14.1422    6.0358 C.ar      2 RES2    0.0000
     67 H30        7.2088   14.7811    5.6870 H         2 RES2    0.0000
     68 C38        5.4871   14.5715    6.7661 C.ar      2 RES2    0.0000
     69 C39        5.3140   16.0629    6.8922 C.ar      2 RES2    0.0000
     70 C40        4.2149   16.7227    6.3518 C.ar      2 RES2    0.0000
     71 H31        3.5403   16.2273    5.9473 H         2 RES2    0.0000
     72 C41        4.1027   18.1001    6.4042 C.ar      2 RES2    0.0000
     73 H32        3.3633   18.5285    6.0358 H         2 RES2    0.0000
     74 C42        5.1024   18.8324    7.0084 C.ar      2 RES2    0.0000
     75 H33        5.0448   19.7606    7.0297 H         2 RES2    0.0000
     76 C43        6.1587   18.2191    7.5652 C.ar      2 RES2    0.0000
     77 H34        6.8006   18.7244    8.0089 H         2 RES2    0.0000
     78 C44        6.3043   16.8498    7.4849 C.ar      2 RES2    0.0000
     79 H35        7.0682   16.4452    7.8288 H         2 RES2    0.0000
     80 C45        3.5546   14.0616    8.3053 C.3       2 RES2    0.0000
     81 H36        2.7251   13.6204    8.0646 H         2 RES2    0.0000
     82 H37        3.4126   15.0191    8.2382 H         2 RES2    0.0000
     83 C46        3.9120   13.7028    9.7692 C.3       2 RES2    0.0000
     84 H38        3.2158   14.0488   10.3505 H         2 RES2    0.0000
     85 H39        3.9140   12.7380    9.8593 H         2 RES2    0.0000
     86 C47        5.2313   14.2282   10.2457 C.3       2 RES2    0.0000
     87 H40        5.9351   13.8364    9.7037 H         2 RES2    0.0000
     88 H41        5.2527   15.1875   10.1049 H         2 RES2    0.0000
     89 C48        5.5213   13.9481   11.6818 C.3       2 RES2    0.0000
     90 H42        4.9811   14.5175   12.2336 H         2 RES2    0.0000
     91 H43        6.4495   14.1165   11.8587 H         2 RES2    0.0000
     92 H44        5.3194   13.0291   11.8750 H         2 RES2    0.0000
@<TRIPOS>BOND
     1    1    2 ar
     2    2    3 ar
     3    3    4 1
     4    5    3 ar
     5    6    5 ar
     6    7    6 1
     7    8    6 ar
     8    9    8 1
     9   10    8 ar
    10   11   10 1
    11   12   10 ar
    12   13   12 1
    13   14    5 ar
    14   15   14 ar
    15   16   15 1
    16   17    2 ar
    17   18   17 ar
    18   19   18 1
    19   20   18 ar
    20   21   20 1
    21   22    1 ar
    22   23   22 1
    23   24   23 ar
    24   25   24 1
    25   26   24 ar
    26   27   26 1
    27   28   26 ar
    28   29   28 1
    29   30   28 ar
    30   31   30 1
    31   32   23 ar
    32   33   32 1
    33   34    1 1
    34   35   34 1
    35   36   34 1
    36   37   34 1
    37   38   37 1
    38   39   37 1
    39   40   37 1
    40   41   40 1
    41   42   40 1
    42   43   40 1
    43   44   43 1
    44   45   43 1
    45   46   43 1
    46   47   48 ar
    47   48   49 ar
    48   49   50 1
    49   51   49 ar
    50   52   51 ar
    51   53   52 1
    52   54   52 ar
    53   55   54 1
    54   56   54 ar
    55   57   56 1
    56   58   56 ar
    57   59   58 1
    58   60   51 ar
    59   61   60 ar
    60   62   61 1
    61   63   48 ar
    62   64   63 ar
    63   65   64 1
    64   66   64 ar
    65   67   66 1
    66   68   47 ar
    67   69   68 1
    68   70   69 ar
    69   71   70 1
    70   72   70 ar
    71   73   72 1
    72   74   72 ar
    73   75   74 1
    74   76   74 ar
    75   77   76 1
    76   78   69 ar
    77   79   78 1
    78   80   47 1
    79   81   80 1
    80   82   80 1
    81   83   80 1
    82   84   83 1
    83   85   83 1
    84   86   83 1
    85   87   86 1
    86   88   86 1
    87   89   86 1
    88   90   89 1
    89   91   89 1
    90   92   89 1
    91   12   14 ar
    92   15   17 ar
    93   20   22 ar
    94   30   32 ar
    95   58   60 ar
    96   61   63 ar
    97   66   68 ar
    98   76   78 ar
@<TRIPOS>SUBSTRUCTURE
     1 RES1 1
     2 RES2 47

@<TRIPOS>CRYSIN
   5.9284   18.3070   16.3750  90.0000  90.2580  90.0000   7 1

