# MOL2 file generated by ConQuest
# Please check atom types

@<TRIPOS>MOLECULE
DMANTR01
    33    32     2
SMALL
NO_CHARGES
****
Generated from CSD

@<TRIPOS>ATOM
      1 C1         0.9634    0.8208    4.0854 C.ar      1 RES1    0.0000
      2 H1         0.1894    0.7980    3.5695 H         1 RES1    0.0000
      3 C2         1.1111   -0.0404    5.1196 C.ar      1 RES1    0.0000
      4 H2         0.4310   -0.6488    5.2985 H         1 RES1    0.0000
      5 C3         2.2764   -0.0473    5.9452 C.ar      1 RES1    0.0000
      6 C4         2.4242   -0.9477    7.0247 C.ar      1 RES1    0.0000
      7 C5         3.3225    0.8989    5.6387 C.ar      1 RES1    0.0000
      8 C6         3.1095    1.7866    4.5330 C.ar      1 RES1    0.0000
      9 H3         3.7693    2.4067    4.3205 H         1 RES1    0.0000
     10 C7         1.9785    1.7505    3.7896 C.ar      1 RES1    0.0000
     11 H4         1.8714    2.3425    3.0805 H         1 RES1    0.0000
     12 C8         1.3231   -1.9384    7.3333 C.3       1 RES1    0.0000
     13 H5         1.1396   -2.5166    6.5291 H         1 RES1    0.0000
     14 H6         1.5543   -2.4423    8.0337 H         1 RES1    0.0000
     15 H7         0.5014   -1.4229    7.5232 H         1 RES1    0.0000
     16 H8         5.9225    1.8689    5.0916 Du        2 SUP2    0.0000
     17 H9         6.4041    1.8848    6.6500 Du        2 SUP2    0.0000
     18 H10        5.3193    2.8670    6.0320 Du        2 SUP2    0.0000
     19 C1B        5.9528   -0.8208    9.3490 C.ar      1 RES1    0.0000
     20 H1B        6.7269   -0.7980    9.8648 H         1 RES1    0.0000
     21 C2B        5.8051    0.0404    8.3148 C.ar      1 RES1    0.0000
     22 H2B        6.4853    0.6488    8.1358 H         1 RES1    0.0000
     23 C3B        4.6398    0.0473    7.4891 C.ar      1 RES1    0.0000
     24 C4B        4.4920    0.9477    6.4097 C.ar      1 RES1    0.0000
     25 C5B        3.5937   -0.8989    7.7957 C.ar      1 RES1    0.0000
     26 C6B        3.8067   -1.7866    8.9013 C.ar      1 RES1    0.0000
     27 H3B        3.1469   -2.4067    9.1139 H         1 RES1    0.0000
     28 C7B        4.9378   -1.7505    9.6448 C.ar      1 RES1    0.0000
     29 H4B        5.0448   -2.3425   10.3538 H         1 RES1    0.0000
     30 C8B        5.5931    1.9384    6.1011 C.3       1 RES1    0.0000
     31 H5B        5.7766    2.5166    6.9053 H         1 RES1    0.0000
     32 H6B        5.3619    2.4423    5.4006 H         1 RES1    0.0000
     33 H7B        6.4148    1.4229    5.9111 H         1 RES1    0.0000
@<TRIPOS>BOND
     1    1    2 1
     2    3    1 ar
     3    4    3 1
     4    5    3 ar
     5    6    5 ar
     6    7    5 ar
     7    8    7 ar
     8    9    8 1
     9   10    1 ar
    10   11   10 1
    11   12    6 1
    12   13   12 1
    13   14   12 1
    14   15   12 1
    15   19   20 1
    16   21   19 ar
    17   22   21 1
    18   23   21 ar
    19   24    7 ar
    20   25    6 ar
    21   26   25 ar
    22   27   26 1
    23   28   19 ar
    24   29   28 1
    25   30   24 1
    26   31   30 1
    27   32   30 1
    28   33   30 1
    29    8   10 ar
    30   23   24 ar
    31   23   25 ar
    32   26   28 ar
@<TRIPOS>SUBSTRUCTURE
     1 RES1 1
     2 SUP2 16

@<TRIPOS>CRYSIN
   7.8229    5.3093   13.4649  90.0000  93.8610  90.0000  14 1

