# MOL2 file generated by ConQuest
# Please check atom types

@<TRIPOS>MOLECULE
DMBPHA
    36    39     1
SMALL
NO_CHARGES
****
Generated from CSD

@<TRIPOS>ATOM
      1 C1         5.4463    1.5815   -0.7531 C.ar      1 RES1    0.0000
      2 C2         2.0910    3.0413    0.0000 C.ar      1 RES1    0.0000
      3 C3         6.1048    1.5304    0.6026 C.3       1 RES1    0.0000
      4 C4         6.0107    0.8345   -1.7890 C.ar      1 RES1    0.0000
      5 C5         5.3770    0.6557   -3.0166 C.ar      1 RES1    0.0000
      6 C6         4.0894    1.1265   -3.1902 C.ar      1 RES1    0.0000
      7 C7         2.0416    2.0924   -2.2396 C.ar      1 RES1    0.0000
      8 C8         1.3770    2.5741   -1.1459 C.ar      1 RES1    0.0000
      9 C9         4.1680    2.2006   -0.9809 C.ar      1 RES1    0.0000
     10 C10        3.4572    1.8491   -2.1514 C.ar      1 RES1    0.0000
     11 C11        3.5050    3.0413    0.0000 C.ar      1 RES1    0.0000
     12 H1         6.8434    0.3431   -1.6298 H         1 RES1    0.0000
     13 H2         5.7039    0.2567   -3.5056 H         1 RES1    0.0000
     14 H3         3.6453    0.8868   -3.9982 H         1 RES1    0.0000
     15 H4         1.6592    1.8430   -3.0672 H         1 RES1    0.0000
     16 H5         0.3624    2.6483   -1.1668 H         1 RES1    0.0000
     17 H6         5.4140    1.5328    1.0779 H         1 RES1    0.0000
     18 H7         6.8388    0.6934    0.6445 H         1 RES1    0.0000
     19 H8         6.8835    2.1873    0.5418 H         1 RES1    0.0000
     20 C8B        1.3770    3.5084    1.1459 C.ar      1 RES1    0.0000
     21 C9B        4.1680    3.8819    0.9809 C.ar      1 RES1    0.0000
     22 C7B        2.0416    3.9901    2.2396 C.ar      1 RES1    0.0000
     23 H5B        0.3624    3.4342    1.1668 H         1 RES1    0.0000
     24 C1B        5.4463    4.5011    0.7531 C.ar      1 RES1    0.0000
     25 C10B       3.4572    4.2334    2.1514 C.ar      1 RES1    0.0000
     26 H4B        1.6592    4.2395    3.0672 H         1 RES1    0.0000
     27 C3B        6.1048    4.5521   -0.6026 C.3       1 RES1    0.0000
     28 C4B        6.0107    5.2480    1.7890 C.ar      1 RES1    0.0000
     29 C6B        4.0894    4.9560    3.1902 C.ar      1 RES1    0.0000
     30 H6B        5.4140    4.5497   -1.0779 H         1 RES1    0.0000
     31 H7B        6.8388    5.3891   -0.6445 H         1 RES1    0.0000
     32 H8B        6.8835    3.8952   -0.5418 H         1 RES1    0.0000
     33 C5B        5.3770    5.4268    3.0166 C.ar      1 RES1    0.0000
     34 H1B        6.8434    5.7394    1.6298 H         1 RES1    0.0000
     35 H3B        3.6453    5.1957    3.9982 H         1 RES1    0.0000
     36 H2B        5.7039    5.8258    3.5056 H         1 RES1    0.0000
@<TRIPOS>BOND
     1    1    3 1
     2    2    8 ar
     3    3   17 1
     4    4    1 ar
     5    5    4 ar
     6    6    5 ar
     7    7    8 ar
     8    8   16 1
     9    9    1 ar
    10   10    6 ar
    11   11    2 ar
    12   12    4 1
    13   13    5 1
    14   14    6 1
    15   15    7 1
    16   18    3 1
    17   19    3 1
    18   20    2 ar
    19   21   11 ar
    20   22   20 ar
    21   23   20 1
    22   24   21 ar
    23   25   21 ar
    24   26   22 1
    25   27   24 1
    26   28   24 ar
    27   29   25 ar
    28   30   27 1
    29   31   27 1
    30   32   27 1
    31   33   28 ar
    32   34   28 1
    33   35   29 1
    34   36   33 1
    35    7   10 ar
    36    9   10 ar
    37    9   11 ar
    38   22   25 ar
    39   29   33 ar
@<TRIPOS>SUBSTRUCTURE
     1 RES1 1

@<TRIPOS>CRYSIN
  15.4200   12.1650    7.2340  90.0000  90.0000  90.0000  60 3

