# MOL2 file generated by ConQuest
# Please check atom types

@<TRIPOS>MOLECULE
DMBZAN01
    36    39     1
SMALL
NO_CHARGES
****
Generated from CSD

@<TRIPOS>ATOM
      1 C1         3.9818    0.2134    5.3803 C.ar      1 RES1    0.0000
      2 C2         4.5675    0.6495    6.5378 C.ar      1 RES1    0.0000
      3 C3         5.9525    0.8662    6.6060 C.ar      1 RES1    0.0000
      4 C4         6.7249    0.4969    5.5750 C.ar      1 RES1    0.0000
      5 C5         6.9388   -0.6620    3.3559 C.ar      1 RES1    0.0000
      6 C6         6.3973   -1.2547    2.3081 C.ar      1 RES1    0.0000
      7 C7         4.5356   -1.6082    0.8195 C.ar      1 RES1    0.0000
      8 C8         2.7185   -1.8091   -0.7888 C.ar      1 RES1    0.0000
      9 C9         1.4703   -1.4940   -1.2475 C.ar      1 RES1    0.0000
     10 C10        0.6355   -0.5869   -0.4952 C.ar      1 RES1    0.0000
     11 C11        1.1308   -0.0342    0.6850 C.ar      1 RES1    0.0000
     12 C12        2.9727    0.1167    2.3803 C.ar      1 RES1    0.0000
     13 C13        4.7295   -0.0033    4.2317 C.ar      1 RES1    0.0000
     14 C14        6.1345   -0.0167    4.3849 C.ar      1 RES1    0.0000
     15 C15        5.0393   -1.1055    2.0007 C.ar      1 RES1    0.0000
     16 C16        3.2248   -1.3072    0.3914 C.ar      1 RES1    0.0000
     17 C17        2.4703   -0.4018    1.1723 C.ar      1 RES1    0.0000
     18 C18        4.1726   -0.3485    2.8636 C.ar      1 RES1    0.0000
     19 C19        2.4737   -0.2034    5.4920 C.3       1 RES1    0.0000
     20 C20        2.2673    1.3406    2.9793 C.3       1 RES1    0.0000
     21 H1         4.0150    0.8095    7.3237 H         1 RES1    0.0000
     22 H2         6.3734    1.2847    7.3820 H         1 RES1    0.0000
     23 H3         7.7060    0.5794    5.6324 H         1 RES1    0.0000
     24 H4         7.9300   -0.6528    3.4656 H         1 RES1    0.0000
     25 H5         6.9768   -1.8091    1.7476 H         1 RES1    0.0000
     26 H6         5.1102   -2.1851    0.2876 H         1 RES1    0.0000
     27 H7         3.2755   -2.4327   -1.3513 H         1 RES1    0.0000
     28 H8         1.1333   -1.9000   -2.1094 H         1 RES1    0.0000
     29 H9        -0.2797   -0.4093   -0.8007 H         1 RES1    0.0000
     30 H10        0.6120    0.6344    1.2010 H         1 RES1    0.0000
     31 H11        2.4101   -0.9412    6.1632 H         1 RES1    0.0000
     32 H12        1.9591    0.5919    5.8133 H         1 RES1    0.0000
     33 H13        2.0455   -0.5219    4.6459 H         1 RES1    0.0000
     34 H14        2.3088    2.0751    2.3022 H         1 RES1    0.0000
     35 H15        1.3116    1.0855    3.1325 H         1 RES1    0.0000
     36 H16        2.6241    1.7091    3.8383 H         1 RES1    0.0000
@<TRIPOS>BOND
     1    1    2 ar
     2    2    3 ar
     3    3    4 ar
     4    4   14 ar
     5    5    6 ar
     6    6   15 ar
     7    7   15 ar
     8    8    9 ar
     9    9   10 ar
    10   10   11 ar
    11   11   17 ar
    12   12   17 ar
    13   13    1 ar
    14   14    5 ar
    15   15   18 ar
    16   16    7 ar
    17   17   16 ar
    18   18   12 ar
    19   19    1 1
    20   20   12 1
    21   21    2 1
    22   22    3 1
    23   23    4 1
    24   24    5 1
    25   25    6 1
    26   26    7 1
    27   27    8 1
    28   28    9 1
    29   29   10 1
    30   30   11 1
    31   31   19 1
    32   32   19 1
    33   33   19 1
    34   34   20 1
    35   35   20 1
    36   36   20 1
    37    8   16 ar
    38   13   14 ar
    39   13   18 ar
@<TRIPOS>SUBSTRUCTURE
     1 RES1 1

@<TRIPOS>CRYSIN
   8.4400    8.3370    9.9470  90.0000  96.4100  90.0000   4 1

