# MOL2 file generated by ConQuest
# Please check atom types

@<TRIPOS>MOLECULE
DMECHR10
    72    78     2
SMALL
NO_CHARGES
****
Generated from CSD

@<TRIPOS>ATOM
      1 C1         6.7264    3.0824    2.2829 C.ar      1 RES1    0.0000
      2 C2         6.3239    3.8339    1.2325 C.ar      1 RES1    0.0000
      3 C3         5.2582    4.7093    1.3799 C.ar      1 RES1    0.0000
      4 C4         4.6694    4.8553    2.6033 C.ar      1 RES1    0.0000
      5 C5         3.5206    5.3492    5.4240 C.ar      1 RES1    0.0000
      6 C6         3.0080    5.3862    6.6795 C.ar      1 RES1    0.0000
      7 C7         2.7152    4.5092    8.9715 C.ar      1 RES1    0.0000
      8 C8         3.0046    3.5785    9.9254 C.ar      1 RES1    0.0000
      9 C9         3.9453    2.5914    9.6596 C.ar      1 RES1    0.0000
     10 C10        4.5670    2.5239    8.4472 C.ar      1 RES1    0.0000
     11 C11        5.8979    2.4586    5.8253 C.ar      1 RES1    0.0000
     12 C12        6.5104    2.3303    4.6332 C.ar      1 RES1    0.0000
     13 C13        6.1137    3.1980    3.5531 C.ar      1 RES1    0.0000
     14 C14        5.0812    4.1536    3.7570 C.ar      1 RES1    0.0000
     15 C15        4.4869    4.3234    5.0832 C.ar      1 RES1    0.0000
     16 C16        4.8878    3.4253    6.1009 C.ar      1 RES1    0.0000
     17 C17        4.2811    3.4585    7.4188 C.ar      1 RES1    0.0000
     18 C18        3.3283    4.4550    7.6979 C.ar      1 RES1    0.0000
     19 C19        3.0490    6.4596    4.5125 C.3       1 RES1    0.0000
     20 C20        7.5455    1.2537    4.4238 C.3       1 RES1    0.0000
     21 H1         7.4575    2.4221    2.2192 H         1 RES1    0.0000
     22 H2         6.7099    3.6940    0.4023 H         1 RES1    0.0000
     23 H3         4.9287    5.1927    0.4861 H         1 RES1    0.0000
     24 H4         3.9234    5.3973    2.6488 H         1 RES1    0.0000
     25 H5         2.3535    6.0664    6.9070 H         1 RES1    0.0000
     26 H6         2.0382    5.1927    9.1462 H         1 RES1    0.0000
     27 H7         2.5983    3.6609   10.8029 H         1 RES1    0.0000
     28 H8         4.1316    1.9355   10.3369 H         1 RES1    0.0000
     29 H9         5.2628    1.8747    8.2360 H         1 RES1    0.0000
     30 H10        6.1723    1.8913    6.5083 H         1 RES1    0.0000
     31 H11        3.8478    6.9512    4.0252 H         1 RES1    0.0000
     32 H12        2.4676    6.1272    3.7830 H         1 RES1    0.0000
     33 H13        2.5521    7.1503    5.1175 H         1 RES1    0.0000
     34 H14        8.4236    1.6479    4.2782 H         1 RES1    0.0000
     35 H15        7.6791    0.6581    5.3341 H         1 RES1    0.0000
     36 H16        7.2918    0.6913    3.7120 H         1 RES1    0.0000
     37 C21       -2.3575    2.6439   12.1556 C.ar      2 RES2    0.0000
     38 C22       -2.2070    2.9928   10.8575 C.ar      2 RES2    0.0000
     39 C23       -1.4223    4.0762   10.5262 C.ar      2 RES2    0.0000
     40 C24       -0.7761    4.7846   11.4911 C.ar      2 RES2    0.0000
     41 C25        0.8074    6.2240   13.7012 C.ar      2 RES2    0.0000
     42 C26        1.2768    6.9191   14.7643 C.ar      2 RES2    0.0000
     43 C27        1.3058    7.5639   17.1547 C.ar      2 RES2    0.0000
     44 C28        0.8471    7.3759   18.4345 C.ar      2 RES2    0.0000
     45 C29       -0.0448    6.3545   18.6930 C.ar      2 RES2    0.0000
     46 C30       -0.4632    5.5040   17.7008 C.ar      2 RES2    0.0000
     47 C31       -1.4131    3.7947   15.5344 C.ar      2 RES2    0.0000
     48 C32       -1.9886    3.0426   14.5677 C.ar      2 RES2    0.0000
     49 C33       -1.7267    3.3606   13.1896 C.ar      2 RES2    0.0000
     50 C34       -0.8621    4.4450   12.8728 C.ar      2 RES2    0.0000
     51 C35       -0.1804    5.1910   13.9309 C.ar      2 RES2    0.0000
     52 C36       -0.5276    4.8764   15.2541 C.ar      2 RES2    0.0000
     53 C37       -0.0313    5.6859   16.3704 C.ar      2 RES2    0.0000
     54 C38        0.8606    6.7217   16.1115 C.ar      2 RES2    0.0000
     55 C39        1.4276    6.5735   12.3613 C.3       2 RES2    0.0000
     56 C40       -2.9252    1.9173   14.9537 C.3       2 RES2    0.0000
     57 H17       -2.9544    1.9466   12.4541 H         2 RES2    0.0000
     58 H18       -2.6900    2.4609   10.1402 H         2 RES2    0.0000
     59 H19       -1.3805    4.3798    9.6123 H         2 RES2    0.0000
     60 H20       -0.1876    5.5853   11.2326 H         2 RES2    0.0000
     61 H21        1.9534    7.6093   14.6315 H         2 RES2    0.0000
     62 H22        1.9149    8.3005   16.9672 H         2 RES2    0.0000
     63 H23        1.1269    8.0296   19.1336 H         2 RES2    0.0000
     64 H24       -0.3823    6.1770   19.6251 H         2 RES2    0.0000
     65 H25       -1.1317    4.7060   17.8683 H         2 RES2    0.0000
     66 H26       -1.6125    3.6000   16.5484 H         2 RES2    0.0000
     67 H27        0.7867    7.1282   11.7059 H         2 RES2    0.0000
     68 H28        1.6464    5.7457   11.7969 H         2 RES2    0.0000
     69 H29        2.2445    6.9844   12.6161 H         2 RES2    0.0000
     70 H30       -2.9111    2.0129   16.0569 H         2 RES2    0.0000
     71 H31       -2.6223    1.0396   14.4002 H         2 RES2    0.0000
     72 H32       -3.9120    2.0129   14.5823 H         2 RES2    0.0000
@<TRIPOS>BOND
     1    1    2 ar
     2    2    3 ar
     3    3    4 ar
     4    4   14 ar
     5    5    6 ar
     6    6   18 ar
     7    7    8 ar
     8    8    9 ar
     9    9   10 ar
    10   10   17 ar
    11   11   12 ar
    12   12   13 ar
    13   13    1 ar
    14   14   13 ar
    15   15    5 ar
    16   16   11 ar
    17   17   16 ar
    18   18    7 ar
    19   19    5 1
    20   20   12 1
    21   21    1 1
    22   22    2 1
    23   23    3 1
    24   24    4 1
    25   25    6 1
    26   26    7 1
    27   27    8 1
    28   28    9 1
    29   29   10 1
    30   30   11 1
    31   31   19 1
    32   32   19 1
    33   33   19 1
    34   34   20 1
    35   35   20 1
    36   36   20 1
    37   37   38 ar
    38   38   39 ar
    39   39   40 ar
    40   40   50 ar
    41   41   42 ar
    42   42   54 ar
    43   43   44 ar
    44   44   45 ar
    45   45   46 ar
    46   46   53 ar
    47   47   48 ar
    48   48   49 ar
    49   49   37 ar
    50   50   49 ar
    51   51   41 ar
    52   52   47 ar
    53   53   52 ar
    54   54   43 ar
    55   55   41 1
    56   56   48 1
    57   57   37 1
    58   58   38 1
    59   59   39 1
    60   60   40 1
    61   61   42 1
    62   62   43 1
    63   63   44 1
    64   64   45 1
    65   65   46 1
    66   66   47 1
    67   67   55 1
    68   68   55 1
    69   69   55 1
    70   70   56 1
    71   71   56 1
    72   72   56 1
    73   14   15 ar
    74   15   16 ar
    75   17   18 ar
    76   50   51 ar
    77   51   52 ar
    78   53   54 ar
@<TRIPOS>SUBSTRUCTURE
     1 RES1 1
     2 RES2 37

@<TRIPOS>CRYSIN
  27.2070    5.5300   18.3360  90.0000  96.8500  90.0000  14 2

