# MOL2 file generated by ConQuest
# Please check atom types

@<TRIPOS>MOLECULE
DMECHR11
    72    78     2
SMALL
NO_CHARGES
****
Generated from CSD

@<TRIPOS>ATOM
      1 C1         5.1028    5.8445    6.5476 C.ar      1 RES1    0.0000
      2 H1         5.7562    6.4266    6.8606 H         1 RES1    0.0000
      3 C2         5.4694    4.8416    5.5855 C.ar      1 RES1    0.0000
      4 C3         6.8478    4.8482    5.1419 C.ar      1 RES1    0.0000
      5 C4         7.8194    5.7735    5.5676 C.ar      1 RES1    0.0000
      6 H2         7.5860    6.4310    6.1832 H         1 RES1    0.0000
      7 C5         9.1160    5.7220    5.0872 C.ar      1 RES1    0.0000
      8 H3         9.7375    6.3523    5.3757 H         1 RES1    0.0000
      9 C6         9.5078    4.7340    4.1749 C.ar      1 RES1    0.0000
     10 H4        10.3776    4.7152    3.8448 H         1 RES1    0.0000
     11 C7         8.5848    3.7866    3.7714 C.ar      1 RES1    0.0000
     12 H5         8.8432    3.1069    3.1918 H         1 RES1    0.0000
     13 C8         7.2480    3.8442    4.2353 C.ar      1 RES1    0.0000
     14 C9         6.2818    2.9056    3.7955 C.ar      1 RES1    0.0000
     15 H6         6.5574    2.2248    3.2244 H         1 RES1    0.0000
     16 C10        4.9675    2.9472    4.1629 C.ar      1 RES1    0.0000
     17 C11        4.5103    3.9800    5.0706 C.ar      1 RES1    0.0000
     18 C12        3.1146    4.1425    5.4909 C.ar      1 RES1    0.0000
     19 C13        2.0362    3.4262    4.9625 C.ar      1 RES1    0.0000
     20 H7         2.2011    2.8208    4.2757 H         1 RES1    0.0000
     21 C14        0.7530    3.5748    5.4074 C.ar      1 RES1    0.0000
     22 H8         0.0730    3.0686    5.0262 H         1 RES1    0.0000
     23 C15        0.4547    4.4779    6.4265 C.ar      1 RES1    0.0000
     24 H9        -0.4179    4.5771    6.7332 H         1 RES1    0.0000
     25 C16        1.4733    5.2141    6.9646 C.ar      1 RES1    0.0000
     26 H10        1.2842    5.8084    7.6545 H         1 RES1    0.0000
     27 C17        2.8101    5.0983    6.5007 C.ar      1 RES1    0.0000
     28 C18        3.8239    5.9703    7.0175 C.ar      1 RES1    0.0000
     29 C19        3.4685    7.0631    8.0398 C.3       1 RES1    0.0000
     30 H11        4.2595    7.5520    8.2750 H         1 RES1    0.0000
     31 H12        3.0971    6.6567    8.8277 H         1 RES1    0.0000
     32 H13        2.8234    7.6629    7.6572 H         1 RES1    0.0000
     33 C20        4.1103    1.8234    3.5633 C.3       1 RES1    0.0000
     34 H14        4.6555    1.2773    2.9913 H         1 RES1    0.0000
     35 H15        3.3925    2.2054    3.0537 H         1 RES1    0.0000
     36 H16        3.7505    1.2845    4.2702 H         1 RES1    0.0000
     37 C21        2.2086   -1.4060   10.5044 C.ar      2 RES2    0.0000
     38 H17        2.4506   -2.0629    9.8926 H         2 RES2    0.0000
     39 C22        0.8192   -1.2053   10.7645 C.ar      2 RES2    0.0000
     40 C23       -0.1484   -2.0607   10.1990 C.ar      2 RES2    0.0000
     41 H18        0.1167   -2.7426    9.6243 H         2 RES2    0.0000
     42 C24       -1.4754   -1.8949   10.4895 C.ar      2 RES2    0.0000
     43 H19       -2.1132   -2.4649   10.1229 H         2 RES2    0.0000
     44 C25       -1.8623   -0.8554   11.3462 C.ar      2 RES2    0.0000
     45 H20       -2.7615   -0.7429   11.5535 H         2 RES2    0.0000
     46 C26       -0.9298    0.0000   11.8835 C.ar      2 RES2    0.0000
     47 H21       -1.2140    0.6936   12.4341 H         2 RES2    0.0000
     48 C27        0.4601   -0.1486   11.6183 C.ar      2 RES2    0.0000
     49 C28        1.4985    0.6586   12.2358 C.ar      2 RES2    0.0000
     50 C29        1.1256    1.7275   13.0825 C.ar      2 RES2    0.0000
     51 H22        0.2219    1.9254   13.1603 H         2 RES2    0.0000
     52 C30        1.9932    2.4748   13.7791 C.ar      2 RES2    0.0000
     53 C31        3.4139    2.1921   13.6702 C.ar      2 RES2    0.0000
     54 C32        4.3474    2.8962   14.4438 C.ar      2 RES2    0.0000
     55 H23        4.0499    3.6058   14.9675 H         2 RES2    0.0000
     56 C33        5.6745    2.5774   14.4581 C.ar      2 RES2    0.0000
     57 H24        6.2846    3.0797   14.9486 H         2 RES2    0.0000
     58 C34        6.0850    1.4725   13.7103 C.ar      2 RES2    0.0000
     59 H25        6.9798    1.2169   13.7374 H         2 RES2    0.0000
     60 C35        5.2031    0.7484   12.9340 C.ar      2 RES2    0.0000
     61 H26        5.5144    0.0194   12.4477 H         2 RES2    0.0000
     62 C36        3.8317    1.0933   12.8614 C.ar      2 RES2    0.0000
     63 C37        2.8692    0.3415   12.0548 C.ar      2 RES2    0.0000
     64 C38        3.1997   -0.6886   11.1035 C.ar      2 RES2    0.0000
     65 C39        4.6292   -1.0218   10.6461 C.3       2 RES2    0.0000
     66 H27        4.6015   -1.7369   10.0064 H         2 RES2    0.0000
     67 H28        5.1539   -1.2906   11.4045 H         2 RES2    0.0000
     68 H29        5.0259   -0.2462   10.2421 H         2 RES2    0.0000
     69 C40        1.5166    3.6175   14.6652 C.3       2 RES2    0.0000
     70 H30        0.5588    3.6729   14.6289 H         2 RES2    0.0000
     71 H31        1.8966    4.4430   14.3552 H         2 RES2    0.0000
     72 H32        1.7927    3.4572   15.5718 H         2 RES2    0.0000
@<TRIPOS>BOND
     1    1    2 1
     2    3    1 ar
     3    4    3 ar
     4    5    4 ar
     5    6    5 1
     6    7    5 ar
     7    8    7 1
     8    9    7 ar
     9   10    9 1
    10   11    9 ar
    11   12   11 1
    12   13    4 ar
    13   14   13 ar
    14   15   14 1
    15   16   14 ar
    16   17    3 ar
    17   18   17 ar
    18   19   18 ar
    19   20   19 1
    20   21   19 ar
    21   22   21 1
    22   23   21 ar
    23   24   23 1
    24   25   23 ar
    25   26   25 1
    26   27   18 ar
    27   28    1 ar
    28   29   28 1
    29   30   29 1
    30   31   29 1
    31   32   29 1
    32   33   16 1
    33   34   33 1
    34   35   33 1
    35   36   33 1
    36   37   38 1
    37   39   37 ar
    38   40   39 ar
    39   41   40 1
    40   42   40 ar
    41   43   42 1
    42   44   42 ar
    43   45   44 1
    44   46   44 ar
    45   47   46 1
    46   48   39 ar
    47   49   48 ar
    48   50   49 ar
    49   51   50 1
    50   52   50 ar
    51   53   52 ar
    52   54   53 ar
    53   55   54 1
    54   56   54 ar
    55   57   56 1
    56   58   56 ar
    57   59   58 1
    58   60   58 ar
    59   61   60 1
    60   62   53 ar
    61   63   49 ar
    62   64   37 ar
    63   65   64 1
    64   66   65 1
    65   67   65 1
    66   68   65 1
    67   69   52 1
    68   70   69 1
    69   71   69 1
    70   72   69 1
    71   11   13 ar
    72   16   17 ar
    73   25   27 ar
    74   27   28 ar
    75   46   48 ar
    76   60   62 ar
    77   62   63 ar
    78   63   64 ar
@<TRIPOS>SUBSTRUCTURE
     1 RES1 1
     2 RES2 37

@<TRIPOS>CRYSIN
  18.3280    5.5440   27.2900  90.0000  96.8450  90.0000  14 1

