# MOL2 file generated by ConQuest
# Please check atom types

@<TRIPOS>MOLECULE
DMHELI
    34    40     1
SMALL
NO_CHARGES
****
Generated from CSD

@<TRIPOS>ATOM
      1 C1        -2.5713   -5.0574    3.8124 C.ar      1 RES1    0.0000
      2 C2        -3.9374   -5.1349    3.9865 C.ar      1 RES1    0.0000
      3 C3        -4.7605   -5.6168    2.9507 C.ar      1 RES1    0.0000
      4 C4        -4.1669   -6.0690    1.7800 C.ar      1 RES1    0.0000
      5 C5        -2.7769   -6.0332    1.6137 C.ar      1 RES1    0.0000
      6 C6        -2.1886   -6.6731    0.4744 C.ar      1 RES1    0.0000
      7 C7        -0.8331   -6.8047    0.3976 C.ar      1 RES1    0.0000
      8 C8         0.0159   -6.2417    1.3824 C.ar      1 RES1    0.0000
      9 C9         1.4140   -6.5180    1.3550 C.ar      1 RES1    0.0000
     10 C10        2.2137   -6.0424    2.3281 C.ar      1 RES1    0.0000
     11 C11        1.7510   -5.1046    3.2690 C.ar      1 RES1    0.0000
     12 C12        2.5933   -4.6068    4.2947 C.ar      1 RES1    0.0000
     13 C13        2.1529   -3.7175    5.2089 C.ar      1 RES1    0.0000
     14 C14        0.8806   -3.1196    5.0513 C.ar      1 RES1    0.0000
     15 C15        0.4360   -2.2005    6.0127 C.ar      1 RES1    0.0000
     16 C16       -0.7600   -1.6092    5.8935 C.ar      1 RES1    0.0000
     17 H1        -2.0269   -4.7226    4.6122 H         1 RES1    0.0000
     18 C17       -1.5101   -1.7481    4.6750 C.ar      1 RES1    0.0000
     19 C18       -2.7132   -1.0376    4.5032 C.ar      1 RES1    0.0000
     20 C19       -3.3867   -1.0621    3.3247 C.ar      1 RES1    0.0000
     21 C20       -2.8312   -1.7089    2.1744 C.ar      1 RES1    0.0000
     22 C21       -3.4139   -1.5848    0.8915 C.ar      1 RES1    0.0000
     23 C22       -2.7605   -2.1086   -0.2062 C.ar      1 RES1    0.0000
     24 C23       -1.5134   -2.7136   -0.0917 C.ar      1 RES1    0.0000
     25 C24       -0.9494   -2.8650    1.1456 C.ar      1 RES1    0.0000
     26 C25       -1.6159   -2.4241    2.3171 C.ar      1 RES1    0.0000
     27 C26       -1.0339   -2.5724    3.6407 C.ar      1 RES1    0.0000
     28 C27        0.0603   -3.4551    3.9410 C.ar      1 RES1    0.0000
     29 C28        0.3951   -4.6497    3.2094 C.ar      1 RES1    0.0000
     30 C29       -0.5205   -5.4221    2.4026 C.ar      1 RES1    0.0000
     31 C30       -1.9487   -5.4625    2.6104 C.ar      1 RES1    0.0000
     32 C31       -6.2677   -5.6887    3.1569 C.3       1 RES1    0.0000
     33 C32       -4.7198   -0.8397    0.6838 C.3       1 RES1    0.0000
     34 H2        -0.0361   -3.2982    1.2507 H         1 RES1    0.0000
@<TRIPOS>BOND
     1    1    2 ar
     2    2    3 ar
     3    3    4 ar
     4    4    5 ar
     5    5    6 ar
     6    6    7 ar
     7    7    8 ar
     8    8    9 ar
     9    9   10 ar
    10   10   11 ar
    11   11   12 ar
    12   12   13 ar
    13   13   14 ar
    14   14   15 ar
    15   15   16 ar
    16   16   18 ar
    17   17    1 1
    18   18   19 ar
    19   19   20 ar
    20   20   21 ar
    21   21   22 ar
    22   22   23 ar
    23   23   24 ar
    24   24   25 ar
    25   25   26 ar
    26   26   21 ar
    27   27   18 ar
    28   28   14 ar
    29   29   11 ar
    30   30    8 ar
    31   31    1 ar
    32   32    3 1
    33   33   22 1
    34   34   25 1
    35    5   31 ar
    36   26   27 ar
    37   27   28 ar
    38   28   29 ar
    39   29   30 ar
    40   30   31 ar
@<TRIPOS>SUBSTRUCTURE
     1 RES1 1

@<TRIPOS>CRYSIN
  12.4190   11.6760    8.6510 113.7300  75.5000 108.6500   2 1

