# MOL2 file generated by ConQuest
# Please check atom types

@<TRIPOS>MOLECULE
DMHXIC
    48    53     1
SMALL
NO_CHARGES
****
Generated from CSD

@<TRIPOS>ATOM
      1 C1         0.4220    3.2903    2.8169 C.ar      1 RES1    0.0000
      2 C2         0.6930    1.9547    2.6171 C.ar      1 RES1    0.0000
      3 C3        -1.0966    5.9322    3.5424 C.ar      1 RES1    0.0000
      4 C4        -1.0966    7.3528    3.5424 C.ar      1 RES1    0.0000
      5 C5        -1.0731    5.2670    2.2771 C.ar      1 RES1    0.0000
      6 C6        -1.5636    5.9668    1.1463 C.ar      1 RES1    0.0000
      7 C7        -0.6036    3.9093    2.0631 C.ar      1 RES1    0.0000
      8 C8        -1.1112    3.2106    0.9352 C.ar      1 RES1    0.0000
      9 C9         1.3650    4.0426    3.7238 C.3       1 RES1    0.0000
     10 C10        0.0288    1.2108    1.6550 C.ar      1 RES1    0.0000
     11 C11       -0.8272    1.8277    0.7907 C.ar      1 RES1    0.0000
     12 C12       -1.8089    3.9555   -0.0723 C.ar      1 RES1    0.0000
     13 C13       -1.9234    5.2586   -0.0099 C.ar      1 RES1    0.0000
     14 C14       -1.6866    7.3906    1.2483 C.ar      1 RES1    0.0000
     15 C15       -1.3989    8.0400    2.3097 C.ar      1 RES1    0.0000
     16 H1         1.4425    1.4794    3.2307 H         1 RES1    0.0000
     17 H2         1.0815    3.7666    4.7610 H         1 RES1    0.0000
     18 H3         1.3999    4.9837    3.5708 H         1 RES1    0.0000
     19 H4         2.3180    3.7561    3.5991 H         1 RES1    0.0000
     20 H5         0.1851    0.1364    1.5870 H         1 RES1    0.0000
     21 H6        -1.2858    1.2590   -0.0142 H         1 RES1    0.0000
     22 H7        -2.2495    3.4204   -0.9069 H         1 RES1    0.0000
     23 H8        -2.3003    5.8021   -0.8643 H         1 RES1    0.0000
     24 H9        -2.0349    7.9424    0.3826 H         1 RES1    0.0000
     25 H10       -1.3907    9.1175    2.2671 H         1 RES1    0.0000
     26 C5B       -1.1200    5.2670    4.8078 C.ar      1 RES1    0.0000
     27 C15B      -0.7942    8.0400    4.7752 C.ar      1 RES1    0.0000
     28 C6B       -0.6295    5.9668    5.9385 C.ar      1 RES1    0.0000
     29 C7B       -1.5896    3.9093    5.0217 C.ar      1 RES1    0.0000
     30 C14B      -0.5065    7.3906    5.8365 C.ar      1 RES1    0.0000
     31 H10B      -0.8024    9.1175    4.8177 H         1 RES1    0.0000
     32 C13B      -0.2697    5.2586    7.0947 C.ar      1 RES1    0.0000
     33 C1B       -2.6151    3.2903    4.2679 C.ar      1 RES1    0.0000
     34 C8B       -1.0819    3.2106    6.1496 C.ar      1 RES1    0.0000
     35 H9B       -0.1582    7.9424    6.7022 H         1 RES1    0.0000
     36 C12B      -0.3842    3.9555    7.1571 C.ar      1 RES1    0.0000
     37 H8B        0.1072    5.8021    7.9492 H         1 RES1    0.0000
     38 C2B       -2.8861    1.9547    4.4677 C.ar      1 RES1    0.0000
     39 C9B       -3.5581    4.0426    3.3610 C.3       1 RES1    0.0000
     40 C11B      -1.3659    1.8277    6.2942 C.ar      1 RES1    0.0000
     41 H7B        0.0564    3.4204    7.9917 H         1 RES1    0.0000
     42 C10B      -2.2219    1.2108    5.4298 C.ar      1 RES1    0.0000
     43 H1B       -3.6356    1.4794    3.8541 H         1 RES1    0.0000
     44 H2B       -3.2746    3.7666    2.3238 H         1 RES1    0.0000
     45 H3B       -3.5930    4.9837    3.5141 H         1 RES1    0.0000
     46 H4B       -4.5111    3.7561    3.4857 H         1 RES1    0.0000
     47 H6B       -0.9073    1.2590    7.0990 H         1 RES1    0.0000
     48 H5B       -2.3783    0.1364    5.4978 H         1 RES1    0.0000
@<TRIPOS>BOND
     1    1    2 ar
     2    2   10 ar
     3    3    4 ar
     4    4   15 ar
     5    5    3 ar
     6    6    5 ar
     7    7    1 ar
     8    8    7 ar
     9    9    1 1
    10   10   11 ar
    11   11    8 ar
    12   12    8 ar
    13   13    6 ar
    14   14    6 ar
    15   15   14 ar
    16   16    2 1
    17   17    9 1
    18   18    9 1
    19   19    9 1
    20   20   10 1
    21   21   11 1
    22   22   12 1
    23   23   13 1
    24   24   14 1
    25   25   15 1
    26   26    3 ar
    27   27    4 ar
    28   28   26 ar
    29   29   26 ar
    30   30   27 ar
    31   31   27 1
    32   32   28 ar
    33   33   29 ar
    34   34   29 ar
    35   35   30 1
    36   36   32 ar
    37   37   32 1
    38   38   33 ar
    39   39   33 1
    40   40   34 ar
    41   41   36 1
    42   42   38 ar
    43   43   38 1
    44   44   39 1
    45   45   39 1
    46   46   39 1
    47   47   40 1
    48   48   42 1
    49    5    7 ar
    50   12   13 ar
    51   28   30 ar
    52   34   36 ar
    53   40   42 ar
@<TRIPOS>SUBSTRUCTURE
     1 RES1 1

@<TRIPOS>CRYSIN
  12.5260   10.4920   14.8330  90.0000 107.2000  90.0000  15 1

