# MOL2 file generated by ConQuest
# Please check atom types

@<TRIPOS>MOLECULE
DMNAPH03
    24    25     1
SMALL
NO_CHARGES
****
Generated from CSD

@<TRIPOS>ATOM
      1 C1        -1.8021   -0.4420    6.1551 C.ar      1 RES1    0.0000
      2 C2        -2.8496    0.4109    6.5147 C.ar      1 RES1    0.0000
      3 C3        -3.1480    1.5971    5.8181 C.ar      1 RES1    0.0000
      4 C4        -2.3415    1.9693    4.7685 C.ar      1 RES1    0.0000
      5 C5        -1.2393    1.1593    4.3742 C.ar      1 RES1    0.0000
      6 C6        -0.9491   -0.0733    5.0602 C.ar      1 RES1    0.0000
      7 C7         0.1786   -0.8411    4.5847 C.ar      1 RES1    0.0000
      8 C8         0.9277   -0.3555    3.5284 C.ar      1 RES1    0.0000
      9 C9         0.6380    0.8473    2.8757 C.ar      1 RES1    0.0000
     10 C10       -0.4374    1.6020    3.2860 C.ar      1 RES1    0.0000
     11 C11       -1.6711   -1.6967    6.9889 C.3       1 RES1    0.0000
     12 C12        0.6133   -2.1726    5.1627 C.3       1 RES1    0.0000
     13 H1        -3.4809    0.1038    7.3578 H         1 RES1    0.0000
     14 H2        -4.0027    2.2065    6.1124 H         1 RES1    0.0000
     15 H3        -2.5498    2.8789    4.2130 H         1 RES1    0.0000
     16 H4        -0.7295    2.5206    2.7625 H         1 RES1    0.0000
     17 H5         1.2436    1.1828    2.0432 H         1 RES1    0.0000
     18 H6         1.7839   -0.9407    3.1981 H         1 RES1    0.0000
     19 H7        -0.7021   -1.7493    7.5017 H         1 RES1    0.0000
     20 H8        -1.8038   -2.6084    6.4121 H         1 RES1    0.0000
     21 H9        -2.4599   -1.7154    7.7228 H         1 RES1    0.0000
     22 H10        0.9414   -2.0820    6.1963 H         1 RES1    0.0000
     23 H11       -0.1531   -2.9169    5.0961 H         1 RES1    0.0000
     24 H12        1.4430   -2.5731    4.5940 H         1 RES1    0.0000
@<TRIPOS>BOND
     1    1    2 ar
     2    2    3 ar
     3    3    4 ar
     4    4    5 ar
     5    5    6 ar
     6    6    1 ar
     7    7    6 ar
     8    8    7 ar
     9    9    8 ar
    10   10    5 ar
    11   11    1 1
    12   12    7 1
    13   13    2 1
    14   14    3 1
    15   15    4 1
    16   16   10 1
    17   17    9 1
    18   18    8 1
    19   19   11 1
    20   20   11 1
    21   21   11 1
    22   22   12 1
    23   23   12 1
    24   24   12 1
    25    9   10 ar
@<TRIPOS>SUBSTRUCTURE
     1 RES1 1

@<TRIPOS>CRYSIN
   9.6780    6.9170   16.1410  90.0000 124.3900  90.0000  14 1

