# MOL2 file generated by ConQuest
# Please check atom types

@<TRIPOS>MOLECULE
DMNAPH
    24    25     1
SMALL
NO_CHARGES
****
Generated from CSD

@<TRIPOS>ATOM
      1 C1        -1.7373   -0.4446    6.1020 C.ar      1 RES1    0.0000
      2 C2        -1.1567    1.1520    4.3404 C.ar      1 RES1    0.0000
      3 C3        -1.5925   -1.7009    6.9311 C.3       1 RES1    0.0000
      4 C4         0.6806   -2.1713    5.1410 C.3       1 RES1    0.0000
      5 C5        -2.7639    0.3819    6.4392 C.ar      1 RES1    0.0000
      6 C6        -3.0403    1.5635    5.7664 C.ar      1 RES1    0.0000
      7 C7        -2.2628    1.9428    4.7353 C.ar      1 RES1    0.0000
      8 C8        -0.3580    1.5685    3.2495 C.ar      1 RES1    0.0000
      9 C9         0.6881    0.8259    2.8588 C.ar      1 RES1    0.0000
     10 C10        0.9827   -0.3701    3.5114 C.ar      1 RES1    0.0000
     11 C11        0.2412   -0.8436    4.5550 C.ar      1 RES1    0.0000
     12 C12       -0.8755   -0.0797    5.0121 C.ar      1 RES1    0.0000
     13 H1        -0.5692   -1.8512    7.2510 H         1 RES1    0.0000
     14 H2        -1.6698   -2.5664    6.3862 H         1 RES1    0.0000
     15 H3        -2.1862   -1.7039    7.5304 H         1 RES1    0.0000
     16 H4         0.9890   -2.0826    6.0935 H         1 RES1    0.0000
     17 H5        -0.0971   -2.8749    5.1356 H         1 RES1    0.0000
     18 H6         1.2781   -2.4472    4.5768 H         1 RES1    0.0000
     19 H7        -3.3796    0.1262    7.1180 H         1 RES1    0.0000
     20 H8        -3.8036    2.1457    6.0403 H         1 RES1    0.0000
     21 H9        -2.3575    2.7487    4.2841 H         1 RES1    0.0000
     22 H10       -0.6916    2.4191    2.9403 H         1 RES1    0.0000
     23 H11        1.1325    1.1219    2.1420 H         1 RES1    0.0000
     24 H12        1.8024   -0.9116    3.2197 H         1 RES1    0.0000
@<TRIPOS>BOND
     1    1    3 1
     2    2    7 ar
     3    3   13 1
     4    4   11 1
     5    5    1 ar
     6    6    5 ar
     7    7    6 ar
     8    8    2 ar
     9    9    8 ar
    10   10    9 ar
    11   11   10 ar
    12   12    1 ar
    13   14    3 1
    14   15    3 1
    15   16    4 1
    16   17    4 1
    17   18    4 1
    18   19    5 1
    19   20    6 1
    20   21    7 1
    21   22    8 1
    22   23    9 1
    23   24   10 1
    24    2   12 ar
    25   11   12 ar
@<TRIPOS>SUBSTRUCTURE
     1 RES1 1

@<TRIPOS>CRYSIN
   9.8350    7.0120   16.1150  90.0000 124.3500  90.0000  14 1

