# MOL2 file generated by ConQuest
# Please check atom types

@<TRIPOS>MOLECULE
DMNAPH05
    24    25     1
SMALL
NO_CHARGES
****
Generated from CSD

@<TRIPOS>ATOM
      1 C1        -1.7716   -0.4375    6.1477 C.ar      1 RES1    0.0000
      2 C2        -2.8223    0.4069    6.4852 C.ar      1 RES1    0.0000
      3 C3        -3.1044    1.5774    5.7943 C.ar      1 RES1    0.0000
      4 C4        -2.3022    1.9669    4.7525 C.ar      1 RES1    0.0000
      5 C5        -1.2090    1.1517    4.3871 C.ar      1 RES1    0.0000
      6 C6        -0.9147   -0.0800    5.0473 C.ar      1 RES1    0.0000
      7 C7         0.2068   -0.8534    4.5791 C.ar      1 RES1    0.0000
      8 C8         0.9462   -0.3721    3.5347 C.ar      1 RES1    0.0000
      9 C9         0.6670    0.8311    2.8625 C.ar      1 RES1    0.0000
     10 C10       -0.4062    1.5837    3.2586 C.ar      1 RES1    0.0000
     11 C11       -1.6502   -1.6970    7.0107 C.3       1 RES1    0.0000
     12 C12        0.6648   -2.1609    5.1513 C.3       1 RES1    0.0000
     13 H1        -3.4722    0.0696    7.3229 H         1 RES1    0.0000
     14 H2        -3.9812    2.2047    6.1091 H         1 RES1    0.0000
     15 H3        -2.5182    2.8724    4.2550 H         1 RES1    0.0000
     16 H4        -0.6746    2.5316    2.7878 H         1 RES1    0.0000
     17 H5         1.2747    1.2032    2.0808 H         1 RES1    0.0000
     18 H6         1.8166   -0.9737    3.1466 H         1 RES1    0.0000
     19 H7        -0.6875   -1.7596    7.5096 H         1 RES1    0.0000
     20 H8        -1.7497   -2.5733    6.3758 H         1 RES1    0.0000
     21 H9        -2.3880   -1.7387    7.7097 H         1 RES1    0.0000
     22 H10        0.9678   -2.0448    6.1891 H         1 RES1    0.0000
     23 H11       -0.0833   -2.9628    5.0820 H         1 RES1    0.0000
     24 H12        1.4680   -2.5803    4.6285 H         1 RES1    0.0000
@<TRIPOS>BOND
     1    1    2 ar
     2    2    3 ar
     3    3    4 ar
     4    4    5 ar
     5    5    6 ar
     6    6    1 ar
     7    7    6 ar
     8    8    7 ar
     9    9    8 ar
    10   10    5 ar
    11   11    1 1
    12   12    7 1
    13   13    2 1
    14   14    3 1
    15   15    4 1
    16   16   10 1
    17   17    9 1
    18   18    8 1
    19   19   11 1
    20   20   11 1
    21   21   11 1
    22   22   12 1
    23   23   12 1
    24   24   12 1
    25    9   10 ar
@<TRIPOS>SUBSTRUCTURE
     1 RES1 1

@<TRIPOS>CRYSIN
   9.7730    6.9550   16.1580  90.0000 124.3600  90.0000  14 1

