# MOL2 file generated by ConQuest
# Please check atom types

@<TRIPOS>MOLECULE
DMNPTL02
    24    25     1
SMALL
NO_CHARGES
****
Generated from CSD

@<TRIPOS>ATOM
      1 C1         3.0953    4.3772   11.1370 C.ar      1 RES1    0.0000
      2 C2         3.4275    3.8815   12.3701 C.ar      1 RES1    0.0000
      3 C3         4.0246    2.5969   12.4451 C.ar      1 RES1    0.0000
      4 C4         4.2853    1.8664   11.3233 C.ar      1 RES1    0.0000
      5 C5         3.9646    2.3717   10.0361 C.ar      1 RES1    0.0000
      6 C6         3.1899    4.6735   13.6282 C.3       1 RES1    0.0000
      7 H1         2.6802    5.2516   11.0677 H         1 RES1    0.0000
      8 H2         4.2546    2.2645   13.3720 H         1 RES1    0.0000
      9 H3         4.7086    0.9756   11.3875 H         1 RES1    0.0000
     10 H4         2.7973    5.5046   13.4719 H         1 RES1    0.0000
     11 H5         3.9544    4.7457   14.1614 H         1 RES1    0.0000
     12 H6         2.5996    4.1977   14.2793 H         1 RES1    0.0000
     13 C1D        4.2276    1.6453    8.8480 C.ar      1 RES1    0.0000
     14 C2D        3.8954    2.1410    7.6149 C.ar      1 RES1    0.0000
     15 C3D        3.2983    3.4256    7.5399 C.ar      1 RES1    0.0000
     16 C4D        3.0376    4.1561    8.6617 C.ar      1 RES1    0.0000
     17 C5D        3.3583    3.6508    9.9489 C.ar      1 RES1    0.0000
     18 C6D        4.1330    1.3490    6.3568 C.3       1 RES1    0.0000
     19 H1D        4.6427    0.7709    8.9173 H         1 RES1    0.0000
     20 H2D        3.0683    3.7580    6.6130 H         1 RES1    0.0000
     21 H3D        2.6143    5.0469    8.5975 H         1 RES1    0.0000
     22 H4D        4.5256    0.5179    6.5131 H         1 RES1    0.0000
     23 H5D        3.3685    1.2768    5.8236 H         1 RES1    0.0000
     24 H6D        4.7233    1.8248    5.7057 H         1 RES1    0.0000
@<TRIPOS>BOND
     1    1    2 ar
     2    2    3 ar
     3    3    4 ar
     4    4    5 ar
     5    5   13 ar
     6    6    2 1
     7    7    1 1
     8    8    3 1
     9    9    4 1
    10   10    6 1
    11   11    6 1
    12   12    6 1
    13   13   14 ar
    14   14   15 ar
    15   15   16 ar
    16   16   17 ar
    17   17    1 ar
    18   18   14 1
    19   19   13 1
    20   20   15 1
    21   21   16 1
    22   22   18 1
    23   23   18 1
    24   24   18 1
    25    5   17 ar
@<TRIPOS>SUBSTRUCTURE
     1 RES1 1

@<TRIPOS>CRYSIN
   7.3229    6.0225   19.9850  90.0000  90.0000  90.0000  61 1

