# MOL2 file generated by ConQuest
# Please check atom types

@<TRIPOS>MOLECULE
DMNPTL
    12    13     1
SMALL
NO_CHARGES
****
Generated from CSD

@<TRIPOS>ATOM
      1 C1         0.4675   -1.3840    1.1514 C.ar      1 RES1    0.0000
      2 C2         0.1056   -0.8255    2.4038 C.ar      1 RES1    0.0000
      3 C3        -0.4449    0.4735    2.4442 C.ar      1 RES1    0.0000
      4 C4        -0.6334    1.2079    1.2726 C.ar      1 RES1    0.0000
      5 C5         0.2714   -0.6495    0.2828 C.ar      1 RES1    0.0000
      6 C6         0.3167   -1.6268    3.5350 C.3       1 RES1    0.0000
      7 C5D       -0.2714    0.6495   -0.2828 C.ar      1 RES1    0.0000
      8 C4D        0.6334   -1.2079   -1.2726 C.ar      1 RES1    0.0000
      9 C1D       -0.4675    1.3840   -1.1514 C.ar      1 RES1    0.0000
     10 C3D        0.4449   -0.4735   -2.4442 C.ar      1 RES1    0.0000
     11 C2D       -0.1056    0.8255   -2.4038 C.ar      1 RES1    0.0000
     12 C6D       -0.3167    1.6268   -3.5350 C.3       1 RES1    0.0000
@<TRIPOS>BOND
     1    1    2 ar
     2    2    3 ar
     3    3    4 ar
     4    4    7 ar
     5    5    1 ar
     6    6    2 1
     7    7    5 ar
     8    8    5 ar
     9    9    7 ar
    10   10    8 ar
    11   11    9 ar
    12   12   11 1
    13   10   11 ar
@<TRIPOS>SUBSTRUCTURE
     1 RES1 1

@<TRIPOS>CRYSIN
   7.5400    6.0700   20.2000  90.0000  90.0000  90.0000  61 1

