# MOL2 file generated by ConQuest
# Please check atom types

@<TRIPOS>MOLECULE
DNAPAN
    34    40     1
SMALL
NO_CHARGES
****
Generated from CSD

@<TRIPOS>ATOM
      1 C1         0.4011    0.8850    4.0165 C.ar      1 RES1    0.0000
      2 C2         4.7607   -4.9185    7.2729 C.ar      1 RES1    0.0000
      3 C3         5.7998   -5.7990    7.4527 C.ar      1 RES1    0.0000
      4 C4         5.7934   -6.7050    8.5272 C.ar      1 RES1    0.0000
      5 C5         4.6986   -6.7665    9.3358 C.ar      1 RES1    0.0000
      6 C6         2.4082   -6.0840    9.9302 C.ar      1 RES1    0.0000
      7 C7         1.3149   -5.3460    9.6846 C.ar      1 RES1    0.0000
      8 C8         0.1783   -3.4560    8.5663 C.ar      1 RES1    0.0000
      9 C9         0.1796   -2.3880    7.7405 C.ar      1 RES1    0.0000
     10 C10        1.4142   -0.7860    6.3563 C.ar      1 RES1    0.0000
     11 C11        1.5580    1.6125    4.3856 C.ar      1 RES1    0.0000
     12 C12       -0.6210    1.4970    3.3095 C.ar      1 RES1    0.0000
     13 C13        1.6823    2.9535    3.9289 C.ar      1 RES1    0.0000
     14 C14        2.6723    1.0155    5.1035 C.ar      1 RES1    0.0000
     15 C15        3.8984    1.6860    5.0754 C.ar      1 RES1    0.0000
     16 C16        2.5989   -0.2325    5.8511 C.ar      1 RES1    0.0000
     17 C17        3.8145   -0.8760    6.2437 C.ar      1 RES1    0.0000
     18 C18        2.5970   -2.7210    7.3057 C.ar      1 RES1    0.0000
     19 C19        1.3907   -1.9650    7.0961 C.ar      1 RES1    0.0000
     20 C20        2.5367   -3.9705    8.0518 C.ar      1 RES1    0.0000
     21 C21        1.3562   -4.2555    8.7509 C.ar      1 RES1    0.0000
     22 C22        3.6450   -4.8990    8.1550 C.ar      1 RES1    0.0000
     23 C23       -0.5278    2.8560    2.9608 C.ar      1 RES1    0.0000
     24 C24        3.5941   -5.9040    9.1622 C.ar      1 RES1    0.0000
     25 C25        0.6069    3.5535    3.2564 C.ar      1 RES1    0.0000
     26 C26        2.9095    3.6450    4.0775 C.ar      1 RES1    0.0000
     27 C27        3.9961    3.0150    4.5670 C.ar      1 RES1    0.0000
     28 C28        5.0938    1.0485    5.5477 C.ar      1 RES1    0.0000
     29 C29        5.0639   -0.2070    6.0419 C.ar      1 RES1    0.0000
     30 C30        3.7866   -2.1030    6.9194 C.ar      1 RES1    0.0000
     31 H1         0.2735   -0.2430    4.1479 H         1 RES1    0.0000
     32 H2         4.7134   -4.3635    6.2859 H         1 RES1    0.0000
     33 H3         0.4565   -0.1665    6.3157 H         1 RES1    0.0000
     34 H4         4.6829   -2.4210    7.2963 H         1 RES1    0.0000
@<TRIPOS>BOND
     1    1   11 ar
     2    2    3 ar
     3    3    4 ar
     4    4    5 ar
     5    5   24 ar
     6    6    7 ar
     7    7   21 ar
     8    8    9 ar
     9    9   19 ar
    10   10   16 ar
    11   11   13 ar
    12   12    1 ar
    13   13   25 ar
    14   14   11 ar
    15   15   14 ar
    16   16   14 ar
    17   17   16 ar
    18   18   19 ar
    19   19   10 ar
    20   20   18 ar
    21   21    8 ar
    22   22    2 ar
    23   23   12 ar
    24   24    6 ar
    25   25   23 ar
    26   26   13 ar
    27   27   15 ar
    28   28   15 ar
    29   29   17 ar
    30   30   17 ar
    31   31    1 1
    32   32    2 1
    33   33   10 1
    34   34   30 1
    35   18   30 ar
    36   20   21 ar
    37   20   22 ar
    38   22   24 ar
    39   26   27 ar
    40   28   29 ar
@<TRIPOS>SUBSTRUCTURE
     1 RES1 1

@<TRIPOS>CRYSIN
   8.1670   15.0000   15.6410  90.0000  90.4300  90.0000  14 1

