# MOL2 file generated by ConQuest
# Please check atom types

@<TRIPOS>MOLECULE
DOFZOP
    72    80     1
SMALL
NO_CHARGES
****
Generated from CSD

@<TRIPOS>ATOM
      1 C1         3.7787    2.2089    3.9053 C.ar      1 RES1    0.0000
      2 C2         2.5405    1.9993    4.5210 C.ar      1 RES1    0.0000
      3 H1         1.9752    1.3129    4.1842 H         1 RES1    0.0000
      4 C3         2.1023    2.7530    5.6057 C.ar      1 RES1    0.0000
      5 H2         1.2125    2.6643    5.9271 H         1 RES1    0.0000
      6 C4         2.9728    3.6212    6.2025 C.ar      1 RES1    0.0000
      7 H3         2.7487    4.0157    7.0367 H         1 RES1    0.0000
      8 C5         4.1961    3.9358    5.5892 C.ar      1 RES1    0.0000
      9 C6         5.2000    4.7360    6.2651 C.ar      1 RES1    0.0000
     10 C7         5.0882    5.1290    7.6074 C.ar      1 RES1    0.0000
     11 H4         4.2965    4.9146    8.0860 H         1 RES1    0.0000
     12 C8         6.1029    5.8215    8.2574 C.ar      1 RES1    0.0000
     13 H5         6.0087    6.0649    9.1708 H         1 RES1    0.0000
     14 C9         7.2610    6.1575    7.5555 C.ar      1 RES1    0.0000
     15 H6         7.9630    6.6238    7.9950 H         1 RES1    0.0000
     16 C10        7.3898    5.8168    6.2308 C.ar      1 RES1    0.0000
     17 H7         8.1734    6.0708    5.7582 H         1 RES1    0.0000
     18 C11        6.3831    5.1003    5.5620 C.ar      1 RES1    0.0000
     19 C12        6.4208    4.8623    4.1606 C.ar      1 RES1    0.0000
     20 H8         7.1373    5.2369    3.6619 H         1 RES1    0.0000
     21 C13        5.4810    4.1242    3.4882 C.ar      1 RES1    0.0000
     22 C14        4.4908    3.3914    4.2929 C.ar      1 RES1    0.0000
     23 C15        4.4112    0.9587    3.2448 C.3       1 RES1    0.0000
     24 C16        3.5173    0.2794    2.1908 C.3       1 RES1    0.0000
     25 H9         2.6222    0.1065    2.5784 H         1 RES1    0.0000
     26 H10        3.4039    0.8842    1.4156 H         1 RES1    0.0000
     27 C17        4.5708   -0.0479    4.4170 C.3       1 RES1    0.0000
     28 H11        5.1486    0.3519    5.1130 H         1 RES1    0.0000
     29 H12        3.6836   -0.2188    4.8199 H         1 RES1    0.0000
     30 C18        5.8174    1.1612    2.6682 C.3       1 RES1    0.0000
     31 H13        6.4025    1.5584    3.3618 H         1 RES1    0.0000
     32 H14        5.7718    1.7949    1.9084 H         1 RES1    0.0000
     33 C19        5.1805   -1.3738    3.9621 C.3       1 RES1    0.0000
     34 H15        5.2610   -1.9931    4.7431 H         1 RES1    0.0000
     35 C20        4.1324   -1.0432    1.7228 C.3       1 RES1    0.0000
     36 H16        3.5433   -1.4578    1.0280 H         1 RES1    0.0000
     37 C21        6.4224   -0.1635    2.1884 C.3       1 RES1    0.0000
     38 H17        7.3249    0.0118    1.7949 H         1 RES1    0.0000
     39 C22        4.2617   -1.9919    2.9080 C.3       1 RES1    0.0000
     40 H18        4.6340   -2.8565    2.6055 H         1 RES1    0.0000
     41 H19        3.3684   -2.1616    3.3003 H         1 RES1    0.0000
     42 C23        6.5642   -1.1308    3.3535 C.3       1 RES1    0.0000
     43 H20        7.1715   -0.7511    4.0365 H         1 RES1    0.0000
     44 H21        6.9490   -1.9871    3.0368 H         1 RES1    0.0000
     45 C24        5.5186   -0.7712    1.1190 C.3       1 RES1    0.0000
     46 H22        5.9120   -1.6175    0.7870 H         1 RES1    0.0000
     47 H23        5.4358   -0.1479    0.3557 H         1 RES1    0.0000
     48 C25        5.2670    4.4906    1.9863 C.3       1 RES1    0.0000
     49 C26        4.0595    3.8078    1.3282 C.3       1 RES1    0.0000
     50 H24        3.2466    3.9979    1.8599 H         1 RES1    0.0000
     51 H25        4.2000    2.8269    1.3258 H         1 RES1    0.0000
     52 C27        6.5252    4.2927    1.1155 C.3       1 RES1    0.0000
     53 H26        7.2801    4.7993    1.5090 H         1 RES1    0.0000
     54 H27        6.7705    3.3326    1.1060 H         1 RES1    0.0000
     55 C28        4.9382    6.0217    1.9521 C.3       1 RES1    0.0000
     56 H28        4.1232    6.1921    2.4874 H         1 RES1    0.0000
     57 H29        5.6842    6.5233    2.3657 H         1 RES1    0.0000
     58 C29        3.8472    4.2948   -0.1182 C.3       1 RES1    0.0000
     59 H30        3.0756    3.8028   -0.5211 H         1 RES1    0.0000
     60 C30        6.2863    4.7721   -0.3226 C.3       1 RES1    0.0000
     61 H31        7.1082    4.6100   -0.8673 H         1 RES1    0.0000
     62 C31        4.7177    6.5306    0.5223 C.3       1 RES1    0.0000
     63 H32        4.5240    7.5109    0.5424 H         1 RES1    0.0000
     64 C32        5.1058    4.0172   -0.9406 C.3       1 RES1    0.0000
     65 H33        4.9693    4.3143   -1.8753 H         1 RES1    0.0000
     66 H34        5.2958    3.0458   -0.9489 H         1 RES1    0.0000
     67 C33        3.5441    5.7881   -0.1158 C.3       1 RES1    0.0000
     68 H35        2.7157    5.9644    0.3970 H         1 RES1    0.0000
     69 H36        3.4088    6.1063   -1.0434 H         1 RES1    0.0000
     70 C34        5.9757    6.2731   -0.3037 C.3       1 RES1    0.0000
     71 H37        6.7394    6.7687    0.0874 H         1 RES1    0.0000
     72 H38        5.8392    6.5972   -1.2289 H         1 RES1    0.0000
@<TRIPOS>BOND
     1    1    2 ar
     2    2    3 1
     3    4    2 ar
     4    5    4 1
     5    6    4 ar
     6    7    6 1
     7    8    6 ar
     8    9    8 ar
     9   10    9 ar
    10   11   10 1
    11   12   10 ar
    12   13   12 1
    13   14   12 ar
    14   15   14 1
    15   16   14 ar
    16   17   16 1
    17   18    9 ar
    18   19   18 ar
    19   20   19 1
    20   21   19 ar
    21   22    1 ar
    22   23    1 1
    23   24   23 1
    24   25   24 1
    25   26   24 1
    26   27   23 1
    27   28   27 1
    28   29   27 1
    29   30   23 1
    30   31   30 1
    31   32   30 1
    32   33   27 1
    33   34   33 1
    34   35   24 1
    35   36   35 1
    36   37   30 1
    37   38   37 1
    38   39   33 1
    39   40   39 1
    40   41   39 1
    41   42   33 1
    42   43   42 1
    43   44   42 1
    44   45   35 1
    45   46   45 1
    46   47   45 1
    47   48   21 1
    48   49   48 1
    49   50   49 1
    50   51   49 1
    51   52   48 1
    52   53   52 1
    53   54   52 1
    54   55   48 1
    55   56   55 1
    56   57   55 1
    57   58   49 1
    58   59   58 1
    59   60   52 1
    60   61   60 1
    61   62   55 1
    62   63   62 1
    63   64   58 1
    64   65   64 1
    65   66   64 1
    66   67   58 1
    67   68   67 1
    68   69   67 1
    69   70   60 1
    70   71   70 1
    71   72   70 1
    72    8   22 ar
    73   16   18 ar
    74   21   22 ar
    75   35   39 1
    76   37   42 1
    77   37   45 1
    78   60   64 1
    79   62   67 1
    80   62   70 1
@<TRIPOS>SUBSTRUCTURE
     1 RES1 1

@<TRIPOS>CRYSIN
   6.8945   29.5705   12.0622  90.0000 101.5849  90.0000  14 1

