# MOL2 file generated by ConQuest
# Please check atom types

@<TRIPOS>MOLECULE
DOFZUV
    66    73     1
SMALL
NO_CHARGES
****
Generated from CSD

@<TRIPOS>ATOM
      1 C1        10.6310    0.7344    4.5955 C.ar      1 RES1    0.0000
      2 C2        11.7361   -0.0727    4.6756 C.ar      1 RES1    0.0000
      3 H1        12.5424    0.2984    5.0138 H         1 RES1    0.0000
      4 C3        11.7341   -1.4302    4.2805 C.ar      1 RES1    0.0000
      5 H2        12.5419   -1.9300    4.2542 H         1 RES1    0.0000
      6 C4        10.5591   -1.9994    3.9428 C.ar      1 RES1    0.0000
      7 H3        10.5104   -2.9418    3.8351 H         1 RES1    0.0000
      8 C5         9.3993   -1.2177    3.7459 C.ar      1 RES1    0.0000
      9 C6         8.1537   -1.8254    3.4679 C.ar      1 RES1    0.0000
     10 H4         8.0887   -2.7734    3.4360 H         1 RES1    0.0000
     11 C7         7.0514   -1.0702    3.2467 C.ar      1 RES1    0.0000
     12 H5         6.1876   -1.4643    3.2295 H         1 RES1    0.0000
     13 C8         7.2158    0.3083    3.0422 C.ar      1 RES1    0.0000
     14 H6         6.4572    0.8169    2.7812 H         1 RES1    0.0000
     15 C9         8.4182    0.9667    3.2004 C.ar      1 RES1    0.0000
     16 C10        9.4849    0.2268    3.8497 C.ar      1 RES1    0.0000
     17 C11       10.5728    1.8992    5.6258 C.3       1 RES1    0.0000
     18 C12       11.7792    2.8647    5.5425 C.3       1 RES1    0.0000
     19 H7        12.6214    2.3462    5.5916 H         1 RES1    0.0000
     20 H8        11.7625    3.3404    4.6733 H         1 RES1    0.0000
     21 C13       10.6372    1.2166    7.0198 C.3       1 RES1    0.0000
     22 H9         9.8699    0.5989    7.1155 H         1 RES1    0.0000
     23 H10       11.4681    0.6826    7.0816 H         1 RES1    0.0000
     24 C14        9.2701    2.7128    5.6263 C.3       1 RES1    0.0000
     25 H11        9.1726    3.1741    4.7565 H         1 RES1    0.0000
     26 H12        8.5017    2.0974    5.7318 H         1 RES1    0.0000
     27 C15       10.6082    2.2350    8.1620 C.3       1 RES1    0.0000
     28 H13       10.6554    1.7528    9.0369 H         1 RES1    0.0000
     29 C16       11.7406    3.8876    6.6859 C.3       1 RES1    0.0000
     30 H14       12.5223    4.5052    6.6039 H         1 RES1    0.0000
     31 C17        9.2463    3.7488    6.7534 C.3       1 RES1    0.0000
     32 H15        8.3990    4.2762    6.6995 H         1 RES1    0.0000
     33 C18       11.8077    3.1653    8.0304 C.3       1 RES1    0.0000
     34 H16       12.6456    2.6413    8.0877 H         1 RES1    0.0000
     35 H17       11.8025    3.8259    8.7672 H         1 RES1    0.0000
     36 C19        9.3206    3.0519    8.1053 C.3       1 RES1    0.0000
     37 H18        8.5369    2.4585    8.2218 H         1 RES1    0.0000
     38 H19        9.3136    3.7235    8.8335 H         1 RES1    0.0000
     39 C20       10.4441    4.6979    6.5984 C.3       1 RES1    0.0000
     40 H20       10.3955    5.1614    5.7241 H         1 RES1    0.0000
     41 H21       10.4265    5.3816    7.3143 H         1 RES1    0.0000
     42 C21        8.6103    2.2262    2.3158 C.3       1 RES1    0.0000
     43 C22       10.0488    2.7712    2.2873 C.3       1 RES1    0.0000
     44 H22       10.3051    3.0684    3.1957 H         1 RES1    0.0000
     45 H23       10.6683    2.0478    2.0169 H         1 RES1    0.0000
     46 C23        7.5975    3.3558    2.6115 C.3       1 RES1    0.0000
     47 H24        6.6761    3.0002    2.5393 H         1 RES1    0.0000
     48 H25        7.7289    3.6839    3.5362 H         1 RES1    0.0000
     49 C24        8.3278    1.7616    0.8513 C.3       1 RES1    0.0000
     50 H26        8.9527    1.0316    0.6148 H         1 RES1    0.0000
     51 H27        7.4061    1.4037    0.7951 H         1 RES1    0.0000
     52 C25       10.1864    3.9426    1.3160 C.3       1 RES1    0.0000
     53 H28       11.1209    4.2960    1.3605 H         1 RES1    0.0000
     54 C26        7.7781    4.5184    1.6226 C.3       1 RES1    0.0000
     55 H29        7.1368    5.2517    1.8521 H         1 RES1    0.0000
     56 C27        8.4876    2.9121   -0.1533 C.3       1 RES1    0.0000
     57 H30        8.2932    2.5763   -1.0755 H         1 RES1    0.0000
     58 C28        9.9002    3.4604   -0.1043 C.3       1 RES1    0.0000
     59 H31        9.9928    4.2123   -0.7411 H         1 RES1    0.0000
     60 H32       10.5465    2.7547   -0.3590 H         1 RES1    0.0000
     61 C29        7.4987    4.0274    0.1997 C.3       1 RES1    0.0000
     62 H33        7.5980    4.7772   -0.4391 H         1 RES1    0.0000
     63 H34        6.5711    3.6872    0.1371 H         1 RES1    0.0000
     64 C30        9.2117    5.0513    1.7123 C.3       1 RES1    0.0000
     65 H35        9.3210    5.8264    1.1063 H         1 RES1    0.0000
     66 H36        9.4020    5.3508    2.6363 H         1 RES1    0.0000
@<TRIPOS>BOND
     1    1    2 ar
     2    2    3 1
     3    4    2 ar
     4    5    4 1
     5    6    4 ar
     6    7    6 1
     7    8    6 ar
     8    9    8 ar
     9   10    9 1
    10   11    9 ar
    11   12   11 1
    12   13   11 ar
    13   14   13 1
    14   15   13 ar
    15   16    1 ar
    16   17    1 1
    17   18   17 1
    18   19   18 1
    19   20   18 1
    20   21   17 1
    21   22   21 1
    22   23   21 1
    23   24   17 1
    24   25   24 1
    25   26   24 1
    26   27   21 1
    27   28   27 1
    28   29   18 1
    29   30   29 1
    30   31   24 1
    31   32   31 1
    32   33   27 1
    33   34   33 1
    34   35   33 1
    35   36   27 1
    36   37   36 1
    37   38   36 1
    38   39   29 1
    39   40   39 1
    40   41   39 1
    41   42   15 1
    42   43   42 1
    43   44   43 1
    44   45   43 1
    45   46   42 1
    46   47   46 1
    47   48   46 1
    48   49   42 1
    49   50   49 1
    50   51   49 1
    51   52   43 1
    52   53   52 1
    53   54   46 1
    54   55   54 1
    55   56   49 1
    56   57   56 1
    57   58   52 1
    58   59   58 1
    59   60   58 1
    60   61   54 1
    61   62   61 1
    62   63   61 1
    63   64   52 1
    64   65   64 1
    65   66   64 1
    66    8   16 ar
    67   15   16 ar
    68   29   33 1
    69   31   36 1
    70   31   39 1
    71   54   64 1
    72   56   58 1
    73   56   61 1
@<TRIPOS>SUBSTRUCTURE
     1 RES1 1

@<TRIPOS>CRYSIN
  13.0739   11.0098   15.4761  90.0000  95.3709  90.0000  14 2

