# MOL2 file generated by ConQuest
# Please check atom types

@<TRIPOS>MOLECULE
DOGCAE
    78    86     1
SMALL
NO_CHARGES
****
Generated from CSD

@<TRIPOS>ATOM
      1 C1         5.2241   14.1189   11.4131 C.2       1 RES1    0.0000
      2 H1         5.2629   14.9084   11.9025 H         1 RES1    0.0000
      3 C2         4.7521   14.2276   10.1568 C.2       1 RES1    0.0000
      4 C3         4.3765   15.5452    9.6032 C.2       1 RES1    0.0000
      5 C4         3.6143   15.6401    8.5287 C.2       1 RES1    0.0000
      6 H2         3.3047   14.8703    8.1077 H         1 RES1    0.0000
      7 H3         3.3874   16.4766    8.1924 H         1 RES1    0.0000
      8 C5         5.6874   12.9054   12.1116 C.ar      1 RES1    0.0000
      9 C6         5.3447   12.6479   13.5032 C.ar      1 RES1    0.0000
     10 C7         4.4395   13.4729   14.1799 C.ar      1 RES1    0.0000
     11 H4         4.0642   14.2011   13.7397 H         1 RES1    0.0000
     12 C8         4.0971   13.2218   15.4854 C.ar      1 RES1    0.0000
     13 H5         3.5035   13.7858   15.9269 H         1 RES1    0.0000
     14 C9         4.6329   12.1329   16.1416 C.ar      1 RES1    0.0000
     15 H6         4.3955   11.9596   17.0233 H         1 RES1    0.0000
     16 C10        5.5050   11.3137   15.5018 C.ar      1 RES1    0.0000
     17 H7         5.8636   10.5893   15.9625 H         1 RES1    0.0000
     18 C11        5.8849   11.5295   14.1635 C.ar      1 RES1    0.0000
     19 C12        6.7797   10.6406   13.4363 C.ar      1 RES1    0.0000
     20 C13        7.3700    9.5218   14.0364 C.ar      1 RES1    0.0000
     21 H8         7.1887    9.3364   14.9290 H         1 RES1    0.0000
     22 C14        8.2043    8.6988   13.3406 C.ar      1 RES1    0.0000
     23 H9         8.5934    7.9710   13.7698 H         1 RES1    0.0000
     24 C15        8.4800    8.9310   12.0009 C.ar      1 RES1    0.0000
     25 H10        9.0391    8.3603   11.5266 H         1 RES1    0.0000
     26 C16        7.9147   10.0142   11.3940 C.ar      1 RES1    0.0000
     27 H11        8.0980   10.1769   10.4972 H         1 RES1    0.0000
     28 C17        7.0674   10.8856   12.0843 C.ar      1 RES1    0.0000
     29 C18        6.5083   12.0382   11.4664 C.ar      1 RES1    0.0000
     30 H12        6.7146   12.2059   10.5751 H         1 RES1    0.0000
     31 C19        4.5776   13.0821    9.3407 C.1       1 RES1    0.0000
     32 C20        4.4417   12.1320    8.6463 C.1       1 RES1    0.0000
     33 C21        4.3229   10.9402    7.8521 C.ar      1 RES1    0.0000
     34 C22        4.9986    9.8213    8.2211 C.ar      1 RES1    0.0000
     35 H13        5.5273    9.8522    8.9867 H         1 RES1    0.0000
     36 C23        4.9322    8.6020    7.4830 C.ar      1 RES1    0.0000
     37 C24        5.6533    7.4688    7.8726 C.ar      1 RES1    0.0000
     38 H14        6.2048    7.5100    8.6203 H         1 RES1    0.0000
     39 C25        5.5578    6.3093    7.1727 C.ar      1 RES1    0.0000
     40 H15        6.0359    5.5592    7.4447 H         1 RES1    0.0000
     41 C26        4.7518    6.2468    6.0599 C.ar      1 RES1    0.0000
     42 H16        4.6903    5.4524    5.5801 H         1 RES1    0.0000
     43 C27        4.0457    7.3319    5.6526 C.ar      1 RES1    0.0000
     44 H17        3.5118    7.2682    4.8952 H         1 RES1    0.0000
     45 C28        4.1025    8.5476    6.3470 C.ar      1 RES1    0.0000
     46 C29        3.3400    9.7173    5.9574 C.ar      1 RES1    0.0000
     47 C30        2.4321    9.7175    4.8747 C.ar      1 RES1    0.0000
     48 H18        2.3158    8.9400    4.3771 H         1 RES1    0.0000
     49 C31        1.7293   10.8243    4.5494 C.ar      1 RES1    0.0000
     50 H19        1.1262   10.7914    3.8413 H         1 RES1    0.0000
     51 C32        1.8917   12.0007    5.2493 C.ar      1 RES1    0.0000
     52 H20        1.4215   12.7644    4.9991 H         1 RES1    0.0000
     53 C33        2.7467   12.0365    6.3101 C.ar      1 RES1    0.0000
     54 H21        2.8441   12.8270    6.7899 H         1 RES1    0.0000
     55 C34        3.4780   10.9100    6.6915 C.ar      1 RES1    0.0000
     56 C35        4.8668   16.7628   10.2785 C.ar      1 RES1    0.0000
     57 C36        4.0149   17.5585   10.9387 C.ar      1 RES1    0.0000
     58 H22        3.1250   17.2969   11.0071 H         1 RES1    0.0000
     59 C37        4.4115   18.7911   11.5443 C.ar      1 RES1    0.0000
     60 C38        3.4896   19.6231   12.1896 C.ar      1 RES1    0.0000
     61 H23        2.6001   19.3561   12.2456 H         1 RES1    0.0000
     62 C39        3.8623   20.8243   12.7446 C.ar      1 RES1    0.0000
     63 H24        3.2313   21.3658   13.1615 H         1 RES1    0.0000
     64 C40        5.1757   21.2155   12.6748 C.ar      1 RES1    0.0000
     65 H25        5.4364   22.0254   13.0508 H         1 RES1    0.0000
     66 C41        6.0978   20.4260   12.0611 C.ar      1 RES1    0.0000
     67 H26        6.9803   20.7146   12.0187 H         1 RES1    0.0000
     68 C42        5.7580   19.1813   11.4842 C.ar      1 RES1    0.0000
     69 C43        6.7109   18.3238   10.8048 C.ar      1 RES1    0.0000
     70 C44        8.0839   18.6378   10.7105 C.ar      1 RES1    0.0000
     71 H27        8.4003   19.4057   11.1301 H         1 RES1    0.0000
     72 C45        8.9580   17.8553   10.0270 C.ar      1 RES1    0.0000
     73 H28        9.8561   18.0920    9.9791 H         1 RES1    0.0000
     74 C46        8.5094   16.7091    9.4077 C.ar      1 RES1    0.0000
     75 H29        9.1021   16.1737    8.9306 H         1 RES1    0.0000
     76 C47        7.1891   16.3584    9.4925 C.ar      1 RES1    0.0000
     77 H30        6.9019   15.5793    9.0742 H         1 RES1    0.0000
     78 C48        6.2533   17.1371   10.1910 C.ar      1 RES1    0.0000
@<TRIPOS>BOND
     1    1    2 1
     2    3    1 2
     3    4    3 1
     4    5    4 2
     5    6    5 1
     6    7    5 1
     7    8    1 1
     8    9    8 ar
     9   10    9 ar
    10   11   10 1
    11   12   10 ar
    12   13   12 1
    13   14   12 ar
    14   15   14 1
    15   16   14 ar
    16   17   16 1
    17   18    9 ar
    18   19   18 ar
    19   20   19 ar
    20   21   20 1
    21   22   20 ar
    22   23   22 1
    23   24   22 ar
    24   25   24 1
    25   26   24 ar
    26   27   26 1
    27   28   19 ar
    28   29    8 ar
    29   30   29 1
    30   31    3 1
    31   32   31 3
    32   33   32 1
    33   34   33 ar
    34   35   34 1
    35   36   34 ar
    36   37   36 ar
    37   38   37 1
    38   39   37 ar
    39   40   39 1
    40   41   39 ar
    41   42   41 1
    42   43   41 ar
    43   44   43 1
    44   45   36 ar
    45   46   45 ar
    46   47   46 ar
    47   48   47 1
    48   49   47 ar
    49   50   49 1
    50   51   49 ar
    51   52   51 1
    52   53   51 ar
    53   54   53 1
    54   55   33 ar
    55   56    4 1
    56   57   56 ar
    57   58   57 1
    58   59   57 ar
    59   60   59 ar
    60   61   60 1
    61   62   60 ar
    62   63   62 1
    63   64   62 ar
    64   65   64 1
    65   66   64 ar
    66   67   66 1
    67   68   59 ar
    68   69   68 ar
    69   70   69 ar
    70   71   70 1
    71   72   70 ar
    72   73   72 1
    73   74   72 ar
    74   75   74 1
    75   76   74 ar
    76   77   76 1
    77   78   56 ar
    78   16   18 ar
    79   26   28 ar
    80   28   29 ar
    81   43   45 ar
    82   46   55 ar
    83   53   55 ar
    84   66   68 ar
    85   69   78 ar
    86   76   78 ar
@<TRIPOS>SUBSTRUCTURE
     1 RES1 1

@<TRIPOS>CRYSIN
   9.0868   13.0680   15.1520  65.8040  80.2820  85.1180   2 1

