# MOL2 file generated by ConQuest
# Please check atom types

@<TRIPOS>MOLECULE
DOGCEI
    60    66     1
SMALL
NO_CHARGES
****
Generated from CSD

@<TRIPOS>ATOM
      1 C1         4.6551    0.0254   16.9077 C.2       1 RES1    0.0000
      2 C2         4.4423   -1.2869   17.1528 C.2       1 RES1    0.0000
      3 H1         4.6295   -1.8998   16.4779 H         1 RES1    0.0000
      4 C3         3.9351   -1.7850   18.4127 C.ar      1 RES1    0.0000
      5 C4         3.9359   -3.1748   18.7355 C.ar      1 RES1    0.0000
      6 C5         4.4010   -4.1783   17.8345 C.ar      1 RES1    0.0000
      7 H2         4.7375   -3.9278   17.0043 H         1 RES1    0.0000
      8 C6         4.3587   -5.5070   18.1711 C.ar      1 RES1    0.0000
      9 H3         4.6674   -6.1437   17.5687 H         1 RES1    0.0000
     10 C7         3.8563   -5.9156   19.4138 C.ar      1 RES1    0.0000
     11 H4         3.8277   -6.8207   19.6295 H         1 RES1    0.0000
     12 C8         3.4123   -4.9925   20.3027 C.ar      1 RES1    0.0000
     13 H5         3.0854   -5.2744   21.1260 H         1 RES1    0.0000
     14 C9         3.4345   -3.5968   20.0006 C.ar      1 RES1    0.0000
     15 C10        2.9546   -2.6245   20.9223 C.ar      1 RES1    0.0000
     16 H6         2.6445   -2.8870   21.7594 H         1 RES1    0.0000
     17 C11        2.9524   -1.3167   20.5736 C.ar      1 RES1    0.0000
     18 H7         2.6069   -0.6919   21.1691 H         1 RES1    0.0000
     19 C12        3.4510   -0.8768   19.3482 C.ar      1 RES1    0.0000
     20 C13        3.4023    0.5711   18.9944 C.3       1 RES1    0.0000
     21 H8         2.5150    0.7769   18.6595 H         1 RES1    0.0000
     22 H9         3.5380    1.0916   19.8021 H         1 RES1    0.0000
     23 C14        4.3963    1.0006   17.9864 C.3       1 RES1    0.0000
     24 H10        5.2276    0.9395   18.5025 H         1 RES1    0.0000
     25 C15        4.3521    2.4739   17.6792 C.ar      1 RES1    0.0000
     26 C16        5.1674    3.4223   18.3696 C.ar      1 RES1    0.0000
     27 C17        6.0788    3.0555   19.4086 C.ar      1 RES1    0.0000
     28 H11        6.1654    2.1637   19.6554 H         1 RES1    0.0000
     29 C18        6.8127    3.9979   20.0300 C.ar      1 RES1    0.0000
     30 H12        7.3996    3.7369   20.7031 H         1 RES1    0.0000
     31 C19        6.7271    5.3445   19.7038 C.ar      1 RES1    0.0000
     32 H13        7.2467    5.9737   20.1508 H         1 RES1    0.0000
     33 C20        5.8662    5.7322   18.7148 C.ar      1 RES1    0.0000
     34 H14        5.8055    6.6314   18.4887 H         1 RES1    0.0000
     35 C21        5.0700    4.7957   18.0347 C.ar      1 RES1    0.0000
     36 C22        4.1757    5.2117   17.0181 C.ar      1 RES1    0.0000
     37 H15        4.1209    6.1094   16.7851 H         1 RES1    0.0000
     38 C23        3.3874    4.2857   16.3761 C.ar      1 RES1    0.0000
     39 H16        2.7847    4.5616   15.7237 H         1 RES1    0.0000
     40 C24        3.4914    2.9183   16.7057 C.ar      1 RES1    0.0000
     41 H17        2.9648    2.3024   16.2501 H         1 RES1    0.0000
     42 C25        5.2422    0.4608   15.6632 C.1       1 RES1    0.0000
     43 C26        5.7473    0.7859   14.6363 C.1       1 RES1    0.0000
     44 C27        6.3368    1.1795   13.4005 C.ar      1 RES1    0.0000
     45 C28        6.7033    0.2401   12.4702 C.ar      1 RES1    0.0000
     46 H18        6.5887   -0.6621   12.6618 H         1 RES1    0.0000
     47 C29        7.2439    0.6203   11.2430 C.ar      1 RES1    0.0000
     48 H19        7.4889   -0.0313   10.6251 H         1 RES1    0.0000
     49 C30        7.4182    1.9401   10.9392 C.ar      1 RES1    0.0000
     50 H20        7.7890    2.1742   10.1194 H         1 RES1    0.0000
     51 C31        7.0465    2.9526   11.8437 C.ar      1 RES1    0.0000
     52 C32        7.1412    4.3200   11.5330 C.ar      1 RES1    0.0000
     53 H21        7.4895    4.5675   10.7062 H         1 RES1    0.0000
     54 C33        6.7444    5.2938   12.3891 C.ar      1 RES1    0.0000
     55 H22        6.8029    6.1885   12.1423 H         1 RES1    0.0000
     56 C34        6.2537    4.9389   13.6300 C.ar      1 RES1    0.0000
     57 H23        5.9986    5.6009   14.2290 H         1 RES1    0.0000
     58 C35        6.1372    3.6102   13.9908 C.ar      1 RES1    0.0000
     59 H24        5.8082    3.3955   14.8330 H         1 RES1    0.0000
     60 C36        6.5073    2.5619   13.1019 C.ar      1 RES1    0.0000
@<TRIPOS>BOND
     1    1    2 2
     2    2    3 1
     3    4    2 1
     4    5    4 ar
     5    6    5 ar
     6    7    6 1
     7    8    6 ar
     8    9    8 1
     9   10    8 ar
    10   11   10 1
    11   12   10 ar
    12   13   12 1
    13   14    5 ar
    14   15   14 ar
    15   16   15 1
    16   17   15 ar
    17   18   17 1
    18   19    4 ar
    19   20   19 1
    20   21   20 1
    21   22   20 1
    22   23    1 1
    23   24   23 1
    24   25   23 1
    25   26   25 ar
    26   27   26 ar
    27   28   27 1
    28   29   27 ar
    29   30   29 1
    30   31   29 ar
    31   32   31 1
    32   33   31 ar
    33   34   33 1
    34   35   26 ar
    35   36   35 ar
    36   37   36 1
    37   38   36 ar
    38   39   38 1
    39   40   25 ar
    40   41   40 1
    41   42    1 1
    42   43   42 3
    43   44   43 1
    44   45   44 ar
    45   46   45 1
    46   47   45 ar
    47   48   47 1
    48   49   47 ar
    49   50   49 1
    50   51   49 ar
    51   52   51 ar
    52   53   52 1
    53   54   52 ar
    54   55   54 1
    55   56   54 ar
    56   57   56 1
    57   58   56 ar
    58   59   58 1
    59   60   44 ar
    60   12   14 ar
    61   17   19 ar
    62   20   23 1
    63   33   35 ar
    64   38   40 ar
    65   51   60 ar
    66   58   60 ar
@<TRIPOS>SUBSTRUCTURE
     1 RES1 1

@<TRIPOS>CRYSIN
   9.4820   14.9120   17.5010  90.0000  99.5240  90.0000 231 1

