# MOL2 file generated by ConQuest
# Please check atom types

@<TRIPOS>MOLECULE
DOPLAV
    32    36     1
SMALL
NO_CHARGES
****
Generated from CSD

@<TRIPOS>ATOM
      1 C1         5.6661    3.2068    8.0690 C.ar      1 RES1    0.0000
      2 C2         6.3322    3.2068    9.3357 C.ar      1 RES1    0.0000
      3 C3         6.6619    1.9892    9.9735 C.ar      1 RES1    0.0000
      4 C4         6.3625    0.8036    9.4024 C.ar      1 RES1    0.0000
      5 C5         5.7078    0.7844    8.1720 C.ar      1 RES1    0.0000
      6 C6         5.3527    1.9239    7.4925 C.ar      1 RES1    0.0000
      7 C7         4.6463    1.7366    6.1688 C.3       1 RES1    0.0000
      8 C8         3.3079    2.4243    6.0749 C.3       1 RES1    0.0000
      9 C9         2.6301    2.5512    4.7187 C.2       1 RES1    0.0000
     10 C10        2.3981    2.5473    7.2912 C.2       1 RES1    0.0000
     11 H1         7.0890    2.0485   10.8452 H         1 RES1    0.0000
     12 H2         6.5949   -0.0603    9.8625 H         1 RES1    0.0000
     13 H3         5.5147   -0.0821    7.7551 H         1 RES1    0.0000
     14 H4         4.5626    0.7465    5.9975 H         1 RES1    0.0000
     15 H5         5.1964    2.1318    5.4205 H         1 RES1    0.0000
     16 H6         2.2762    1.8214    4.1061 H         1 RES1    0.0000
     17 H7         1.9361    1.8573    8.2569 H         1 RES1    0.0000
     18 C6G        5.3527    4.4896    7.4925 C.ar      1 RES1    0.0000
     19 C3G        6.6619    4.4243    9.9735 C.ar      1 RES1    0.0000
     20 C8G        3.3079    3.9892    6.0749 C.3       1 RES1    0.0000
     21 C9G        2.6301    3.8623    4.7187 C.2       1 RES1    0.0000
     22 C10G       2.3981    3.8662    7.2912 C.2       1 RES1    0.0000
     23 C5G        5.7078    5.6291    8.1720 C.ar      1 RES1    0.0000
     24 C7G        4.6463    4.6769    6.1688 C.3       1 RES1    0.0000
     25 C4G        6.3625    5.6099    9.4024 C.ar      1 RES1    0.0000
     26 H1G        7.0890    4.3650   10.8452 H         1 RES1    0.0000
     27 H6G        2.2762    4.5921    4.1061 H         1 RES1    0.0000
     28 H7G        1.9361    4.5562    8.2569 H         1 RES1    0.0000
     29 H3G        5.5147    6.4956    7.7551 H         1 RES1    0.0000
     30 H4G        4.5626    5.6670    5.9975 H         1 RES1    0.0000
     31 H5G        5.1964    4.2817    5.4205 H         1 RES1    0.0000
     32 H2G        6.5949    6.4738    9.8625 H         1 RES1    0.0000
@<TRIPOS>BOND
     1    1    2 ar
     2    2    3 ar
     3    3    4 ar
     4    4    5 ar
     5    5    6 ar
     6    6    1 ar
     7    7    6 1
     8    8    7 1
     9    9    8 1
    10   10    8 1
    11   11    3 1
    12   12    4 1
    13   13    5 1
    14   14    7 1
    15   15    7 1
    16   16    9 1
    17   17   10 1
    18   18    1 ar
    19   19    2 ar
    20   20    8 1
    21   21    9 2
    22   22   10 2
    23   23   18 ar
    24   24   18 1
    25   25   19 ar
    26   26   19 1
    27   27   21 1
    28   28   22 1
    29   29   23 1
    30   30   24 1
    31   31   24 1
    32   32   25 1
    33   20   21 1
    34   20   22 1
    35   20   24 1
    36   23   25 ar
@<TRIPOS>SUBSTRUCTURE
     1 RES1 1

@<TRIPOS>CRYSIN
   6.8150   12.8270   13.9380  90.0000  90.0000  90.0000  62 1

