# MOL2 file generated by ConQuest
# Please check atom types

@<TRIPOS>MOLECULE
DORYEP
    58    62     1
SMALL
NO_CHARGES
****
Generated from CSD

@<TRIPOS>ATOM
      1 C1         5.0701    5.3601    3.5204 C.2       1 RES1    0.0000
      2 C2         5.3895    4.5867    2.4628 C.2       1 RES1    0.0000
      3 C3         4.4245    3.9542    1.4686 C.3       1 RES1    0.0000
      4 H1         4.2598    4.5518    0.7227 H         1 RES1    0.0000
      5 H2         3.5790    3.7473    1.8963 H         1 RES1    0.0000
      6 C4         5.1238    2.6701    0.9948 C.3       1 RES1    0.0000
      7 H3         4.9034    1.9576    1.6303 H         1 RES1    0.0000
      8 C5         6.5774    3.0099    1.1715 C.ar      1 RES1    0.0000
      9 C6         6.7214    4.1061    2.0577 C.ar      1 RES1    0.0000
     10 C7         7.9804    4.5738    2.3480 C.ar      1 RES1    0.0000
     11 H4         8.0807    5.2902    2.9330 H         1 RES1    0.0000
     12 C8         9.1164    3.9842    1.7722 C.ar      1 RES1    0.0000
     13 C9         8.9673    2.8879    0.8926 C.ar      1 RES1    0.0000
     14 C10        7.6656    2.4183    0.6032 C.ar      1 RES1    0.0000
     15 H5         7.5514    1.7018    0.0212 H         1 RES1    0.0000
     16 C11       10.4212    4.4578    2.0512 C.ar      1 RES1    0.0000
     17 H6        10.5346    5.1743    2.6324 H         1 RES1    0.0000
     18 C12       11.5088    3.8812    1.4814 C.ar      1 RES1    0.0000
     19 H7        12.3583    4.2120    1.6650 H         1 RES1    0.0000
     20 C13       11.3571    2.7980    0.6236 C.ar      1 RES1    0.0000
     21 H8        12.1093    2.3993    0.2467 H         1 RES1    0.0000
     22 C14       10.1235    2.3164    0.3317 C.ar      1 RES1    0.0000
     23 H9        10.0411    1.5959   -0.2505 H         1 RES1    0.0000
     24 C15        6.1231    5.7549    4.5042 C.ar      1 RES1    0.0000
     25 C16        6.7158    4.8206    5.3301 C.ar      1 RES1    0.0000
     26 H10        6.4210    3.9382    5.3111 H         1 RES1    0.0000
     27 C17        7.7379    5.1783    6.1810 C.ar      1 RES1    0.0000
     28 H11        8.1281    4.5388    6.7313 H         1 RES1    0.0000
     29 C18        8.1826    6.4714    6.2176 C.ar      1 RES1    0.0000
     30 H12        8.8929    6.7052    6.7699 H         1 RES1    0.0000
     31 C19        7.5767    7.4207    5.4357 C.ar      1 RES1    0.0000
     32 H13        7.8635    8.3051    5.4729 H         1 RES1    0.0000
     33 C20        6.5488    7.0680    4.5988 C.ar      1 RES1    0.0000
     34 H14        6.1304    7.7215    4.0874 H         1 RES1    0.0000
     35 C21        3.7075    5.8347    3.8197 C.ar      1 RES1    0.0000
     36 C22        3.2637    5.9638    5.1372 C.ar      1 RES1    0.0000
     37 H15        3.8465    5.7619    5.8333 H         1 RES1    0.0000
     38 C23        1.9925    6.3795    5.4336 C.ar      1 RES1    0.0000
     39 H16        1.7273    6.4524    6.3228 H         1 RES1    0.0000
     40 C24        1.1058    6.6882    4.4310 C.ar      1 RES1    0.0000
     41 H17        0.2373    6.9531    4.6308 H         1 RES1    0.0000
     42 C25        1.5289    6.5983    3.1282 C.ar      1 RES1    0.0000
     43 H18        0.9434    6.8202    2.4397 H         1 RES1    0.0000
     44 C26        2.8006    6.1866    2.8261 C.ar      1 RES1    0.0000
     45 H19        3.0634    6.1426    1.9348 H         1 RES1    0.0000
     46 C27        4.7479    2.1914   -0.3785 C.3       1 RES1    0.0000
     47 H20        5.2549    1.3880   -0.5743 H         1 RES1    0.0000
     48 H21        5.0117    2.8660   -1.0233 H         1 RES1    0.0000
     49 C28        3.2726    1.8887   -0.5733 C.3       1 RES1    0.0000
     50 H22        2.9854    1.2551    0.1021 H         1 RES1    0.0000
     51 H23        2.7610    2.7041   -0.4529 H         1 RES1    0.0000
     52 C29        2.9883    1.3251   -1.9267 C.3       1 RES1    0.0000
     53 H24        3.3293    1.9446   -2.5900 H         1 RES1    0.0000
     54 H25        3.4856    0.4976   -2.0215 H         1 RES1    0.0000
     55 C30        1.5594    1.0473   -2.2393 C.3       1 RES1    0.0000
     56 H26        1.2168    0.3977   -1.6207 H         1 RES1    0.0000
     57 H27        1.4875    0.7065   -3.1335 H         1 RES1    0.0000
     58 H28        1.0519    1.8587   -2.1641 H         1 RES1    0.0000
@<TRIPOS>BOND
     1    1    2 2
     2    2    3 1
     3    3    4 1
     4    5    3 1
     5    6    3 1
     6    7    6 1
     7    8    6 1
     8    9    2 1
     9   10    9 ar
    10   11   10 1
    11   12   10 ar
    12   13   12 ar
    13   14    8 ar
    14   15   14 1
    15   16   12 ar
    16   17   16 1
    17   18   16 ar
    18   19   18 1
    19   20   18 ar
    20   21   20 1
    21   22   13 ar
    22   23   22 1
    23   24    1 1
    24   25   24 ar
    25   26   25 1
    26   27   25 ar
    27   28   27 1
    28   29   27 ar
    29   30   29 1
    30   31   29 ar
    31   32   31 1
    32   33   24 ar
    33   34   33 1
    34   35    1 1
    35   36   35 ar
    36   37   36 1
    37   38   36 ar
    38   39   38 1
    39   40   38 ar
    40   41   40 1
    41   42   40 ar
    42   43   42 1
    43   44   35 ar
    44   45   44 1
    45   46    6 1
    46   47   46 1
    47   48   46 1
    48   49   46 1
    49   50   49 1
    50   51   49 1
    51   52   49 1
    52   53   52 1
    53   54   52 1
    54   55   52 1
    55   56   55 1
    56   57   55 1
    57   58   55 1
    58    8    9 ar
    59   13   14 ar
    60   20   22 ar
    61   31   33 ar
    62   42   44 ar
@<TRIPOS>SUBSTRUCTURE
     1 RES1 1

@<TRIPOS>CRYSIN
  11.8669    9.9929   19.6560  90.0000 101.3600  90.0000  14 1

