# MOL2 file generated by ConQuest
# Please check atom types

@<TRIPOS>MOLECULE
DPANTR09
    88    96     2
SMALL
NO_CHARGES
****
Generated from CSD

@<TRIPOS>ATOM
      1 C1         0.4223   -2.3039   -3.6600 C.ar      1 RES1    0.0000
      2 C2         0.5714   -0.1228   -4.8861 C.ar      1 RES1    0.0000
      3 C3         2.5881   -1.0345   -3.8721 C.ar      1 RES1    0.0000
      4 C4         1.2162   -1.1407   -4.1651 C.ar      1 RES1    0.0000
      5 C5         0.5575   -3.5840   -4.1954 C.ar      1 RES1    0.0000
      6 C6         4.5943   -1.9180   -2.8021 C.ar      1 RES1    0.0000
      7 C7        -1.2566   -3.1485   -2.1354 C.ar      1 RES1    0.0000
      8 C8        -0.4837   -2.1039   -2.6267 C.ar      1 RES1    0.0000
      9 C9         3.2783   -2.0408   -3.1273 C.ar      1 RES1    0.0000
     10 C10       -0.8098   -0.2126   -5.2571 C.ar      1 RES1    0.0000
     11 C11       -1.1328   -4.4166   -2.6928 C.ar      1 RES1    0.0000
     12 C12       -1.4223    0.7644   -5.9808 C.ar      1 RES1    0.0000
     13 C13       -0.2230   -4.6351   -3.7151 C.ar      1 RES1    0.0000
     14 H1         1.1949   -3.7327   -4.9081 H         1 RES1    0.0000
     15 H2         5.0355   -2.5999   -2.3062 H         1 RES1    0.0000
     16 H3        -1.8717   -2.9971   -1.4089 H         1 RES1    0.0000
     17 H4        -0.5842   -1.2300   -2.2437 H         1 RES1    0.0000
     18 H5         2.7847   -2.8370   -2.8508 H         1 RES1    0.0000
     19 H6        -1.3197   -0.9848   -4.9954 H         1 RES1    0.0000
     20 H7        -1.6729   -5.1370   -2.3732 H         1 RES1    0.0000
     21 H8        -2.3476    0.6667   -6.2205 H         1 RES1    0.0000
     22 H9        -0.1233   -5.5099   -4.0806 H         1 RES1    0.0000
     23 C14       -0.8570    0.9992   -0.5511 C.ar      2 RES2    0.0000
     24 C15        0.5371    1.1012   -0.7090 C.ar      2 RES2    0.0000
     25 C16        1.1384    2.2240   -1.3721 C.ar      2 RES2    0.0000
     26 C17       -1.4050   -0.0918    0.1571 C.ar      2 RES2    0.0000
     27 C18       -1.7349    2.0574   -1.1352 C.ar      2 RES2    0.0000
     28 C19       -2.8198   -0.2636    0.3150 C.ar      2 RES2    0.0000
     29 C20       -1.9255    2.1432   -2.5137 C.ar      2 RES2    0.0000
     30 C21        2.4835    2.3493   -1.4768 C.ar      2 RES2    0.0000
     31 C22       -2.7224    3.1481   -3.0602 C.ar      2 RES2    0.0000
     32 C23       -3.3403   -1.3543    0.9451 C.ar      2 RES2    0.0000
     33 C24       -3.3347    4.0794   -2.2428 C.ar      2 RES2    0.0000
     34 C25       -2.3496    3.0119   -0.3251 C.ar      2 RES2    0.0000
     35 C26       -3.1460    4.0105   -0.8707 C.ar      2 RES2    0.0000
     36 H10        0.5625    2.9100   -1.7303 H         2 RES2    0.0000
     37 H11       -3.4095    0.4033   -0.0395 H         2 RES2    0.0000
     38 H12       -1.4865    1.5117   -3.0804 H         2 RES2    0.0000
     39 H13        2.8698    3.1207   -1.9103 H         2 RES2    0.0000
     40 H14       -2.8562    3.1937   -4.0145 H         2 RES2    0.0000
     41 H15       -4.2958   -1.4428    1.0268 H         2 RES2    0.0000
     42 H16       -3.8842    4.7682   -2.6276 H         2 RES2    0.0000
     43 H17       -2.2103    2.9606    0.6227 H         2 RES2    0.0000
     44 H18       -3.5636    4.6487   -0.2902 H         2 RES2    0.0000
     45 C1B        3.4767    2.3039   -5.5244 C.ar      1 RES1    0.0000
     46 C2B        3.3277    0.1228   -4.2983 C.ar      1 RES1    0.0000
     47 C3B        1.3110    1.0345   -5.3122 C.ar      1 RES1    0.0000
     48 C4B        2.6829    1.1407   -5.0192 C.ar      1 RES1    0.0000
     49 C5B        3.3416    3.5840   -4.9889 C.ar      1 RES1    0.0000
     50 C6B       -0.6952    1.9180   -6.3822 C.ar      1 RES1    0.0000
     51 C7B        5.1557    3.1485   -7.0490 C.ar      1 RES1    0.0000
     52 C8B        4.3828    2.1039   -6.5576 C.ar      1 RES1    0.0000
     53 C9B        0.6208    2.0408   -6.0571 C.ar      1 RES1    0.0000
     54 C10B       4.7089    0.2126   -3.9272 C.ar      1 RES1    0.0000
     55 C11B       5.0319    4.4166   -6.4915 C.ar      1 RES1    0.0000
     56 C12B       5.3214   -0.7644   -3.2035 C.ar      1 RES1    0.0000
     57 C13B       4.1220    4.6351   -5.4693 C.ar      1 RES1    0.0000
     58 H1B        2.7042    3.7327   -4.2762 H         1 RES1    0.0000
     59 H2B       -1.1364    2.5999   -6.8781 H         1 RES1    0.0000
     60 H3B        5.7707    2.9971   -7.7754 H         1 RES1    0.0000
     61 H4B        4.4833    1.2300   -6.9406 H         1 RES1    0.0000
     62 H5B        1.1144    2.8370   -6.3335 H         1 RES1    0.0000
     63 H6B        5.2188    0.9848   -4.1890 H         1 RES1    0.0000
     64 H7B        5.5720    5.1370   -6.8111 H         1 RES1    0.0000
     65 H8B        6.2467   -0.6667   -2.9638 H         1 RES1    0.0000
     66 H9B        4.0223    5.5099   -5.1037 H         1 RES1    0.0000
     67 C14B       0.8570   -0.9992    0.5511 C.ar      2 RES2    0.0000
     68 C15B      -0.5371   -1.1012    0.7090 C.ar      2 RES2    0.0000
     69 C16B      -1.1384   -2.2240    1.3721 C.ar      2 RES2    0.0000
     70 C17B       1.4050    0.0918   -0.1571 C.ar      2 RES2    0.0000
     71 C18B       1.7349   -2.0574    1.1352 C.ar      2 RES2    0.0000
     72 C19B       2.8198    0.2636   -0.3150 C.ar      2 RES2    0.0000
     73 C20B       1.9255   -2.1432    2.5137 C.ar      2 RES2    0.0000
     74 C21B      -2.4835   -2.3493    1.4768 C.ar      2 RES2    0.0000
     75 C22B       2.7224   -3.1481    3.0602 C.ar      2 RES2    0.0000
     76 C23B       3.3403    1.3543   -0.9451 C.ar      2 RES2    0.0000
     77 C24B       3.3347   -4.0794    2.2428 C.ar      2 RES2    0.0000
     78 C25B       2.3496   -3.0119    0.3251 C.ar      2 RES2    0.0000
     79 C26B       3.1460   -4.0105    0.8707 C.ar      2 RES2    0.0000
     80 H10B      -0.5625   -2.9100    1.7303 H         2 RES2    0.0000
     81 H11B       3.4095   -0.4033    0.0395 H         2 RES2    0.0000
     82 H12B       1.4865   -1.5117    3.0804 H         2 RES2    0.0000
     83 H13B      -2.8698   -3.1207    1.9103 H         2 RES2    0.0000
     84 H14B       2.8562   -3.1937    4.0145 H         2 RES2    0.0000
     85 H15B       4.2958    1.4428   -1.0268 H         2 RES2    0.0000
     86 H16B       3.8842   -4.7682    2.6276 H         2 RES2    0.0000
     87 H17B       2.2103   -2.9606   -0.6227 H         2 RES2    0.0000
     88 H18B       3.5636   -4.6487    0.2902 H         2 RES2    0.0000
@<TRIPOS>BOND
     1    1    4 1
     2    2    4 ar
     3    3    4 ar
     4    5    1 ar
     5    6    9 ar
     6    7    8 ar
     7    8    1 ar
     8    9    3 ar
     9   10    2 ar
    10   11    7 ar
    11   12   10 ar
    12   13    5 ar
    13   14    5 1
    14   15    6 1
    15   16    7 1
    16   17    8 1
    17   18    9 1
    18   19   10 1
    19   20   11 1
    20   21   12 1
    21   22   13 1
    22   23   24 ar
    23   24   25 ar
    24   25   30 ar
    25   26   23 ar
    26   27   23 1
    27   28   26 ar
    28   29   27 ar
    29   30   39 1
    30   31   29 ar
    31   32   28 ar
    32   33   31 ar
    33   34   27 ar
    34   35   33 ar
    35   36   25 1
    36   37   28 1
    37   38   29 1
    38   40   31 1
    39   41   32 1
    40   42   33 1
    41   43   34 1
    42   44   35 1
    43   45   48 1
    44   46    3 ar
    45   47    2 ar
    46   48   46 ar
    47   49   45 ar
    48   50   12 ar
    49   51   52 ar
    50   52   45 ar
    51   53   47 ar
    52   54   46 ar
    53   55   51 ar
    54   56    6 ar
    55   57   49 ar
    56   58   49 1
    57   59   50 1
    58   60   51 1
    59   61   52 1
    60   62   53 1
    61   63   54 1
    62   64   55 1
    63   65   56 1
    64   66   57 1
    65   67   68 ar
    66   68   26 ar
    67   69   68 ar
    68   70   24 ar
    69   71   67 1
    70   72   70 ar
    71   73   71 ar
    72   74   32 ar
    73   75   73 ar
    74   76   30 ar
    75   77   75 ar
    76   78   71 ar
    77   79   77 ar
    78   80   69 1
    79   81   72 1
    80   82   73 1
    81   83   74 1
    82   84   75 1
    83   85   76 1
    84   86   77 1
    85   87   78 1
    86   88   79 1
    87   11   13 ar
    88   34   35 ar
    89   47   48 ar
    90   50   53 ar
    91   54   56 ar
    92   55   57 ar
    93   67   70 ar
    94   69   74 ar
    95   72   76 ar
    96   78   79 ar
@<TRIPOS>SUBSTRUCTURE
     1 RES1 1
     2 RES2 23

@<TRIPOS>CRYSIN
   9.4051   20.2644    9.9777  90.0000 113.0030  90.0000  14 2

