# MOL2 file generated by ConQuest
# Please check atom types

@<TRIPOS>MOLECULE
DPANTR05
    44    48     1
SMALL
NO_CHARGES
****
Generated from CSD

@<TRIPOS>ATOM
      1 C1         2.4975    2.2067    6.8656 C.ar      1 RES1    0.0000
      2 C2         1.3658    3.0122    6.6314 C.ar      1 RES1    0.0000
      3 C3         0.0990    2.7175    7.2287 C.ar      1 RES1    0.0000
      4 H1         0.0130    1.9482    7.7797 H         1 RES1    0.0000
      5 C4        -0.9813    3.5134    7.0252 C.ar      1 RES1    0.0000
      6 H2        -1.8125    3.2983    7.4318 H         1 RES1    0.0000
      7 C5        -0.8731    4.6639    6.2080 C.ar      1 RES1    0.0000
      8 H3        -1.6360    5.2127    6.0647 H         1 RES1    0.0000
      9 C6         0.3104    4.9923    5.6257 C.ar      1 RES1    0.0000
     10 H4         0.3636    5.7703    5.0842 H         1 RES1    0.0000
     11 C7         1.4788    4.1869    5.8136 C.ar      1 RES1    0.0000
     12 C8         2.3587    0.9775    7.6953 C.ar      1 RES1    0.0000
     13 C9         1.5845   -0.0901    7.2537 C.ar      1 RES1    0.0000
     14 H5         1.1570   -0.0405    6.4065 H         1 RES1    0.0000
     15 C10        1.4289   -1.2286    8.0357 C.ar      1 RES1    0.0000
     16 H6         0.8844   -1.9441    7.7300 H         1 RES1    0.0000
     17 C11        2.0654   -1.3189    9.2583 C.ar      1 RES1    0.0000
     18 H7         1.9642   -2.0981    9.7927 H         1 RES1    0.0000
     19 C12        2.8488   -0.2725    9.7009 C.ar      1 RES1    0.0000
     20 H8         3.2933   -0.3362   10.5381 H         1 RES1    0.0000
     21 C13        2.9924    0.8735    8.9307 C.ar      1 RES1    0.0000
     22 H9         3.5265    1.5918    9.2486 H         1 RES1    0.0000
     23 C1F        2.7201    4.5438    5.2541 C.ar      1 RES1    0.0000
     24 C2F        3.8518    3.7383    5.4883 C.ar      1 RES1    0.0000
     25 C3F        5.1186    4.0330    4.8910 C.ar      1 RES1    0.0000
     26 H1F        5.2046    4.8023    4.3401 H         1 RES1    0.0000
     27 C4F        6.1989    3.2371    5.0945 C.ar      1 RES1    0.0000
     28 H2F        7.0301    3.4522    4.6879 H         1 RES1    0.0000
     29 C5F        6.0907    2.0866    5.9118 C.ar      1 RES1    0.0000
     30 H3F        6.8536    1.5378    6.0550 H         1 RES1    0.0000
     31 C6F        4.9072    1.7582    6.4940 C.ar      1 RES1    0.0000
     32 H4F        4.8540    0.9802    7.0355 H         1 RES1    0.0000
     33 C7F        3.7388    2.5636    6.3061 C.ar      1 RES1    0.0000
     34 C8F        2.8589    5.7730    4.4244 C.ar      1 RES1    0.0000
     35 C9F        3.6331    6.8406    4.8661 C.ar      1 RES1    0.0000
     36 H5F        4.0606    6.7910    5.7132 H         1 RES1    0.0000
     37 C10F       3.7887    7.9791    4.0840 C.ar      1 RES1    0.0000
     38 H6F        4.3333    8.6946    4.3898 H         1 RES1    0.0000
     39 C11F       3.1522    8.0694    2.8615 C.ar      1 RES1    0.0000
     40 H7F        3.2534    8.8486    2.3270 H         1 RES1    0.0000
     41 C12F       2.3688    7.0230    2.4189 C.ar      1 RES1    0.0000
     42 H8F        1.9243    7.0867    1.5816 H         1 RES1    0.0000
     43 C13F       2.2252    5.8770    3.1891 C.ar      1 RES1    0.0000
     44 H9F        1.6912    5.1587    2.8712 H         1 RES1    0.0000
@<TRIPOS>BOND
     1    1    2 ar
     2    2    3 ar
     3    3    4 1
     4    5    3 ar
     5    6    5 1
     6    7    5 ar
     7    8    7 1
     8    9    7 ar
     9   10    9 1
    10   11    2 ar
    11   12    1 1
    12   13   12 ar
    13   14   13 1
    14   15   13 ar
    15   16   15 1
    16   17   15 ar
    17   18   17 1
    18   19   17 ar
    19   20   19 1
    20   21   12 ar
    21   22   21 1
    22   23   11 ar
    23   24   23 ar
    24   25   24 ar
    25   26   25 1
    26   27   25 ar
    27   28   27 1
    28   29   27 ar
    29   30   29 1
    30   31   29 ar
    31   32   31 1
    32   33    1 ar
    33   34   23 1
    34   35   34 ar
    35   36   35 1
    36   37   35 ar
    37   38   37 1
    38   39   37 ar
    39   40   39 1
    40   41   39 ar
    41   42   41 1
    42   43   34 ar
    43   44   43 1
    44    9   11 ar
    45   19   21 ar
    46   24   33 ar
    47   31   33 ar
    48   41   43 ar
@<TRIPOS>SUBSTRUCTURE
     1 RES1 1

@<TRIPOS>CRYSIN
  10.5960   13.5010   12.1200  90.0000  90.3800  90.0000  15 1

