# MOL2 file generated by ConQuest
# Please check atom types

@<TRIPOS>MOLECULE
DPANTR01
    44    48     1
SMALL
NO_CHARGES
****
Generated from CSD

@<TRIPOS>ATOM
      1 C1         0.1651    4.0263    1.1852 C.ar      1 RES1    0.0000
      2 C2         2.4160    5.7840    1.6411 C.ar      1 RES1    0.0000
      3 C3        -0.9056    3.2254    0.9830 C.ar      1 RES1    0.0000
      4 C4         3.0388    5.8897    2.8852 C.ar      1 RES1    0.0000
      5 C5        -0.8006    2.0884    0.1642 C.ar      1 RES1    0.0000
      6 C6         2.8885    7.0267    3.6475 C.ar      1 RES1    0.0000
      7 C7         0.3993    1.7685   -0.4241 C.ar      1 RES1    0.0000
      8 C8         2.1171    8.0702    3.2038 C.ar      1 RES1    0.0000
      9 C9         1.4897    7.9835    1.9831 C.ar      1 RES1    0.0000
     10 C10        1.6488    6.8505    1.2011 C.ar      1 RES1    0.0000
     11 C11        2.5595    4.5575    0.8114 C.ar      1 RES1    0.0000
     12 C12        1.4335    3.7417    0.5822 C.ar      1 RES1    0.0000
     13 C13        1.5428    2.5695   -0.2427 C.ar      1 RES1    0.0000
     14 H1         0.0794    4.8381    1.7772 H         1 RES1    0.0000
     15 H2        -1.7546    3.4287    1.4095 H         1 RES1    0.0000
     16 H3         3.6129    5.1362    3.1867 H         1 RES1    0.0000
     17 H4        -1.6023    1.5314   -0.0123 H         1 RES1    0.0000
     18 H5         3.3339    7.0741    4.4491 H         1 RES1    0.0000
     19 H6         0.4578    0.9351   -0.9683 H         1 RES1    0.0000
     20 H7         2.0159    8.8495    3.7382 H         1 RES1    0.0000
     21 H8         0.9031    8.7004    1.6546 H         1 RES1    0.0000
     22 H9         1.2252    6.8031    0.3554 H         1 RES1    0.0000
     23 C11E       2.7820    2.2185   -0.8114 C.ar      1 RES1    0.0000
     24 C2E        2.9255    0.9920   -1.6411 C.ar      1 RES1    0.0000
     25 C4E        2.3027    0.8863   -2.8852 C.ar      1 RES1    0.0000
     26 C6E        2.4530   -0.2507   -3.6475 C.ar      1 RES1    0.0000
     27 C8E        3.2244   -1.2942   -3.2038 C.ar      1 RES1    0.0000
     28 C9E        3.8518   -1.2075   -1.9831 C.ar      1 RES1    0.0000
     29 C10E       3.6927   -0.0745   -1.2011 C.ar      1 RES1    0.0000
     30 H9E        4.1163   -0.0271   -0.3554 H         1 RES1    0.0000
     31 H8E        4.4384   -1.9244   -1.6546 H         1 RES1    0.0000
     32 H7E        3.3256   -2.0735   -3.7382 H         1 RES1    0.0000
     33 H5E        2.0076   -0.2981   -4.4491 H         1 RES1    0.0000
     34 H3E        1.7286    1.6398   -3.1867 H         1 RES1    0.0000
     35 C12E       3.9080    3.0343   -0.5822 C.ar      1 RES1    0.0000
     36 C1E        5.1764    2.7497   -1.1852 C.ar      1 RES1    0.0000
     37 C3E        6.2471    3.5506   -0.9830 C.ar      1 RES1    0.0000
     38 C5E        6.1421    4.6876   -0.1642 C.ar      1 RES1    0.0000
     39 C7E        4.9422    5.0075    0.4241 C.ar      1 RES1    0.0000
     40 C13E       3.7987    4.2065    0.2427 C.ar      1 RES1    0.0000
     41 H6E        4.8837    5.8409    0.9683 H         1 RES1    0.0000
     42 H4E        6.9438    5.2446    0.0123 H         1 RES1    0.0000
     43 H2E        7.0961    3.3473   -1.4095 H         1 RES1    0.0000
     44 H1E        5.2621    1.9379   -1.7772 H         1 RES1    0.0000
@<TRIPOS>BOND
     1    1    3 ar
     2    2    4 ar
     3    3    5 ar
     4    4    6 ar
     5    5    7 ar
     6    6    8 ar
     7    7   13 ar
     8    8    9 ar
     9    9   10 ar
    10   10    2 ar
    11   11    2 1
    12   12    1 ar
    13   13   12 ar
    14   14    1 1
    15   15    3 1
    16   16    4 1
    17   17    5 1
    18   18    6 1
    19   19    7 1
    20   20    8 1
    21   21    9 1
    22   22   10 1
    23   23   13 ar
    24   24   23 1
    25   25   24 ar
    26   26   25 ar
    27   27   26 ar
    28   28   27 ar
    29   29   24 ar
    30   30   29 1
    31   31   28 1
    32   32   27 1
    33   33   26 1
    34   34   25 1
    35   35   23 ar
    36   36   35 ar
    37   37   36 ar
    38   38   37 ar
    39   39   38 ar
    40   40   11 ar
    41   41   39 1
    42   42   38 1
    43   43   37 1
    44   44   36 1
    45   11   12 ar
    46   28   29 ar
    47   35   40 ar
    48   39   40 ar
@<TRIPOS>SUBSTRUCTURE
     1 RES1 1

@<TRIPOS>CRYSIN
  10.6830   13.5520   12.2570  90.0000  90.5400  90.0000  15 1

