# MOL2 file generated by ConQuest
# Please check atom types

@<TRIPOS>MOLECULE
DPANAP10
    42    46     1
SMALL
NO_CHARGES
****
Generated from CSD

@<TRIPOS>ATOM
      1 C1         3.3305   -1.2325   -0.8171 C.ar      1 RES1    0.0000
      2 C2         3.0424   -1.9741    0.3133 C.ar      1 RES1    0.0000
      3 C3         2.2137   -1.5255    1.3601 C.ar      1 RES1    0.0000
      4 C4         1.6642   -0.2872    1.2634 C.ar      1 RES1    0.0000
      5 C5         1.2707    1.7363    0.1793 C.ar      1 RES1    0.0000
      6 C6         1.4209    2.6097   -0.8513 C.ar      1 RES1    0.0000
      7 C7         2.2921    2.2622   -1.9001 C.ar      1 RES1    0.0000
      8 C8         2.9874    1.0737   -1.9676 C.ar      1 RES1    0.0000
      9 C9         2.7987    0.0971   -0.9269 C.ar      1 RES1    0.0000
     10 C10        1.9526    0.5021    0.1350 C.ar      1 RES1    0.0000
     11 C11        0.7333    0.4827    2.1782 C.3       1 RES1    0.0000
     12 C12        0.4427    1.8047    1.4427 C.3       1 RES1    0.0000
     13 C13        4.1234   -1.9203   -1.8719 C.ar      1 RES1    0.0000
     14 C14        5.3727   -2.4607   -1.5717 C.ar      1 RES1    0.0000
     15 C15        6.0887   -3.1481   -2.5379 C.ar      1 RES1    0.0000
     16 C16        5.5769   -3.3130   -3.8043 C.ar      1 RES1    0.0000
     17 C17        4.3384   -2.7855   -4.1126 C.ar      1 RES1    0.0000
     18 C18        3.6125   -2.1052   -3.1514 C.ar      1 RES1    0.0000
     19 C19        3.9202    0.9182   -3.1202 C.ar      1 RES1    0.0000
     20 C20        5.2734    0.6887   -2.9288 C.ar      1 RES1    0.0000
     21 C21        6.1278    0.5920   -4.0128 C.ar      1 RES1    0.0000
     22 C22        5.6527    0.7300   -5.2984 C.ar      1 RES1    0.0000
     23 C23        4.3157    0.9752   -5.5039 C.ar      1 RES1    0.0000
     24 C24        3.4557    1.0730   -4.4239 C.ar      1 RES1    0.0000
     25 H1         1.1694    0.6341    3.0728 H         1 RES1    0.0000
     26 H2        -0.0922   -0.0493    2.3575 H         1 RES1    0.0000
     27 H3        -0.5517    1.9390    1.2191 H         1 RES1    0.0000
     28 H4         0.7033    2.6200    1.9747 H         1 RES1    0.0000
     29 H5         3.4212   -2.8964    0.3828 H         1 RES1    0.0000
     30 H6         2.0782   -2.1334    2.1661 H         1 RES1    0.0000
     31 H7         0.9310    3.5038   -0.8664 H         1 RES1    0.0000
     32 H8         2.4474    2.9432   -2.6295 H         1 RES1    0.0000
     33 H9         5.7452   -2.3518   -0.6448 H         1 RES1    0.0000
     34 H10        7.0227   -3.5167   -2.3172 H         1 RES1    0.0000
     35 H11        6.1109   -3.8214   -4.5135 H         1 RES1    0.0000
     36 H12        3.9508   -2.8637   -5.0274 H         1 RES1    0.0000
     37 H13        2.7061   -1.7368   -3.3751 H         1 RES1    0.0000
     38 H14        5.6189    0.6002   -1.9948 H         1 RES1    0.0000
     39 H15        7.1070    0.3822   -3.8587 H         1 RES1    0.0000
     40 H16        6.2938    0.6483   -6.1054 H         1 RES1    0.0000
     41 H17        3.9661    1.1144   -6.4479 H         1 RES1    0.0000
     42 H18        2.5016    1.2719   -4.5538 H         1 RES1    0.0000
@<TRIPOS>BOND
     1    1    2 ar
     2    2    3 ar
     3    3    4 ar
     4    4   10 ar
     5    5    6 ar
     6    6    7 ar
     7    7    8 ar
     8    8    9 ar
     9    9    1 ar
    10   10    5 ar
    11   11    4 1
    12   12    5 1
    13   13    1 1
    14   14   13 ar
    15   15   14 ar
    16   16   15 ar
    17   17   16 ar
    18   18   13 ar
    19   19    8 1
    20   20   19 ar
    21   21   20 ar
    22   22   21 ar
    23   23   22 ar
    24   24   19 ar
    25   25   11 1
    26   26   11 1
    27   27   12 1
    28   28   12 1
    29   29    2 1
    30   30    3 1
    31   31    6 1
    32   32    7 1
    33   33   14 1
    34   34   15 1
    35   35   16 1
    36   36   17 1
    37   37   18 1
    38   38   20 1
    39   39   21 1
    40   40   22 1
    41   41   23 1
    42   42   24 1
    43    9   10 ar
    44   11   12 1
    45   17   18 ar
    46   23   24 ar
@<TRIPOS>SUBSTRUCTURE
     1 RES1 1

@<TRIPOS>CRYSIN
  10.4930    7.8610   11.5670  71.2500 113.4300  94.9000   2 1

