# MOL2 file generated by ConQuest
# Please check atom types

@<TRIPOS>MOLECULE
DPANTR10
    88    96     2
SMALL
NO_CHARGES
****
Generated from CSD

@<TRIPOS>ATOM
      1 C1         0.4112   -2.3009   -3.6944 C.ar      1 RES1    0.0000
      2 C2         0.5661   -0.1167   -4.9172 C.ar      1 RES1    0.0000
      3 C3         2.5755   -1.0327   -3.8959 C.ar      1 RES1    0.0000
      4 C4         1.2077   -1.1370   -4.1925 C.ar      1 RES1    0.0000
      5 C5         0.5386   -3.5740   -4.2425 C.ar      1 RES1    0.0000
      6 C6         4.5718   -1.9233   -2.8274 C.ar      1 RES1    0.0000
      7 C7        -1.2616   -3.1634   -2.1841 C.ar      1 RES1    0.0000
      8 C8        -0.4921   -2.1165   -2.6610 C.ar      1 RES1    0.0000
      9 C9         3.2619   -2.0374   -3.1472 C.ar      1 RES1    0.0000
     10 C10       -0.8142   -0.1971   -5.2878 C.ar      1 RES1    0.0000
     11 C11       -1.1346   -4.4215   -2.7470 C.ar      1 RES1    0.0000
     12 C12       -1.4176    0.7830   -6.0088 C.ar      1 RES1    0.0000
     13 C13       -0.2322   -4.6265   -3.7692 C.ar      1 RES1    0.0000
     14 H1         1.1767   -3.7196   -4.9597 H         1 RES1    0.0000
     15 H2         5.0144   -2.6174   -2.3264 H         1 RES1    0.0000
     16 H3        -1.8850   -3.0200   -1.4567 H         1 RES1    0.0000
     17 H4        -0.5830   -1.2365   -2.2626 H         1 RES1    0.0000
     18 H5         2.7677   -2.8329   -2.8644 H         1 RES1    0.0000
     19 H6        -1.3294   -0.9701   -5.0179 H         1 RES1    0.0000
     20 H7        -1.6717   -5.1493   -2.4318 H         1 RES1    0.0000
     21 H8        -2.3498    0.6955   -6.2445 H         1 RES1    0.0000
     22 H9        -0.1327   -5.5113   -4.1611 H         1 RES1    0.0000
     23 C14       -0.8472    1.0032   -0.5481 C.ar      2 RES2    0.0000
     24 C15        0.5441    1.1000   -0.7006 C.ar      2 RES2    0.0000
     25 C16        1.1522    2.2177   -1.3624 C.ar      2 RES2    0.0000
     26 C17       -1.4045   -0.0885    0.1479 C.ar      2 RES2    0.0000
     27 C18       -1.7222    2.0683   -1.1313 C.ar      2 RES2    0.0000
     28 C19       -2.8122   -0.2583    0.2967 C.ar      2 RES2    0.0000
     29 C20       -1.9466    2.1415   -2.4974 C.ar      2 RES2    0.0000
     30 C21        2.4939    2.3377   -1.4622 C.ar      2 RES2    0.0000
     31 C22       -2.7414    3.1441   -3.0353 C.ar      2 RES2    0.0000
     32 C23       -3.3416   -1.3435    0.9243 C.ar      2 RES2    0.0000
     33 C24       -3.3223    4.0849   -2.2247 C.ar      2 RES2    0.0000
     34 C25       -2.3103    3.0325   -0.3281 C.ar      2 RES2    0.0000
     35 C26       -3.1050    4.0294   -0.8707 C.ar      2 RES2    0.0000
     36 H10        0.5854    2.9123   -1.7275 H         2 RES2    0.0000
     37 H11       -3.3989    0.4128   -0.0592 H         2 RES2    0.0000
     38 H12       -1.5426    1.4866   -3.0695 H         2 RES2    0.0000
     39 H13        2.8812    3.1075   -1.9068 H         2 RES2    0.0000
     40 H14       -2.8828    3.1746   -3.9874 H         2 RES2    0.0000
     41 H15       -4.2986   -1.4399    1.0038 H         2 RES2    0.0000
     42 H16       -3.8830    4.7711   -2.5954 H         2 RES2    0.0000
     43 H17       -2.1529    2.9997    0.6128 H         2 RES2    0.0000
     44 H18       -3.5022    4.6714   -0.2902 H         2 RES2    0.0000
     45 C1B        3.4745    2.3009   -5.5485 C.ar      1 RES1    0.0000
     46 C2B        3.3196    0.1167   -4.3256 C.ar      1 RES1    0.0000
     47 C3B        1.3102    1.0327   -5.3470 C.ar      1 RES1    0.0000
     48 C4B        2.6780    1.1370   -5.0503 C.ar      1 RES1    0.0000
     49 C5B        3.3471    3.5740   -5.0004 C.ar      1 RES1    0.0000
     50 C6B       -0.6861    1.9233   -6.4155 C.ar      1 RES1    0.0000
     51 C7B        5.1473    3.1634   -7.0588 C.ar      1 RES1    0.0000
     52 C8B        4.3778    2.1165   -6.5818 C.ar      1 RES1    0.0000
     53 C9B        0.6239    2.0374   -6.0956 C.ar      1 RES1    0.0000
     54 C10B       4.6999    0.1971   -3.9550 C.ar      1 RES1    0.0000
     55 C11B       5.0203    4.4215   -6.4959 C.ar      1 RES1    0.0000
     56 C12B       5.3033   -0.7830   -3.2341 C.ar      1 RES1    0.0000
     57 C13B       4.1179    4.6265   -5.4736 C.ar      1 RES1    0.0000
     58 H1B        2.7091    3.7196   -4.2831 H         1 RES1    0.0000
     59 H2B       -1.1287    2.6174   -6.9164 H         1 RES1    0.0000
     60 H3B        5.7708    3.0200   -7.7862 H         1 RES1    0.0000
     61 H4B        4.4687    1.2365   -6.9802 H         1 RES1    0.0000
     62 H5B        1.1180    2.8329   -6.3785 H         1 RES1    0.0000
     63 H6B        5.2151    0.9701   -4.2249 H         1 RES1    0.0000
     64 H7B        5.5574    5.1493   -6.8110 H         1 RES1    0.0000
     65 H8B        6.2355   -0.6955   -2.9984 H         1 RES1    0.0000
     66 H9B        4.0184    5.5113   -5.0817 H         1 RES1    0.0000
     67 C14B       0.8472   -1.0032    0.5481 C.ar      2 RES2    0.0000
     68 C15B      -0.5441   -1.1000    0.7006 C.ar      2 RES2    0.0000
     69 C16B      -1.1522   -2.2177    1.3624 C.ar      2 RES2    0.0000
     70 C17B       1.4045    0.0885   -0.1479 C.ar      2 RES2    0.0000
     71 C18B       1.7222   -2.0683    1.1313 C.ar      2 RES2    0.0000
     72 C19B       2.8122    0.2583   -0.2967 C.ar      2 RES2    0.0000
     73 C20B       1.9466   -2.1415    2.4974 C.ar      2 RES2    0.0000
     74 C21B      -2.4939   -2.3377    1.4622 C.ar      2 RES2    0.0000
     75 C22B       2.7414   -3.1441    3.0353 C.ar      2 RES2    0.0000
     76 C23B       3.3416    1.3435   -0.9243 C.ar      2 RES2    0.0000
     77 C24B       3.3223   -4.0849    2.2247 C.ar      2 RES2    0.0000
     78 C25B       2.3103   -3.0325    0.3281 C.ar      2 RES2    0.0000
     79 C26B       3.1050   -4.0294    0.8707 C.ar      2 RES2    0.0000
     80 H10B      -0.5854   -2.9123    1.7275 H         2 RES2    0.0000
     81 H11B       3.3989   -0.4128    0.0592 H         2 RES2    0.0000
     82 H12B       1.5426   -1.4866    3.0695 H         2 RES2    0.0000
     83 H13B      -2.8812   -3.1075    1.9068 H         2 RES2    0.0000
     84 H14B       2.8828   -3.1746    3.9874 H         2 RES2    0.0000
     85 H15B       4.2986    1.4399   -1.0038 H         2 RES2    0.0000
     86 H16B       3.8830   -4.7711    2.5954 H         2 RES2    0.0000
     87 H17B       2.1529   -2.9997   -0.6128 H         2 RES2    0.0000
     88 H18B       3.5022   -4.6714    0.2902 H         2 RES2    0.0000
@<TRIPOS>BOND
     1    1    4 1
     2    2    4 ar
     3    3    4 ar
     4    5    1 ar
     5    6    9 ar
     6    7    8 ar
     7    8    1 ar
     8    9    3 ar
     9   10    2 ar
    10   11    7 ar
    11   12   10 ar
    12   13    5 ar
    13   14    5 1
    14   15    6 1
    15   16    7 1
    16   17    8 1
    17   18    9 1
    18   19   10 1
    19   20   11 1
    20   21   12 1
    21   22   13 1
    22   23   24 ar
    23   24   25 ar
    24   25   30 ar
    25   26   23 ar
    26   27   23 1
    27   28   26 ar
    28   29   27 ar
    29   30   39 1
    30   31   29 ar
    31   32   28 ar
    32   33   31 ar
    33   34   27 ar
    34   35   33 ar
    35   36   25 1
    36   37   28 1
    37   38   29 1
    38   40   31 1
    39   41   32 1
    40   42   33 1
    41   43   34 1
    42   44   35 1
    43   45   48 1
    44   46    3 ar
    45   47    2 ar
    46   48   46 ar
    47   49   45 ar
    48   50   12 ar
    49   51   52 ar
    50   52   45 ar
    51   53   47 ar
    52   54   46 ar
    53   55   51 ar
    54   56    6 ar
    55   57   49 ar
    56   58   49 1
    57   59   50 1
    58   60   51 1
    59   61   52 1
    60   62   53 1
    61   63   54 1
    62   64   55 1
    63   65   56 1
    64   66   57 1
    65   67   68 ar
    66   68   26 ar
    67   69   68 ar
    68   70   24 ar
    69   71   67 1
    70   72   70 ar
    71   73   71 ar
    72   74   32 ar
    73   75   73 ar
    74   76   30 ar
    75   77   75 ar
    76   78   71 ar
    77   79   77 ar
    78   80   69 1
    79   81   72 1
    80   82   73 1
    81   83   74 1
    82   84   75 1
    83   85   76 1
    84   86   77 1
    85   87   78 1
    86   88   79 1
    87   11   13 ar
    88   34   35 ar
    89   47   48 ar
    90   50   53 ar
    91   54   56 ar
    92   55   57 ar
    93   67   70 ar
    94   69   74 ar
    95   72   76 ar
    96   78   79 ar
@<TRIPOS>SUBSTRUCTURE
     1 RES1 1
     2 RES2 23

@<TRIPOS>CRYSIN
   9.4528   20.3370   10.0264  90.0000 112.8020  90.0000  14 2

