# MOL2 file generated by ConQuest
# Please check atom types

@<TRIPOS>MOLECULE
DPANTR07
    44    48     1
SMALL
NO_CHARGES
****
Generated from CSD

@<TRIPOS>ATOM
      1 C1         0.1894    1.7108   -0.4311 C.ar      1 RES1    0.0000
      2 H1         0.2277    0.9442   -0.9566 H         1 RES1    0.0000
      3 C2        -0.9700    2.0501    0.1501 C.ar      1 RES1    0.0000
      4 H2        -1.7176    1.5136    0.0171 H         1 RES1    0.0000
      5 C3         1.2560    3.6702    0.5642 C.ar      1 RES1    0.0000
      6 C4        -0.0052    3.9844    1.1317 C.ar      1 RES1    0.0000
      7 H3        -0.0891    4.7577    1.6401 H         1 RES1    0.0000
      8 C5        -1.0832    3.2007    0.9566 C.ar      1 RES1    0.0000
      9 H4        -1.8928    3.4137    1.3615 H         1 RES1    0.0000
     10 C6         2.4137    4.4408    0.7894 C.ar      1 RES1    0.0000
     11 C7         1.3637    2.4985   -0.2616 C.ar      1 RES1    0.0000
     12 C8         2.2987    5.6834    1.6026 C.ar      1 RES1    0.0000
     13 C9         3.0085    5.8268    2.7741 C.ar      1 RES1    0.0000
     14 H5         3.5473    5.1272    3.0653 H         1 RES1    0.0000
     15 C10        2.9391    6.9813    3.5282 C.ar      1 RES1    0.0000
     16 H6         3.4515    7.0773    4.2982 H         1 RES1    0.0000
     17 C11        2.0906    7.9926    3.1131 C.ar      1 RES1    0.0000
     18 H7         2.0030    8.7592    3.6329 H         1 RES1    0.0000
     19 C12        1.3800    7.8821    1.9484 C.ar      1 RES1    0.0000
     20 H8         0.8334    8.5804    1.6674 H         1 RES1    0.0000
     21 C13        1.4775    6.7302    1.1943 C.ar      1 RES1    0.0000
     22 H9         0.9898    6.6526    0.4061 H         1 RES1    0.0000
     23 C1F        4.8311    4.8642    0.4311 C.ar      1 RES1    0.0000
     24 H1F        4.7928    5.6308    0.9566 H         1 RES1    0.0000
     25 C2F        5.9905    4.5249   -0.1501 C.ar      1 RES1    0.0000
     26 H2F        6.7381    5.0614   -0.0171 H         1 RES1    0.0000
     27 C3F        3.7645    2.9048   -0.5642 C.ar      1 RES1    0.0000
     28 C4F        5.0257    2.5906   -1.1317 C.ar      1 RES1    0.0000
     29 H3F        5.1096    1.8173   -1.6401 H         1 RES1    0.0000
     30 C5F        6.1037    3.3743   -0.9566 C.ar      1 RES1    0.0000
     31 H4F        6.9133    3.1613   -1.3615 H         1 RES1    0.0000
     32 C6F        2.6068    2.1342   -0.7894 C.ar      1 RES1    0.0000
     33 C7F        3.6568    4.0765    0.2616 C.ar      1 RES1    0.0000
     34 C8F        2.7218    0.8916   -1.6026 C.ar      1 RES1    0.0000
     35 C9F        2.0120    0.7482   -2.7741 C.ar      1 RES1    0.0000
     36 H5F        1.4732    1.4478   -3.0653 H         1 RES1    0.0000
     37 C10F       2.0814   -0.4063   -3.5282 C.ar      1 RES1    0.0000
     38 H6F        1.5690   -0.5023   -4.2982 H         1 RES1    0.0000
     39 C11F       2.9299   -1.4176   -3.1131 C.ar      1 RES1    0.0000
     40 H7F        3.0175   -2.1842   -3.6329 H         1 RES1    0.0000
     41 C12F       3.6405   -1.3071   -1.9484 C.ar      1 RES1    0.0000
     42 H8F        4.1871   -2.0054   -1.6674 H         1 RES1    0.0000
     43 C13F       3.5430   -0.1552   -1.1943 C.ar      1 RES1    0.0000
     44 H9F        4.0307   -0.0776   -0.4061 H         1 RES1    0.0000
@<TRIPOS>BOND
     1    1    2 1
     2    3    1 ar
     3    4    3 1
     4    5    6 ar
     5    6    7 1
     6    8    3 ar
     7    9    8 1
     8   10    5 ar
     9   11    1 ar
    10   12   10 1
    11   13   12 ar
    12   14   13 1
    13   15   13 ar
    14   16   15 1
    15   17   15 ar
    16   18   17 1
    17   19   17 ar
    18   20   19 1
    19   21   12 ar
    20   22   21 1
    21   23   24 1
    22   25   23 ar
    23   26   25 1
    24   27   28 ar
    25   28   29 1
    26   30   25 ar
    27   31   30 1
    28   32   11 ar
    29   33   10 ar
    30   34   32 1
    31   35   34 ar
    32   36   35 1
    33   37   35 ar
    34   38   37 1
    35   39   37 ar
    36   40   39 1
    37   41   39 ar
    38   42   41 1
    39   43   34 ar
    40   44   43 1
    41    5   11 ar
    42    6    8 ar
    43   19   21 ar
    44   23   33 ar
    45   27   32 ar
    46   27   33 ar
    47   28   30 ar
    48   41   43 ar
@<TRIPOS>SUBSTRUCTURE
     1 RES1 1

@<TRIPOS>CRYSIN
  10.0410   13.1500   11.3780  90.0000  88.4830  90.0000  15 1

