# MOL2 file generated by ConQuest
# Please check atom types

@<TRIPOS>MOLECULE
DPANTR04
    44    48     1
SMALL
NO_CHARGES
****
Generated from CSD

@<TRIPOS>ATOM
      1 C1         1.3730    3.0087   12.6439 C.ar      1 RES1    0.0000
      2 C2         0.1035    2.7105   13.2391 C.ar      1 RES1    0.0000
      3 H1         0.0166    1.9409   13.7885 H         1 RES1    0.0000
      4 C3        -0.9791    3.5066   13.0341 C.ar      1 RES1    0.0000
      5 H2        -1.8103    3.2888   13.4395 H         1 RES1    0.0000
      6 C4        -0.8722    4.6608   12.2185 C.ar      1 RES1    0.0000
      7 H3        -1.6351    5.2081   12.0761 H         1 RES1    0.0000
      8 C5         0.3115    4.9916   11.6388 C.ar      1 RES1    0.0000
      9 H4         0.3639    5.7713   11.0979 H         1 RES1    0.0000
     10 C6         1.4848    4.1867   11.8272 C.ar      1 RES1    0.0000
     11 C7         2.7294    4.5474   11.2727 C.ar      1 RES1    0.0000
     12 C8         2.8622    5.7800   10.4402 C.ar      1 RES1    0.0000
     13 C9         2.2195    5.8832    9.2044 C.ar      1 RES1    0.0000
     14 H5         1.6853    5.1635    8.8892 H         1 RES1    0.0000
     15 C10        2.3564    7.0318    8.4327 C.ar      1 RES1    0.0000
     16 H6         1.9059    7.0977    7.5983 H         1 RES1    0.0000
     17 C11        3.1463    8.0817    8.8741 C.ar      1 RES1    0.0000
     18 H7         3.2455    8.8616    8.3397 H         1 RES1    0.0000
     19 C12        3.7924    7.9911   10.0991 C.ar      1 RES1    0.0000
     20 H8         4.3358    8.7090   10.4047 H         1 RES1    0.0000
     21 C13        3.6443    6.8493   10.8791 C.ar      1 RES1    0.0000
     22 H9         4.0814    6.7965   11.7210 H         1 RES1    0.0000
     23 C1F        3.8648    3.7445   11.5083 C.ar      1 RES1    0.0000
     24 C2F        5.1343    4.0428   10.9130 C.ar      1 RES1    0.0000
     25 H1F        5.2212    4.8124   10.3637 H         1 RES1    0.0000
     26 C3F        6.2169    3.2467   11.1181 C.ar      1 RES1    0.0000
     27 H2F        7.0482    3.4644   10.7127 H         1 RES1    0.0000
     28 C4F        6.1100    2.0924   11.9337 C.ar      1 RES1    0.0000
     29 H3F        6.8729    1.5451   12.0761 H         1 RES1    0.0000
     30 C5F        4.9263    1.7617   12.5133 C.ar      1 RES1    0.0000
     31 H4F        4.8739    0.9819   13.0542 H         1 RES1    0.0000
     32 C6F        3.7531    2.5665   12.3250 C.ar      1 RES1    0.0000
     33 C7F        2.5084    2.2059   12.8795 C.ar      1 RES1    0.0000
     34 C8F        2.3756    0.9733   13.7119 C.ar      1 RES1    0.0000
     35 C9F        3.0183    0.8701   14.9478 C.ar      1 RES1    0.0000
     36 H5F        3.5525    1.5897   15.2629 H         1 RES1    0.0000
     37 C10F       2.8814   -0.2785   15.7194 C.ar      1 RES1    0.0000
     38 H6F        3.3319   -0.3444   16.5539 H         1 RES1    0.0000
     39 C11F       2.0915   -1.3285   15.2780 C.ar      1 RES1    0.0000
     40 H7F        1.9923   -2.1084   15.8124 H         1 RES1    0.0000
     41 C12F       1.4454   -1.2379   14.0530 C.ar      1 RES1    0.0000
     42 H8F        0.9020   -1.9557   13.7474 H         1 RES1    0.0000
     43 C13F       1.5935   -0.0960   13.2731 C.ar      1 RES1    0.0000
     44 H9F        1.1565   -0.0432   12.4311 H         1 RES1    0.0000
@<TRIPOS>BOND
     1    1    2 ar
     2    2    3 1
     3    4    2 ar
     4    5    4 1
     5    6    4 ar
     6    7    6 1
     7    8    6 ar
     8    9    8 1
     9   10    1 ar
    10   11   10 ar
    11   12   11 1
    12   13   12 ar
    13   14   13 1
    14   15   13 ar
    15   16   15 1
    16   17   15 ar
    17   18   17 1
    18   19   17 ar
    19   20   19 1
    20   21   12 ar
    21   22   21 1
    22   23   11 ar
    23   24   23 ar
    24   25   24 1
    25   26   24 ar
    26   27   26 1
    27   28   26 ar
    28   29   28 1
    29   30   28 ar
    30   31   30 1
    31   32   23 ar
    32   33    1 ar
    33   34   33 1
    34   35   34 ar
    35   36   35 1
    36   37   35 ar
    37   38   37 1
    38   39   37 ar
    39   40   39 1
    40   41   39 ar
    41   42   41 1
    42   43   34 ar
    43   44   43 1
    44    8   10 ar
    45   19   21 ar
    46   30   32 ar
    47   32   33 ar
    48   41   43 ar
@<TRIPOS>SUBSTRUCTURE
     1 RES1 1

@<TRIPOS>CRYSIN
  10.5768   13.5065   12.0761  90.0000  90.1200  90.0000  15 1

