# MOL2 file generated by ConQuest
# Please check atom types

@<TRIPOS>MOLECULE
DPANTR08
    88    96     2
SMALL
NO_CHARGES
****
Generated from CSD

@<TRIPOS>ATOM
      1 C1         0.3753   -2.2997   -3.7458 C.ar      1 RES1    0.0000
      2 C2         0.5381   -0.1143   -4.9647 C.ar      1 RES1    0.0000
      3 C3         2.5408   -1.0339   -3.9358 C.ar      1 RES1    0.0000
      4 C4         1.1732   -1.1327   -4.2370 C.ar      1 RES1    0.0000
      5 C5         0.4910   -3.5617   -4.3103 C.ar      1 RES1    0.0000
      6 C6         4.5325   -1.9276   -2.8735 C.ar      1 RES1    0.0000
      7 C7        -1.2852   -3.1791   -2.2382 C.ar      1 RES1    0.0000
      8 C8        -0.5144   -2.1289   -2.7047 C.ar      1 RES1    0.0000
      9 C9         3.2253   -2.0346   -3.1851 C.ar      1 RES1    0.0000
     10 C10       -0.8405   -0.1843   -5.3337 C.ar      1 RES1    0.0000
     11 C11       -1.1643   -4.4206   -2.8175 C.ar      1 RES1    0.0000
     12 C12       -1.4397    0.7973   -6.0447 C.ar      1 RES1    0.0000
     13 C13       -0.2803   -4.6137   -3.8447 C.ar      1 RES1    0.0000
     14 H1         1.1202   -3.6968   -5.0361 H         1 RES1    0.0000
     15 H2         4.9719   -2.6251   -2.3679 H         1 RES1    0.0000
     16 H3        -1.9082   -3.0456   -1.4974 H         1 RES1    0.0000
     17 H4        -0.5915   -1.2513   -2.3016 H         1 RES1    0.0000
     18 H5         2.7285   -2.8150   -2.9024 H         1 RES1    0.0000
     19 H6        -1.3546   -0.9533   -5.0576 H         1 RES1    0.0000
     20 H7        -1.7053   -5.1543   -2.5059 H         1 RES1    0.0000
     21 H8        -2.3732    0.7226   -6.2788 H         1 RES1    0.0000
     22 H9        -0.1961   -5.4911   -4.2422 H         1 RES1    0.0000
     23 C14       -0.8434    1.0060   -0.5486 C.ar      2 RES2    0.0000
     24 C15        0.5503    1.1045   -0.6932 C.ar      2 RES2    0.0000
     25 C16        1.1655    2.2150   -1.3500 C.ar      2 RES2    0.0000
     26 C17       -1.4038   -0.0892    0.1390 C.ar      2 RES2    0.0000
     27 C18       -1.7177    2.0717   -1.1261 C.ar      2 RES2    0.0000
     28 C19       -2.8104   -0.2582    0.2780 C.ar      2 RES2    0.0000
     29 C20       -1.9698    2.1389   -2.4817 C.ar      2 RES2    0.0000
     30 C21        2.5055    2.3285   -1.4424 C.ar      2 RES2    0.0000
     31 C22       -2.7656    3.1399   -3.0097 C.ar      2 RES2    0.0000
     32 C23       -3.3454   -1.3362    0.9012 C.ar      2 RES2    0.0000
     33 C24       -3.3147    4.0891   -2.1990 C.ar      2 RES2    0.0000
     34 C25       -2.2765    3.0493   -0.3312 C.ar      2 RES2    0.0000
     35 C26       -3.0706    4.0412   -0.8658 C.ar      2 RES2    0.0000
     36 H10        0.6044    2.9068   -1.7278 H         2 RES2    0.0000
     37 H11       -3.3931    0.4123   -0.0774 H         2 RES2    0.0000
     38 H12       -1.5750    1.4738   -3.0620 H         2 RES2    0.0000
     39 H13        2.8974    3.0987   -1.8837 H         2 RES2    0.0000
     40 H14       -2.9224    3.1742   -3.9586 H         2 RES2    0.0000
     41 H15       -4.2995   -1.4248    0.9721 H         2 RES2    0.0000
     42 H16       -3.8698    4.7726   -2.5684 H         2 RES2    0.0000
     43 H17       -2.0991    3.0272    0.6092 H         2 RES2    0.0000
     44 H18       -3.4583    4.6950   -0.2911 H         2 RES2    0.0000
     45 C1B        3.4524    2.2997   -5.5838 C.ar      1 RES1    0.0000
     46 C2B        3.2895    0.1143   -4.3650 C.ar      1 RES1    0.0000
     47 C3B        1.2869    1.0339   -5.3938 C.ar      1 RES1    0.0000
     48 C4B        2.6545    1.1327   -5.0927 C.ar      1 RES1    0.0000
     49 C5B        3.3367    3.5617   -5.0193 C.ar      1 RES1    0.0000
     50 C6B       -0.7048    1.9276   -6.4561 C.ar      1 RES1    0.0000
     51 C7B        5.1129    3.1791   -7.0914 C.ar      1 RES1    0.0000
     52 C8B        4.3421    2.1289   -6.6250 C.ar      1 RES1    0.0000
     53 C9B        0.6024    2.0346   -6.1445 C.ar      1 RES1    0.0000
     54 C10B       4.6682    0.1843   -3.9959 C.ar      1 RES1    0.0000
     55 C11B       4.9920    4.4206   -6.5121 C.ar      1 RES1    0.0000
     56 C12B       5.2674   -0.7973   -3.2850 C.ar      1 RES1    0.0000
     57 C13B       4.1080    4.6137   -5.4849 C.ar      1 RES1    0.0000
     58 H1B        2.7075    3.6968   -4.2935 H         1 RES1    0.0000
     59 H2B       -1.1442    2.6251   -6.9618 H         1 RES1    0.0000
     60 H3B        5.7359    3.0456   -7.8322 H         1 RES1    0.0000
     61 H4B        4.4192    1.2513   -7.0280 H         1 RES1    0.0000
     62 H5B        1.0992    2.8150   -6.4272 H         1 RES1    0.0000
     63 H6B        5.1823    0.9533   -4.2720 H         1 RES1    0.0000
     64 H7B        5.5330    5.1543   -6.8237 H         1 RES1    0.0000
     65 H8B        6.2009   -0.7226   -3.0508 H         1 RES1    0.0000
     66 H9B        4.0238    5.4911   -5.0874 H         1 RES1    0.0000
     67 C14B       0.8434   -1.0060    0.5486 C.ar      2 RES2    0.0000
     68 C15B      -0.5503   -1.1045    0.6932 C.ar      2 RES2    0.0000
     69 C16B      -1.1655   -2.2150    1.3500 C.ar      2 RES2    0.0000
     70 C17B       1.4038    0.0892   -0.1390 C.ar      2 RES2    0.0000
     71 C18B       1.7177   -2.0717    1.1261 C.ar      2 RES2    0.0000
     72 C19B       2.8104    0.2582   -0.2780 C.ar      2 RES2    0.0000
     73 C20B       1.9698   -2.1389    2.4817 C.ar      2 RES2    0.0000
     74 C21B      -2.5055   -2.3285    1.4424 C.ar      2 RES2    0.0000
     75 C22B       2.7656   -3.1399    3.0097 C.ar      2 RES2    0.0000
     76 C23B       3.3454    1.3362   -0.9012 C.ar      2 RES2    0.0000
     77 C24B       3.3147   -4.0891    2.1990 C.ar      2 RES2    0.0000
     78 C25B       2.2765   -3.0493    0.3312 C.ar      2 RES2    0.0000
     79 C26B       3.0706   -4.0412    0.8658 C.ar      2 RES2    0.0000
     80 H10B      -0.6044   -2.9068    1.7278 H         2 RES2    0.0000
     81 H11B       3.3931   -0.4123    0.0774 H         2 RES2    0.0000
     82 H12B       1.5750   -1.4738    3.0620 H         2 RES2    0.0000
     83 H13B      -2.8974   -3.0987    1.8837 H         2 RES2    0.0000
     84 H14B       2.9224   -3.1742    3.9586 H         2 RES2    0.0000
     85 H15B       4.2995    1.4248   -0.9721 H         2 RES2    0.0000
     86 H16B       3.8698   -4.7726    2.5684 H         2 RES2    0.0000
     87 H17B       2.0991   -3.0272   -0.6092 H         2 RES2    0.0000
     88 H18B       3.4583   -4.6950    0.2911 H         2 RES2    0.0000
@<TRIPOS>BOND
     1    1    4 1
     2    2    4 ar
     3    3    4 ar
     4    5    1 ar
     5    6    9 ar
     6    7    8 ar
     7    8    1 ar
     8    9    3 ar
     9   10    2 ar
    10   11    7 ar
    11   12   10 ar
    12   13    5 ar
    13   14    5 1
    14   15    6 1
    15   16    7 1
    16   17    8 1
    17   18    9 1
    18   19   10 1
    19   20   11 1
    20   21   12 1
    21   22   13 1
    22   23   24 ar
    23   24   25 ar
    24   25   30 ar
    25   26   23 ar
    26   27   23 1
    27   28   26 ar
    28   29   27 ar
    29   30   39 1
    30   31   29 ar
    31   32   28 ar
    32   33   31 ar
    33   34   27 ar
    34   35   33 ar
    35   36   25 1
    36   37   28 1
    37   38   29 1
    38   40   31 1
    39   41   32 1
    40   42   33 1
    41   43   34 1
    42   44   35 1
    43   45   48 1
    44   46    3 ar
    45   47    2 ar
    46   48   46 ar
    47   49   45 ar
    48   50   12 ar
    49   51   52 ar
    50   52   45 ar
    51   53   47 ar
    52   54   46 ar
    53   55   51 ar
    54   56    6 ar
    55   57   49 ar
    56   58   49 1
    57   59   50 1
    58   60   51 1
    59   61   52 1
    60   62   53 1
    61   63   54 1
    62   64   55 1
    63   65   56 1
    64   66   57 1
    65   67   68 ar
    66   68   26 ar
    67   69   68 ar
    68   70   24 ar
    69   71   67 1
    70   72   70 ar
    71   73   71 ar
    72   74   32 ar
    73   75   73 ar
    74   76   30 ar
    75   77   75 ar
    76   78   71 ar
    77   79   77 ar
    78   80   69 1
    79   81   72 1
    80   82   73 1
    81   83   74 1
    82   84   75 1
    83   85   76 1
    84   86   77 1
    85   87   78 1
    86   88   79 1
    87   11   13 ar
    88   34   35 ar
    89   47   48 ar
    90   50   53 ar
    91   54   56 ar
    92   55   57 ar
    93   67   70 ar
    94   69   74 ar
    95   72   76 ar
    96   78   79 ar
@<TRIPOS>SUBSTRUCTURE
     1 RES1 1
     2 RES2 23

@<TRIPOS>CRYSIN
   9.4976   20.4130   10.0843  90.0000 112.3070  90.0000  14 2

