# MOL2 file generated by ConQuest
# Please check atom types

@<TRIPOS>MOLECULE
DPNAPH02
    38    41     1
SMALL
NO_CHARGES
****
Generated from CSD

@<TRIPOS>ATOM
      1 C1         1.4252    4.8040    2.0048 C.ar      1 RES1    0.0000
      2 C2         2.5340    4.0621    2.3445 C.ar      1 RES1    0.0000
      3 H1         3.3282    4.5237    2.5890 H         1 RES1    0.0000
      4 C3         2.5501    2.6597    2.3462 C.ar      1 RES1    0.0000
      5 H2         3.3332    2.1857    2.6009 H         1 RES1    0.0000
      6 C4         1.4290    1.9918    1.9794 C.ar      1 RES1    0.0000
      7 H3         1.4315    1.0418    1.9861 H         1 RES1    0.0000
      8 C5        -0.8838    1.9337    1.1829 C.ar      1 RES1    0.0000
      9 H4        -0.8407    0.9857    1.1557 H         1 RES1    0.0000
     10 C6        -2.0350    2.5613    0.8330 C.ar      1 RES1    0.0000
     11 H5        -2.7993    2.0555    0.5817 H         1 RES1    0.0000
     12 C7        -2.0858    3.9561    0.8457 C.ar      1 RES1    0.0000
     13 H6        -2.9016    4.3834    0.6131 H         1 RES1    0.0000
     14 C8        -1.0034    4.7418    1.1803 C.ar      1 RES1    0.0000
     15 C9         0.2597    2.6751    1.5887 C.ar      1 RES1    0.0000
     16 C10        0.2307    4.1146    1.5938 C.ar      1 RES1    0.0000
     17 C11        1.5768    6.2911    2.1152 C.ar      1 RES1    0.0000
     18 C12        2.5184    6.9376    1.3111 C.ar      1 RES1    0.0000
     19 H7         3.0267    6.4349    0.6844 H         1 RES1    0.0000
     20 C13        2.7181    8.3087    1.4206 C.ar      1 RES1    0.0000
     21 H8         3.3485    8.7408    0.8576 H         1 RES1    0.0000
     22 C14        1.9994    9.0466    2.3487 C.ar      1 RES1    0.0000
     23 H9         2.1261    9.9849    2.4167 H         1 RES1    0.0000
     24 C15        1.0970    8.4029    3.1741 C.ar      1 RES1    0.0000
     25 H10        0.6153    8.9031    3.8237 H         1 RES1    0.0000
     26 C16        0.8858    7.0329    3.0654 C.ar      1 RES1    0.0000
     27 H11        0.2659    6.6032    3.6428 H         1 RES1    0.0000
     28 C17       -1.2121    6.2208    1.0750 C.ar      1 RES1    0.0000
     29 C18       -0.5526    6.9716    0.1197 C.ar      1 RES1    0.0000
     30 H12        0.0636    6.5491   -0.4670 H         1 RES1    0.0000
     31 C19       -0.7800    8.3363    0.0093 C.ar      1 RES1    0.0000
     32 H13       -0.3110    8.8470   -0.6403 H         1 RES1    0.0000
     33 C20       -1.6988    8.9544    0.8534 C.ar      1 RES1    0.0000
     34 H14       -1.8562    9.8888    0.7855 H         1 RES1    0.0000
     35 C21       -2.3811    8.2035    1.7900 C.ar      1 RES1    0.0000
     36 H15       -3.0069    8.6226    2.3674 H         1 RES1    0.0000
     37 C22       -2.1556    6.8410    1.8893 C.ar      1 RES1    0.0000
     38 H16       -2.6473    6.3267    2.5186 H         1 RES1    0.0000
@<TRIPOS>BOND
     1    1    2 ar
     2    2    3 1
     3    4    2 ar
     4    5    4 1
     5    6    4 ar
     6    7    6 1
     7    8    9 1
     8   10    8 ar
     9   11   10 1
    10   12   10 ar
    11   13   12 1
    12   14   12 ar
    13   15    6 ar
    14   16    1 ar
    15   17    1 1
    16   18   17 ar
    17   19   18 1
    18   20   18 ar
    19   21   20 1
    20   22   20 ar
    21   23   22 1
    22   24   22 ar
    23   25   24 1
    24   26   17 ar
    25   27   26 1
    26   28   14 1
    27   29   28 ar
    28   30   29 1
    29   31   29 ar
    30   32   31 1
    31   33   31 ar
    32   34   33 1
    33   35   33 ar
    34   36   35 1
    35   37   28 ar
    36   38   37 1
    37    8   15 ar
    38   14   16 ar
    39   15   16 ar
    40   24   26 ar
    41   35   37 ar
@<TRIPOS>SUBSTRUCTURE
     1 RES1 1

@<TRIPOS>CRYSIN
   8.5180   20.0340    9.5608  90.0000 117.3580  90.0000  14 1

