# MOL2 file generated by ConQuest
# Please check atom types

@<TRIPOS>MOLECULE
DUPXOD01
    52    57     1
SMALL
NO_CHARGES
****
Generated from CSD

@<TRIPOS>ATOM
      1 C1         0.9078    0.9078    0.9078 C.ar      1 RES1    0.0000
      2 C2         1.9861    0.0027    0.7169 C.ar      1 RES1    0.0000
      3 C3         2.8498    0.1981   -0.3873 C.ar      1 RES1    0.0000
      4 C4         2.6801    1.2584   -1.2768 C.ar      1 RES1    0.0000
      5 C5         1.6069    2.1325   -1.0883 C.ar      1 RES1    0.0000
      6 C6         3.6041    1.4313   -2.4300 C.ar      1 RES1    0.0000
      7 C7         4.9568    1.1028   -2.3312 C.ar      1 RES1    0.0000
      8 C8         5.8254    1.2962   -3.3881 C.ar      1 RES1    0.0000
      9 C9         5.3650    1.8207   -4.5764 C.ar      1 RES1    0.0000
     10 C10        4.0302    2.1440   -4.7065 C.ar      1 RES1    0.0000
     11 C11        3.1534    1.9475   -3.6468 C.ar      1 RES1    0.0000
     12 H1         3.5835   -0.4267   -0.5288 H         1 RES1    0.0000
     13 H2         1.4661    2.9097   -1.7254 H         1 RES1    0.0000
     14 H3         5.2986    0.7289   -1.4763 H         1 RES1    0.0000
     15 H4         6.8525    1.0209   -3.3670 H         1 RES1    0.0000
     16 H5         6.0194    1.9459   -5.3803 H         1 RES1    0.0000
     17 H6         3.6386    2.5033   -5.5620 H         1 RES1    0.0000
     18 H7         2.1603    2.2011   -3.8224 H         1 RES1    0.0000
     19 C2D        0.7169    1.9861    0.0027 C.ar      1 RES1    0.0000
     20 C3D       -0.3873    2.8498    0.1981 C.ar      1 RES1    0.0000
     21 C4D       -1.2768    2.6801    1.2584 C.ar      1 RES1    0.0000
     22 C5D       -1.0883    1.6069    2.1325 C.ar      1 RES1    0.0000
     23 C6D       -2.4300    3.6041    1.4313 C.ar      1 RES1    0.0000
     24 C7D       -2.3312    4.9568    1.1028 C.ar      1 RES1    0.0000
     25 C8D       -3.3881    5.8254    1.2962 C.ar      1 RES1    0.0000
     26 C9D       -4.5764    5.3650    1.8207 C.ar      1 RES1    0.0000
     27 C10D      -4.7065    4.0302    2.1440 C.ar      1 RES1    0.0000
     28 C11D      -3.6468    3.1534    1.9475 C.ar      1 RES1    0.0000
     29 H1D       -0.5288    3.5835   -0.4267 H         1 RES1    0.0000
     30 H2D       -1.7254    1.4661    2.9097 H         1 RES1    0.0000
     31 H3D       -1.4763    5.2986    0.7289 H         1 RES1    0.0000
     32 H4D       -3.3670    6.8525    1.0209 H         1 RES1    0.0000
     33 H5D       -5.3803    6.0194    1.9459 H         1 RES1    0.0000
     34 H6D       -5.5620    3.6386    2.5033 H         1 RES1    0.0000
     35 H7D       -3.8224    2.1603    2.2011 H         1 RES1    0.0000
     36 C2H        0.0027    0.7169    1.9861 C.ar      1 RES1    0.0000
     37 C3H        0.1981   -0.3873    2.8498 C.ar      1 RES1    0.0000
     38 C4H        1.2584   -1.2768    2.6801 C.ar      1 RES1    0.0000
     39 C5H        2.1325   -1.0883    1.6069 C.ar      1 RES1    0.0000
     40 C6H        1.4313   -2.4300    3.6041 C.ar      1 RES1    0.0000
     41 C7H        1.1028   -2.3312    4.9568 C.ar      1 RES1    0.0000
     42 C8H        1.2962   -3.3881    5.8254 C.ar      1 RES1    0.0000
     43 C9H        1.8207   -4.5764    5.3650 C.ar      1 RES1    0.0000
     44 C10H       2.1440   -4.7065    4.0302 C.ar      1 RES1    0.0000
     45 C11H       1.9475   -3.6468    3.1534 C.ar      1 RES1    0.0000
     46 H1H       -0.4267   -0.5288    3.5835 H         1 RES1    0.0000
     47 H2H        2.9097   -1.7254    1.4661 H         1 RES1    0.0000
     48 H3H        0.7289   -1.4763    5.2986 H         1 RES1    0.0000
     49 H4H        1.0209   -3.3670    6.8525 H         1 RES1    0.0000
     50 H5H        1.9459   -5.3803    6.0194 H         1 RES1    0.0000
     51 H6H        2.5033   -5.5620    3.6386 H         1 RES1    0.0000
     52 H7H        2.2011   -3.8224    2.1603 H         1 RES1    0.0000
@<TRIPOS>BOND
     1    1    2 ar
     2    2    3 ar
     3    3    4 ar
     4    4    5 ar
     5    5   13 1
     6    6    4 1
     7    7    6 ar
     8    8    7 ar
     9    9    8 ar
    10   10    9 ar
    11   11    6 ar
    12   12    3 1
    13   14    7 1
    14   15    8 1
    15   16    9 1
    16   17   10 1
    17   18   11 1
    18   19    1 ar
    19   20   19 ar
    20   21   20 ar
    21   22   21 ar
    22   23   21 1
    23   24   23 ar
    24   25   24 ar
    25   26   25 ar
    26   27   26 ar
    27   28   23 ar
    28   29   20 1
    29   30   22 1
    30   31   24 1
    31   32   25 1
    32   33   26 1
    33   34   27 1
    34   35   28 1
    35   36    1 ar
    36   37   36 ar
    37   38   37 ar
    38   39    2 ar
    39   40   38 1
    40   41   40 ar
    41   42   41 ar
    42   43   42 ar
    43   44   43 ar
    44   45   40 ar
    45   46   37 1
    46   47   39 1
    47   48   41 1
    48   49   42 1
    49   50   43 1
    50   51   44 1
    51   52   45 1
    52    5   19 ar
    53   10   11 ar
    54   22   36 ar
    55   27   28 ar
    56   38   39 ar
    57   44   45 ar
@<TRIPOS>SUBSTRUCTURE
     1 RES1 1

