# MOL2 file generated by ConQuest
# Please check atom types

@<TRIPOS>MOLECULE
DUPXOD
    52    57     1
SMALL
NO_CHARGES
****
Generated from CSD

@<TRIPOS>ATOM
      1 C1         0.8980    0.8980    0.8980 C.ar      1 RES1    0.0000
      2 C2        -0.0141    0.7113    1.9706 C.ar      1 RES1    0.0000
      3 C3        -1.1019    1.6015    2.1084 C.ar      1 RES1    0.0000
      4 C4        -1.2843    2.6716    1.2314 C.ar      1 RES1    0.0000
      5 C5        -0.3903    2.8349    0.1723 C.ar      1 RES1    0.0000
      6 C6        -2.4318    3.5971    1.3978 C.ar      1 RES1    0.0000
      7 C7        -3.6505    3.1464    1.9169 C.ar      1 RES1    0.0000
      8 C8        -4.7037    4.0261    2.1235 C.ar      1 RES1    0.0000
      9 C9        -4.5711    5.3689    1.8031 C.ar      1 RES1    0.0000
     10 C10       -3.3796    5.8259    1.2694 C.ar      1 RES1    0.0000
     11 C11       -2.3213    4.9499    1.0679 C.ar      1 RES1    0.0000
     12 H1        -1.7233    1.4768    2.8890 H         1 RES1    0.0000
     13 H2        -0.5354    3.5881   -0.4829 H         1 RES1    0.0000
     14 H3        -3.7881    2.1658    2.1213 H         1 RES1    0.0000
     15 H4        -5.5498    3.6709    2.5133 H         1 RES1    0.0000
     16 H5        -5.3437    6.0064    1.9536 H         1 RES1    0.0000
     17 H6        -3.2830    6.8024    1.0465 H         1 RES1    0.0000
     18 H7        -1.4506    5.2992    0.7091 H         1 RES1    0.0000
     19 C2D        1.9706   -0.0141    0.7113 C.ar      1 RES1    0.0000
     20 C3D        2.1084   -1.1019    1.6015 C.ar      1 RES1    0.0000
     21 C4D        1.2314   -1.2843    2.6716 C.ar      1 RES1    0.0000
     22 C5D        0.1723   -0.3903    2.8349 C.ar      1 RES1    0.0000
     23 C6D        1.3978   -2.4318    3.5971 C.ar      1 RES1    0.0000
     24 C7D        1.9169   -3.6505    3.1464 C.ar      1 RES1    0.0000
     25 C8D        2.1235   -4.7037    4.0261 C.ar      1 RES1    0.0000
     26 C9D        1.8031   -4.5711    5.3689 C.ar      1 RES1    0.0000
     27 C10D       1.2694   -3.3796    5.8259 C.ar      1 RES1    0.0000
     28 C11D       1.0679   -2.3213    4.9499 C.ar      1 RES1    0.0000
     29 H1D        2.8890   -1.7233    1.4768 H         1 RES1    0.0000
     30 H2D       -0.4829   -0.5354    3.5881 H         1 RES1    0.0000
     31 H3D        2.1213   -3.7881    2.1658 H         1 RES1    0.0000
     32 H4D        2.5133   -5.5498    3.6709 H         1 RES1    0.0000
     33 H5D        1.9536   -5.3437    6.0064 H         1 RES1    0.0000
     34 H6D        1.0465   -3.2830    6.8024 H         1 RES1    0.0000
     35 H7D        0.7091   -1.4506    5.2992 H         1 RES1    0.0000
     36 C2H        0.7113    1.9706   -0.0141 C.ar      1 RES1    0.0000
     37 C3H        1.6015    2.1084   -1.1019 C.ar      1 RES1    0.0000
     38 C4H        2.6716    1.2314   -1.2843 C.ar      1 RES1    0.0000
     39 C5H        2.8349    0.1723   -0.3903 C.ar      1 RES1    0.0000
     40 C6H        3.5971    1.3978   -2.4318 C.ar      1 RES1    0.0000
     41 C7H        3.1464    1.9169   -3.6505 C.ar      1 RES1    0.0000
     42 C8H        4.0261    2.1235   -4.7037 C.ar      1 RES1    0.0000
     43 C9H        5.3689    1.8031   -4.5711 C.ar      1 RES1    0.0000
     44 C10H       5.8259    1.2694   -3.3796 C.ar      1 RES1    0.0000
     45 C11H       4.9499    1.0679   -2.3213 C.ar      1 RES1    0.0000
     46 H1H        1.4768    2.8890   -1.7233 H         1 RES1    0.0000
     47 H2H        3.5881   -0.4829   -0.5354 H         1 RES1    0.0000
     48 H3H        2.1658    2.1213   -3.7881 H         1 RES1    0.0000
     49 H4H        3.6709    2.5133   -5.5498 H         1 RES1    0.0000
     50 H5H        6.0064    1.9536   -5.3437 H         1 RES1    0.0000
     51 H6H        6.8024    1.0465   -3.2830 H         1 RES1    0.0000
     52 H7H        5.2992    0.7091   -1.4506 H         1 RES1    0.0000
@<TRIPOS>BOND
     1    1    2 ar
     2    2    3 ar
     3    3    4 ar
     4    4    5 ar
     5    5   13 1
     6    6    4 1
     7    7    6 ar
     8    8    7 ar
     9    9    8 ar
    10   10    9 ar
    11   11    6 ar
    12   12    3 1
    13   14    7 1
    14   15    8 1
    15   16    9 1
    16   17   10 1
    17   18   11 1
    18   19    1 ar
    19   20   19 ar
    20   21   20 ar
    21   22    2 ar
    22   23   21 1
    23   24   23 ar
    24   25   24 ar
    25   26   25 ar
    26   27   26 ar
    27   28   23 ar
    28   29   20 1
    29   30   22 1
    30   31   24 1
    31   32   25 1
    32   33   26 1
    33   34   27 1
    34   35   28 1
    35   36    1 ar
    36   37   36 ar
    37   38   37 ar
    38   39   19 ar
    39   40   38 1
    40   41   40 ar
    41   42   41 ar
    42   43   42 ar
    43   44   43 ar
    44   45   40 ar
    45   46   37 1
    46   47   39 1
    47   48   41 1
    48   49   42 1
    49   50   43 1
    50   51   44 1
    51   52   45 1
    52    5   36 ar
    53   10   11 ar
    54   21   22 ar
    55   27   28 ar
    56   38   39 ar
    57   44   45 ar
@<TRIPOS>SUBSTRUCTURE
     1 RES1 1

