# MOL2 file generated by ConQuest
# Please check atom types

@<TRIPOS>MOLECULE
DUPYAQ
   124   134     2
SMALL
NO_CHARGES
****
Generated from CSD

@<TRIPOS>ATOM
      1 C1         0.9987   -2.5783    5.2259 C.3       1 RES1    0.0000
      2 H1         1.0920   -3.0200    4.3343 H         1 RES1    0.0000
      3 C2        -0.4409   -2.7089    5.6277 C.2       1 RES1    0.0000
      4 C3        -0.7956   -3.1935    6.8252 C.2       1 RES1    0.0000
      5 H2        -1.7193   -3.2122    7.0489 H         1 RES1    0.0000
      6 C4         0.1599   -3.6920    7.8002 C.ar      1 RES1    0.0000
      7 C5        -0.2341   -4.2071    9.0203 C.ar      1 RES1    0.0000
      8 H3        -1.1553   -4.1886    9.2524 H         1 RES1    0.0000
      9 C6         0.6924   -4.7615    9.9357 C.ar      1 RES1    0.0000
     10 C7         2.0198   -4.7757    9.6027 C.ar      1 RES1    0.0000
     11 H4         2.6498   -5.1248   10.2215 H         1 RES1    0.0000
     12 C8         2.4756   -4.2797    8.3520 C.ar      1 RES1    0.0000
     13 C9         3.8379   -4.3391    7.9761 C.ar      1 RES1    0.0000
     14 H5         4.4773   -4.6726    8.5939 H         1 RES1    0.0000
     15 C10        4.2572   -3.9243    6.7338 C.ar      1 RES1    0.0000
     16 C11        3.2959   -3.4269    5.8225 C.ar      1 RES1    0.0000
     17 H6         3.5734   -3.1926    4.9456 H         1 RES1    0.0000
     18 C12        1.9723   -3.2704    6.1650 C.ar      1 RES1    0.0000
     19 C13        1.5385   -3.7241    7.4419 C.ar      1 RES1    0.0000
     20 C14       -1.4688   -2.3056    4.6038 C.3       1 RES1    0.0000
     21 H7        -2.3645   -2.5079    4.9437 H         1 RES1    0.0000
     22 H8        -1.3140   -2.8027    3.7741 H         1 RES1    0.0000
     23 H9        -1.3941   -1.3448    4.4287 H         1 RES1    0.0000
     24 C15        0.1919   -5.3360   11.2362 C.3       1 RES1    0.0000
     25 H10        0.9422   -5.7302   11.7292 H         1 RES1    0.0000
     26 H11       -0.4768   -6.0270   11.0510 H         1 RES1    0.0000
     27 H12       -0.2130   -4.6229   11.7724 H         1 RES1    0.0000
     28 C16        5.6989   -3.9443    6.3324 C.3       1 RES1    0.0000
     29 H13        6.2162   -4.4444    6.9978 H         1 RES1    0.0000
     30 H14        6.0358   -3.0254    6.2784 H         1 RES1    0.0000
     31 H15        5.7892   -4.3767    5.4567 H         1 RES1    0.0000
     32 C17        1.3911   -1.0237    5.0233 C.3       1 RES1    0.0000
     33 H16        0.5579   -0.5451    4.7451 H         1 RES1    0.0000
     34 C18        2.3839   -0.8726    3.8989 C.2       1 RES1    0.0000
     35 C19        3.6561   -0.5468    4.1354 C.2       1 RES1    0.0000
     36 H17        4.2540   -0.4907    3.3987 H         1 RES1    0.0000
     37 C20        4.1709   -0.2735    5.4721 C.ar      1 RES1    0.0000
     38 C21        5.5037   -0.0598    5.7237 C.ar      1 RES1    0.0000
     39 H18        6.1239   -0.1429    5.0085 H         1 RES1    0.0000
     40 C22        5.9902    0.2796    7.0108 C.ar      1 RES1    0.0000
     41 C23        5.0796    0.4570    8.0233 C.ar      1 RES1    0.0000
     42 H19        5.3909    0.7086    8.8849 H         1 RES1    0.0000
     43 C24        3.6840    0.2741    7.8189 C.ar      1 RES1    0.0000
     44 C25        2.7236    0.5129    8.8330 C.ar      1 RES1    0.0000
     45 H20        3.0149    0.7880    9.6947 H         1 RES1    0.0000
     46 C26        1.3821    0.3548    8.5989 C.ar      1 RES1    0.0000
     47 C27        0.9639   -0.1189    7.3324 C.ar      1 RES1    0.0000
     48 H21        0.0352   -0.2463    7.1747 H         1 RES1    0.0000
     49 C28        1.8476   -0.4000    6.3277 C.ar      1 RES1    0.0000
     50 C29        1.8580   -1.1013    2.5106 C.3       1 RES1    0.0000
     51 H22        2.5617   -0.9003    1.8576 H         1 RES1    0.0000
     52 H23        1.0881   -0.5159    2.3509 H         1 RES1    0.0000
     53 H24        1.5826   -2.0372    2.4158 H         1 RES1    0.0000
     54 C30        7.4633    0.4425    7.2268 C.3       1 RES1    0.0000
     55 H25        7.6244    0.7832    8.1320 H         1 RES1    0.0000
     56 H26        7.8213    1.0753    6.5693 H         1 RES1    0.0000
     57 H27        7.9063   -0.4252    7.1197 H         1 RES1    0.0000
     58 C31        0.3507    0.6883    9.6450 C.3       1 RES1    0.0000
     59 H28        0.7917    0.8133   10.5105 H         1 RES1    0.0000
     60 H29       -0.2965   -0.0454    9.7104 H         1 RES1    0.0000
     61 H30       -0.1153    1.5131    9.3940 H         1 RES1    0.0000
     62 C32        3.2337   -0.1525    6.5390 C.ar      1 RES1    0.0000
     63 C33        2.1073    3.0090    4.5275 C.3       2 RES2    0.0000
     64 H31        1.9291    2.3802    5.2857 H         2 RES2    0.0000
     65 C34        3.6017    3.0680    4.3546 C.2       2 RES2    0.0000
     66 C35        4.1758    2.8226    3.1769 C.2       2 RES2    0.0000
     67 H32        5.1225    2.8847    3.1195 H         2 RES2    0.0000
     68 C36        3.4365    2.4656    1.9749 C.ar      2 RES2    0.0000
     69 C37        4.0613    2.2182    0.7764 C.ar      2 RES2    0.0000
     70 H33        5.0042    2.3193    0.7214 H         2 RES2    0.0000
     71 C38        3.3492    1.8192   -0.3768 C.ar      2 RES2    0.0000
     72 C39        1.9891    1.6740   -0.2878 C.ar      2 RES2    0.0000
     73 H34        1.5016    1.4153   -1.0615 H         2 RES2    0.0000
     74 C40        1.2873    1.8990    0.9276 C.ar      2 RES2    0.0000
     75 C41       -0.1029    1.6976    1.0469 C.ar      2 RES2    0.0000
     76 H35       -0.6087    1.4747    0.2752 H         2 RES2    0.0000
     77 C42       -0.7380    1.8166    2.2552 C.ar      2 RES2    0.0000
     78 C43        0.0173    2.1627    3.4020 C.ar      2 RES2    0.0000
     79 H36       -0.4142    2.1886    4.2478 H         2 RES2    0.0000
     80 C44        1.3676    2.4650    3.3279 C.ar      2 RES2    0.0000
     81 C45        2.0243    2.3029    2.0777 C.ar      2 RES2    0.0000
     82 C46        4.4207    3.3763    5.5806 C.3       2 RES2    0.0000
     83 H37        5.3722    3.2569    5.3761 H         2 RES2    0.0000
     84 H38        4.1646    2.7692    6.3059 H         2 RES2    0.0000
     85 H39        4.2591    4.3019    5.8577 H         2 RES2    0.0000
     86 C47        4.0998    1.5217   -1.6541 C.3       2 RES2    0.0000
     87 H40        4.5250    0.6421   -1.5863 H         2 RES2    0.0000
     88 H41        4.7869    2.2069   -1.7966 H         2 RES2    0.0000
     89 H42        3.4746    1.5258   -2.4080 H         2 RES2    0.0000
     90 C48       -2.2255    1.6262    2.3991 C.3       2 RES2    0.0000
     91 H43       -2.6461    2.4844    2.6124 H         2 RES2    0.0000
     92 H44       -2.4046    0.9868    3.1215 H         2 RES2    0.0000
     93 H45       -2.5932    1.2811    1.5588 H         2 RES2    0.0000
     94 C49        1.5204    4.4442    4.9669 C.3       2 RES2    0.0000
     95 H46        2.2492    4.9229    5.4567 H         2 RES2    0.0000
     96 C50        0.3713    4.2791    5.9271 C.2       2 RES2    0.0000
     97 C51       -0.8783    4.5630    5.5638 C.2       2 RES2    0.0000
     98 H47       -1.5755    4.4093    6.1899 H         2 RES2    0.0000
     99 C52       -1.2319    5.0962    4.2563 C.ar      2 RES2    0.0000
    100 C53       -2.5266    5.2730    3.8492 C.ar      2 RES2    0.0000
    101 H48       -3.2274    4.9994    4.4287 H         2 RES2    0.0000
    102 C54       -2.8652    5.8445    2.6047 C.ar      2 RES2    0.0000
    103 C55       -1.8516    6.2617    1.7837 C.ar      2 RES2    0.0000
    104 H49       -2.0642    6.6618    0.9494 H         2 RES2    0.0000
    105 C56       -0.4889    6.1088    2.1524 C.ar      2 RES2    0.0000
    106 C57        0.5672    6.5713    1.3294 C.ar      2 RES2    0.0000
    107 H50        0.3645    6.9772    0.4954 H         2 RES2    0.0000
    108 C58        1.8764    6.4447    1.7143 C.ar      2 RES2    0.0000
    109 C59        2.1698    5.7839    2.9277 C.ar      2 RES2    0.0000
    110 H51        3.0779    5.6852    3.1883 H         2 RES2    0.0000
    111 C60        1.1822    5.2765    3.7470 C.ar      2 RES2    0.0000
    112 C61       -0.1695    5.4802    3.3847 C.ar      2 RES2    0.0000
    113 C62        0.7112    3.7670    7.3005 C.3       2 RES2    0.0000
    114 H52       -0.0976    3.7540    7.8548 H         2 RES2    0.0000
    115 H53        1.3799    4.3542    7.7114 H         2 RES2    0.0000
    116 H54        1.0740    2.8588    7.2298 H         2 RES2    0.0000
    117 C63       -4.3058    5.9953    2.2027 C.3       2 RES2    0.0000
    118 H55       -4.3602    6.5068    1.3681 H         2 RES2    0.0000
    119 H56       -4.7942    6.4682    2.9092 H         2 RES2    0.0000
    120 H57       -4.7024    5.1092    2.0699 H         2 RES2    0.0000
    121 C64        2.9947    6.9880    0.8637 C.3       2 RES2    0.0000
    122 H58        2.6216    7.3894    0.0511 H         2 RES2    0.0000
    123 H59        3.6017    6.2585    0.6192 H         2 RES2    0.0000
    124 H60        3.4877    7.6685    1.3681 H         2 RES2    0.0000
@<TRIPOS>BOND
     1    1    2 1
     2    3    1 1
     3    4    3 2
     4    5    4 1
     5    6    4 1
     6    7    6 ar
     7    8    7 1
     8    9    7 ar
     9   10    9 ar
    10   11   10 1
    11   12   10 ar
    12   13   12 ar
    13   14   13 1
    14   15   13 ar
    15   16   15 ar
    16   17   16 1
    17   18    1 1
    18   19    6 ar
    19   20    3 1
    20   21   20 1
    21   22   20 1
    22   23   20 1
    23   24    9 1
    24   25   24 1
    25   26   24 1
    26   27   24 1
    27   28   15 1
    28   29   28 1
    29   30   28 1
    30   31   28 1
    31   32    1 1
    32   33   32 1
    33   34   32 1
    34   35   34 2
    35   36   35 1
    36   37   35 1
    37   38   37 ar
    38   39   38 1
    39   40   38 ar
    40   41   40 ar
    41   42   41 1
    42   43   41 ar
    43   44   43 ar
    44   45   44 1
    45   46   44 ar
    46   47   46 ar
    47   48   47 1
    48   49   32 1
    49   50   34 1
    50   51   50 1
    51   52   50 1
    52   53   50 1
    53   54   40 1
    54   55   54 1
    55   56   54 1
    56   57   54 1
    57   58   46 1
    58   59   58 1
    59   60   58 1
    60   61   58 1
    61   62   37 ar
    62   63   64 1
    63   65   63 1
    64   66   65 2
    65   67   66 1
    66   68   66 1
    67   69   68 ar
    68   70   69 1
    69   71   69 ar
    70   72   71 ar
    71   73   72 1
    72   74   72 ar
    73   75   74 ar
    74   76   75 1
    75   77   75 ar
    76   78   77 ar
    77   79   78 1
    78   80   63 1
    79   81   68 ar
    80   82   65 1
    81   83   82 1
    82   84   82 1
    83   85   82 1
    84   86   71 1
    85   87   86 1
    86   88   86 1
    87   89   86 1
    88   90   77 1
    89   91   90 1
    90   92   90 1
    91   93   90 1
    92   94   63 1
    93   95   94 1
    94   96   94 1
    95   97   96 2
    96   98   97 1
    97   99   97 1
    98  100   99 ar
    99  101  100 1
   100  102  100 ar
   101  103  102 ar
   102  104  103 1
   103  105  103 ar
   104  106  105 ar
   105  107  106 1
   106  108  106 ar
   107  109  108 ar
   108  110  109 1
   109  111   94 1
   110  112   99 ar
   111  113   96 1
   112  114  113 1
   113  115  113 1
   114  116  113 1
   115  117  102 1
   116  118  117 1
   117  119  117 1
   118  120  117 1
   119  121  108 1
   120  122  121 1
   121  123  121 1
   122  124  121 1
   123   12   19 ar
   124   16   18 ar
   125   18   19 ar
   126   43   62 ar
   127   47   49 ar
   128   49   62 ar
   129   74   81 ar
   130   78   80 ar
   131   80   81 ar
   132  105  112 ar
   133  109  111 ar
   134  111  112 ar
@<TRIPOS>SUBSTRUCTURE
     1 RES1 1
     2 RES2 63

@<TRIPOS>CRYSIN
  10.4471   11.2032   19.9952  93.7663  99.8235  90.3569   2 1

