# MOL2 file generated by ConQuest
# Please check atom types

@<TRIPOS>MOLECULE
DUPYEU
    62    66     2
SMALL
NO_CHARGES
****
Generated from CSD

@<TRIPOS>ATOM
      1 C1         3.5870    4.0561    4.6697 C.ar      1 RES1    0.0000
      2 H1         3.4934    4.3585    5.5651 H         1 RES1    0.0000
      3 C2         4.3739    2.9151    4.3949 C.ar      1 RES1    0.0000
      4 C3         4.4779    2.4899    3.1100 C.ar      1 RES1    0.0000
      5 H2         5.0008    1.7174    2.9307 H         1 RES1    0.0000
      6 C4         3.8451    3.1423    2.0242 C.ar      1 RES1    0.0000
      7 C5         3.9202    2.6776    0.6875 C.ar      1 RES1    0.0000
      8 H3         4.4411    1.9065    0.4955 H         1 RES1    0.0000
      9 C6         3.2677    3.3031   -0.3306 C.ar      1 RES1    0.0000
     10 C7         2.4677    4.4255   -0.0430 C.ar      1 RES1    0.0000
     11 H4         1.9901    4.8434   -0.7496 H         1 RES1    0.0000
     12 C8         2.3549    4.9362    1.2300 C.ar      1 RES1    0.0000
     13 C9         1.5158    6.0629    1.5630 C.ar      1 RES1    0.0000
     14 H5         1.0003    6.4826    0.8842 H         1 RES1    0.0000
     15 C10        1.4564    6.5311    2.8511 C.ar      1 RES1    0.0000
     16 C11        2.1161    5.8933    3.8827 C.ar      1 RES1    0.0000
     17 H6         2.0221    6.2154    4.7709 H         1 RES1    0.0000
     18 C12        2.9400    4.7488    3.6270 C.ar      1 RES1    0.0000
     19 C13        3.0500    4.3020    2.3229 C.ar      1 RES1    0.0000
     20 C14        5.0143    2.1666    5.5444 C.3       1 RES1    0.0000
     21 H7         4.5198    1.3381    5.7109 H         1 RES1    0.0000
     22 H8         4.9944    2.7264    6.3498 H         1 RES1    0.0000
     23 H9         5.9434    1.9533    5.3182 H         1 RES1    0.0000
     24 C15        3.3360    2.7781   -1.7541 C.3       1 RES1    0.0000
     25 H10        3.9130    3.3621   -2.2895 H         1 RES1    0.0000
     26 H11        2.4351    2.7648   -2.1405 H         1 RES1    0.0000
     27 H12        3.7032    1.8705   -1.7502 H         1 RES1    0.0000
     28 C16        0.5563    7.7229    3.1777 C.3       1 RES1    0.0000
     29 H13        0.3164    8.1872    2.3492 H         1 RES1    0.0000
     30 H14        1.0337    8.3396    3.7712 H         1 RES1    0.0000
     31 H15       -0.2576    7.4052    3.6222 H         1 RES1    0.0000
     32 C17        7.8312    4.0701    4.3001 C.ar      2 RES2    0.0000
     33 H16        7.3224    4.8510    4.4841 H         2 RES2    0.0000
     34 C18        8.5072    3.4072    5.3700 C.ar      2 RES2    0.0000
     35 C19        9.2720    2.3127    5.0672 C.ar      2 RES2    0.0000
     36 H17        9.7508    1.8886    5.7699 H         2 RES2    0.0000
     37 C20        9.3876    1.7712    3.7409 C.ar      2 RES2    0.0000
     38 C21       10.1746    0.6655    3.4294 C.ar      2 RES2    0.0000
     39 H18       10.6306    0.2281    4.1384 H         2 RES2    0.0000
     40 C22       10.3330    0.1584    2.1341 C.ar      2 RES2    0.0000
     41 C23        9.6527    0.8511    1.1105 C.ar      2 RES2    0.0000
     42 H19        9.7560    0.5521    0.2151 H         2 RES2    0.0000
     43 C24        8.8359    1.9586    1.3526 C.ar      2 RES2    0.0000
     44 C25        8.1807    2.7019    0.3282 C.ar      2 RES2    0.0000
     45 H20        8.2983    2.4304   -0.5744 H         2 RES2    0.0000
     46 C26        7.3847    3.7970    0.5871 C.ar      2 RES2    0.0000
     47 C27        7.2535    4.2643    1.9135 C.ar      2 RES2    0.0000
     48 H21        6.7256    5.0334    2.0911 H         2 RES2    0.0000
     49 C28        7.9035    3.5923    2.9857 C.ar      2 RES2    0.0000
     50 C29        8.6918    2.4539    2.7109 C.ar      2 RES2    0.0000
     51 C30        8.3940    3.9242    6.7616 C.3       2 RES2    0.0000
     52 H22        7.5318    3.6535    7.1408 H         2 RES2    0.0000
     53 H23        8.4550    4.9019    6.7529 H         2 RES2    0.0000
     54 H24        9.1201    3.5563    7.3065 H         2 RES2    0.0000
     55 C31       11.2008   -1.0183    1.8465 C.3       2 RES2    0.0000
     56 H25       12.1399   -0.7375    1.8386 H         2 RES2    0.0000
     57 H26       10.9643   -1.3920    0.9727 H         2 RES2    0.0000
     58 H27       11.0689   -1.6984    2.5396 H         2 RES2    0.0000
     59 C32        6.7073    4.5533   -0.5361 C.3       2 RES2    0.0000
     60 H28        7.3788    5.0571   -1.0420 H         2 RES2    0.0000
     61 H29        6.0480    5.1738   -0.1609 H         2 RES2    0.0000
     62 H30        6.2577    3.9190   -1.1320 H         2 RES2    0.0000
@<TRIPOS>BOND
     1    1    2 1
     2    3    1 ar
     3    4    3 ar
     4    5    4 1
     5    6    4 ar
     6    7    6 ar
     7    8    7 1
     8    9    7 ar
     9   10    9 ar
    10   11   10 1
    11   12   10 ar
    12   13   12 ar
    13   14   13 1
    14   15   13 ar
    15   16   15 ar
    16   17   16 1
    17   18    1 ar
    18   19    6 ar
    19   20    3 1
    20   21   20 1
    21   22   20 1
    22   23   20 1
    23   24    9 1
    24   25   24 1
    25   26   24 1
    26   27   24 1
    27   28   15 1
    28   29   28 1
    29   30   28 1
    30   31   28 1
    31   32   33 1
    32   34   32 ar
    33   35   34 ar
    34   36   35 1
    35   37   35 ar
    36   38   37 ar
    37   39   38 1
    38   40   38 ar
    39   41   40 ar
    40   42   41 1
    41   43   41 ar
    42   44   43 ar
    43   45   44 1
    44   46   44 ar
    45   47   46 ar
    46   48   47 1
    47   49   32 ar
    48   50   37 ar
    49   51   34 1
    50   52   51 1
    51   53   51 1
    52   54   51 1
    53   55   40 1
    54   56   55 1
    55   57   55 1
    56   58   55 1
    57   59   46 1
    58   60   59 1
    59   61   59 1
    60   62   59 1
    61   12   19 ar
    62   16   18 ar
    63   18   19 ar
    64   43   50 ar
    65   47   49 ar
    66   49   50 ar
@<TRIPOS>SUBSTRUCTURE
     1 RES1 1
     2 RES2 32

@<TRIPOS>CRYSIN
   8.1570    8.8163    9.1728  61.8170  75.8610  78.1880   1 1

