# MOL2 file generated by ConQuest
# Please check atom types

@<TRIPOS>MOLECULE
DUWHEJ
    78    81     1
SMALL
NO_CHARGES
****
Generated from CSD

@<TRIPOS>ATOM
      1 C1         1.7413    3.9730   10.0058 C.ar      1 RES1    0.0000
      2 C2         0.7802    4.3369    9.1147 C.ar      1 RES1    0.0000
      3 H1         0.2216    3.6713    8.7558 H         1 RES1    0.0000
      4 C3         0.5873    5.6758    8.7061 C.ar      1 RES1    0.0000
      5 H2        -0.1008    5.8695    8.0951 H         1 RES1    0.0000
      6 C4         1.3647    6.6934    9.1678 C.ar      1 RES1    0.0000
      7 C5         2.4045    6.3865   10.1318 C.ar      1 RES1    0.0000
      8 C6         2.5996    5.0064   10.5568 C.ar      1 RES1    0.0000
      9 C7         3.5891    4.7267   11.4921 C.ar      1 RES1    0.0000
     10 H3         3.7170    3.8360   11.7631 H         1 RES1    0.0000
     11 C8         4.4058    5.7265   12.0474 C.ar      1 RES1    0.0000
     12 C9         3.2079    7.3753   10.6842 C.ar      1 RES1    0.0000
     13 H4         3.0774    8.2672   10.4181 H         1 RES1    0.0000
     14 C10        1.9028    2.5216   10.3993 C.3       1 RES1    0.0000
     15 H5         1.0730    2.0491   10.1789 H         1 RES1    0.0000
     16 H6         2.0175    2.4761   11.3724 H         1 RES1    0.0000
     17 C11        3.0692    1.7803    9.7413 C.3       1 RES1    0.0000
     18 H7         3.9140    2.1788   10.0676 H         1 RES1    0.0000
     19 C12        3.0354    1.9090    8.2218 C.3       1 RES1    0.0000
     20 H8         2.1981    1.5527    7.8855 H         1 RES1    0.0000
     21 H9         3.7751    1.4127    7.8381 H         1 RES1    0.0000
     22 H10        3.1106    2.8442    7.9743 H         1 RES1    0.0000
     23 C13        3.0416    0.3038   10.1576 C.3       1 RES1    0.0000
     24 H11        3.0468    0.2403   11.1261 H         1 RES1    0.0000
     25 H12        3.8225   -0.1474    9.8001 H         1 RES1    0.0000
     26 H13        2.2388   -0.1155    9.8107 H         1 RES1    0.0000
     27 C14        1.1358    8.0950    8.6646 C.3       1 RES1    0.0000
     28 H14        1.1474    8.7048    9.4318 H         1 RES1    0.0000
     29 H15        0.2413    8.1398    8.2668 H         1 RES1    0.0000
     30 C15        2.1547    8.5990    7.6262 C.3       1 RES1    0.0000
     31 H16        3.0195    8.7323    8.0892 H         1 RES1    0.0000
     32 C16        2.3781    7.6242    6.5073 C.3       1 RES1    0.0000
     33 H17        1.5411    7.4674    6.0420 H         1 RES1    0.0000
     34 H18        2.7079    6.7874    6.8696 H         1 RES1    0.0000
     35 H19        3.0298    7.9871    5.8869 H         1 RES1    0.0000
     36 C17        1.6968    9.9573    7.0863 C.3       1 RES1    0.0000
     37 H20        2.3764   10.3155    6.4931 H         1 RES1    0.0000
     38 H21        1.5579   10.5682    7.8263 H         1 RES1    0.0000
     39 H22        0.8664    9.8476    6.5973 H         1 RES1    0.0000
     40 C1A        6.8799    8.8413   13.6744 C.ar      1 RES1    0.0000
     41 C2A        7.8409    8.4774   14.5655 C.ar      1 RES1    0.0000
     42 H1A        8.3996    9.1431   14.9244 H         1 RES1    0.0000
     43 C3A        8.0339    7.1385   14.9741 C.ar      1 RES1    0.0000
     44 H2A        8.7219    6.9449   15.5851 H         1 RES1    0.0000
     45 C4A        7.2565    6.1210   14.5124 C.ar      1 RES1    0.0000
     46 C5A        6.2166    6.4279   13.5484 C.ar      1 RES1    0.0000
     47 C6A        6.0216    7.8080   13.1235 C.ar      1 RES1    0.0000
     48 C7A        5.0321    8.0876   12.1881 C.ar      1 RES1    0.0000
     49 H3A        4.9041    8.9784   11.9171 H         1 RES1    0.0000
     50 C8A        4.2154    7.0879   11.6328 C.ar      1 RES1    0.0000
     51 C9A        5.4133    5.4391   12.9961 C.ar      1 RES1    0.0000
     52 H4A        5.5438    4.5472   13.2621 H         1 RES1    0.0000
     53 C10A       6.7183   10.2928   13.2809 C.3       1 RES1    0.0000
     54 H5A        7.5481   10.7653   13.5013 H         1 RES1    0.0000
     55 H6A        6.6036   10.3383   12.3078 H         1 RES1    0.0000
     56 C11A       5.5520   11.0341   13.9389 C.3       1 RES1    0.0000
     57 H7A        4.7072   10.6356   13.6126 H         1 RES1    0.0000
     58 C12A       5.5858   10.9053   15.4584 C.3       1 RES1    0.0000
     59 H8A        6.4231   11.2617   15.7947 H         1 RES1    0.0000
     60 H9A        4.8461   11.4017   15.8421 H         1 RES1    0.0000
     61 H10A       5.5106    9.9702   15.7059 H         1 RES1    0.0000
     62 C13A       5.5796   12.5106   13.5226 C.3       1 RES1    0.0000
     63 H11A       5.5744   12.5741   12.5541 H         1 RES1    0.0000
     64 H12A       4.7987   12.9618   13.8802 H         1 RES1    0.0000
     65 H13A       6.3824   12.9299   13.8695 H         1 RES1    0.0000
     66 C14A       7.4854    4.7194   15.0156 C.3       1 RES1    0.0000
     67 H14A       7.4738    4.1096   14.2484 H         1 RES1    0.0000
     68 H15A       8.3799    4.6745   15.4134 H         1 RES1    0.0000
     69 C15A       6.4665    4.2154   16.0540 C.3       1 RES1    0.0000
     70 H16A       5.6017    4.0820   15.5910 H         1 RES1    0.0000
     71 C16A       6.2431    5.1902   17.1729 C.3       1 RES1    0.0000
     72 H17A       7.0801    5.3470   17.6382 H         1 RES1    0.0000
     73 H18A       5.9133    6.0270   16.8106 H         1 RES1    0.0000
     74 H19A       5.5914    4.8273   17.7933 H         1 RES1    0.0000
     75 C17A       6.9244    2.8571   16.5939 C.3       1 RES1    0.0000
     76 H20A       6.2448    2.4989   17.1871 H         1 RES1    0.0000
     77 H21A       7.0633    2.2462   15.8539 H         1 RES1    0.0000
     78 H22A       7.7547    2.9668   17.0829 H         1 RES1    0.0000
@<TRIPOS>BOND
     1    1    2 ar
     2    2    3 1
     3    4    2 ar
     4    5    4 1
     5    6    4 ar
     6    7    6 ar
     7    8    1 ar
     8    9    8 ar
     9   10    9 1
    10   11    9 ar
    11   12    7 ar
    12   13   12 1
    13   14    1 1
    14   15   14 1
    15   16   14 1
    16   17   14 1
    17   18   17 1
    18   19   17 1
    19   20   19 1
    20   21   19 1
    21   22   19 1
    22   23   17 1
    23   24   23 1
    24   25   23 1
    25   26   23 1
    26   27    6 1
    27   28   27 1
    28   29   27 1
    29   30   27 1
    30   31   30 1
    31   32   30 1
    32   33   32 1
    33   34   32 1
    34   35   32 1
    35   36   30 1
    36   37   36 1
    37   38   36 1
    38   39   36 1
    39   40   41 ar
    40   41   42 1
    41   43   41 ar
    42   44   43 1
    43   45   43 ar
    44   46   45 ar
    45   47   40 ar
    46   48   47 ar
    47   49   48 1
    48   50   11 ar
    49   51   11 ar
    50   52   51 1
    51   53   40 1
    52   54   53 1
    53   55   53 1
    54   56   53 1
    55   57   56 1
    56   58   56 1
    57   59   58 1
    58   60   58 1
    59   61   58 1
    60   62   56 1
    61   63   62 1
    62   64   62 1
    63   65   62 1
    64   66   45 1
    65   67   66 1
    66   68   66 1
    67   69   66 1
    68   70   69 1
    69   71   69 1
    70   72   71 1
    71   73   71 1
    72   74   71 1
    73   75   69 1
    74   76   75 1
    75   77   75 1
    76   78   75 1
    77    7    8 ar
    78   12   50 ar
    79   46   47 ar
    80   46   51 ar
    81   48   50 ar
@<TRIPOS>SUBSTRUCTURE
     1 RES1 1

@<TRIPOS>CRYSIN
   5.2670   11.1500   11.9300  85.4090  84.2920  84.9520   2 1

