# MOL2 file generated by ConQuest
# Please check atom types

@<TRIPOS>MOLECULE
DUWHIN
    90    93     1
SMALL
NO_CHARGES
****
Generated from CSD

@<TRIPOS>ATOM
      1 C1         1.4095    3.8947    5.9117 C.ar      1 RES1    0.0000
      2 C2         0.8306    4.6289    6.8708 C.ar      1 RES1    0.0000
      3 H1         1.0524    5.5396    6.9424 H         1 RES1    0.0000
      4 C3        -0.1120    4.0729    7.7878 C.ar      1 RES1    0.0000
      5 H2        -0.4867    4.6395    8.4385 H         1 RES1    0.0000
      6 C4        -0.4945    2.7752    7.7689 C.ar      1 RES1    0.0000
      7 C5         0.0904    1.9313    6.7550 C.ar      1 RES1    0.0000
      8 C6         1.0682    2.4828    5.8359 C.ar      1 RES1    0.0000
      9 C7         1.6434    1.6282    4.9073 C.ar      1 RES1    0.0000
     10 H3         2.2668    1.9849    4.3008 H         1 RES1    0.0000
     11 C8         1.3472    0.2679    4.8252 C.ar      1 RES1    0.0000
     12 C9        -0.2384    0.5885    6.6413 C.ar      1 RES1    0.0000
     13 H4        -0.8948    0.2364    7.2130 H         1 RES1    0.0000
     14 C10        2.3946    4.4711    4.9020 C.3       1 RES1    0.0000
     15 H5         3.2454    3.9910    4.9852 H         1 RES1    0.0000
     16 H6         2.0501    4.3092    3.9987 H         1 RES1    0.0000
     17 C11        2.6578    5.9614    5.0620 C.3       1 RES1    0.0000
     18 H7         3.0958    6.1153    5.9254 H         1 RES1    0.0000
     19 H8         1.8006    6.4366    5.0726 H         1 RES1    0.0000
     20 C12        3.5338    6.5426    3.9492 C.3       1 RES1    0.0000
     21 H9         4.3436    5.9790    3.8660 H         1 RES1    0.0000
     22 C13        3.9733    7.9560    4.3177 C.3       1 RES1    0.0000
     23 H10        4.5135    8.3245    3.6018 H         1 RES1    0.0000
     24 H11        4.4944    7.9306    5.1357 H         1 RES1    0.0000
     25 H12        3.1906    8.5124    4.4514 H         1 RES1    0.0000
     26 C14        2.8216    6.5548    2.6016 C.3       1 RES1    0.0000
     27 H13        2.5525    5.6517    2.3699 H         1 RES1    0.0000
     28 H14        3.4224    6.8972    1.9214 H         1 RES1    0.0000
     29 H15        2.0369    7.1214    2.6553 H         1 RES1    0.0000
     30 C15       -1.4652    2.1907    8.7754 C.3       1 RES1    0.0000
     31 H16       -2.2578    1.8819    8.2890 H         1 RES1    0.0000
     32 H17       -1.0462    1.4031    9.1808 H         1 RES1    0.0000
     33 C16       -1.9230    3.1040    9.8872 C.3       1 RES1    0.0000
     34 H18       -2.3755    3.8759    9.4892 H         1 RES1    0.0000
     35 H19       -1.1329    3.4365   10.3620 H         1 RES1    0.0000
     36 C17       -2.8606    2.4628   10.9000 C.3       1 RES1    0.0000
     37 H20       -3.6556    2.1243   10.4157 H         1 RES1    0.0000
     38 C18       -3.3250    3.5062   11.9150 C.3       1 RES1    0.0000
     39 H21       -3.7662    4.2335   11.4507 H         1 RES1    0.0000
     40 H22       -2.5578    3.8486   12.3993 H         1 RES1    0.0000
     41 H23       -3.9447    3.0971   12.5383 H         1 RES1    0.0000
     42 C19       -2.1989    1.2800   11.6191 C.3       1 RES1    0.0000
     43 H24       -2.8224    0.9000   12.2572 H         1 RES1    0.0000
     44 H25       -1.4063    1.5879   12.0855 H         1 RES1    0.0000
     45 H26       -1.9496    0.6061   10.9685 H         1 RES1    0.0000
     46 C1B        0.3076   -3.8947    4.6167 C.ar      1 RES1    0.0000
     47 C2B        0.8865   -4.6289    3.6576 C.ar      1 RES1    0.0000
     48 H1B        0.6647   -5.5396    3.5860 H         1 RES1    0.0000
     49 C3B        1.8291   -4.0729    2.7405 C.ar      1 RES1    0.0000
     50 H2B        2.2039   -4.6395    2.0899 H         1 RES1    0.0000
     51 C4B        2.2116   -2.7752    2.7595 C.ar      1 RES1    0.0000
     52 C5B        1.6267   -1.9313    3.7734 C.ar      1 RES1    0.0000
     53 C6B        0.6489   -2.4828    4.6925 C.ar      1 RES1    0.0000
     54 C7B        0.0737   -1.6282    5.6211 C.ar      1 RES1    0.0000
     55 H3B       -0.5497   -1.9849    6.2275 H         1 RES1    0.0000
     56 C8B        0.3699   -0.2679    5.7032 C.ar      1 RES1    0.0000
     57 C9B        1.9555   -0.5885    3.8871 C.ar      1 RES1    0.0000
     58 H4B        2.6120   -0.2364    3.3154 H         1 RES1    0.0000
     59 C10B      -0.6775   -4.4711    5.6264 C.3       1 RES1    0.0000
     60 H5B       -1.5283   -3.9910    5.5432 H         1 RES1    0.0000
     61 H6B       -0.3330   -4.3092    6.5297 H         1 RES1    0.0000
     62 C11B      -0.9407   -5.9614    5.4663 C.3       1 RES1    0.0000
     63 H7B       -1.3787   -6.1153    4.6030 H         1 RES1    0.0000
     64 H8B       -0.0835   -6.4366    5.4558 H         1 RES1    0.0000
     65 C12B      -1.8167   -6.5426    6.5792 C.3       1 RES1    0.0000
     66 H9B       -2.6264   -5.9790    6.6624 H         1 RES1    0.0000
     67 C13B      -2.2562   -7.9560    6.2107 C.3       1 RES1    0.0000
     68 H10B      -2.7964   -8.3245    6.9266 H         1 RES1    0.0000
     69 H11B      -2.7773   -7.9306    5.3926 H         1 RES1    0.0000
     70 H12B      -1.4735   -8.5124    6.0770 H         1 RES1    0.0000
     71 C14B      -1.1045   -6.5548    7.9268 C.3       1 RES1    0.0000
     72 H13B      -0.8354   -5.6517    8.1584 H         1 RES1    0.0000
     73 H14B      -1.7053   -6.8972    8.6070 H         1 RES1    0.0000
     74 H15B      -0.3197   -7.1214    7.8731 H         1 RES1    0.0000
     75 C15B       3.1824   -2.1907    1.7530 C.3       1 RES1    0.0000
     76 H16B       3.9749   -1.8819    2.2394 H         1 RES1    0.0000
     77 H17B       2.7633   -1.4031    1.3476 H         1 RES1    0.0000
     78 C16B       3.6401   -3.1040    0.6412 C.3       1 RES1    0.0000
     79 H18B       4.0927   -3.8759    1.0392 H         1 RES1    0.0000
     80 H19B       2.8500   -3.4365    0.1663 H         1 RES1    0.0000
     81 C17B       4.5777   -2.4628   -0.3717 C.3       1 RES1    0.0000
     82 H20B       5.3727   -2.1243    0.1127 H         1 RES1    0.0000
     83 C18B       5.0421   -3.5062   -1.3866 C.3       1 RES1    0.0000
     84 H21B       5.4833   -4.2335   -0.9223 H         1 RES1    0.0000
     85 H22B       4.2750   -3.8486   -1.8709 H         1 RES1    0.0000
     86 H23B       5.6618   -3.0971   -2.0099 H         1 RES1    0.0000
     87 C19B       3.9160   -1.2800   -1.0907 C.3       1 RES1    0.0000
     88 H24B       4.5396   -0.9000   -1.7288 H         1 RES1    0.0000
     89 H25B       3.1234   -1.5879   -1.5571 H         1 RES1    0.0000
     90 H26B       3.6667   -0.6061   -0.4401 H         1 RES1    0.0000
@<TRIPOS>BOND
     1    1    2 ar
     2    2    3 1
     3    4    2 ar
     4    5    4 1
     5    6    4 ar
     6    7    6 ar
     7    8    1 ar
     8    9    8 ar
     9   10    9 1
    10   11    9 ar
    11   12    7 ar
    12   13   12 1
    13   14    1 1
    14   15   14 1
    15   16   14 1
    16   17   14 1
    17   18   17 1
    18   19   17 1
    19   20   17 1
    20   21   20 1
    21   22   20 1
    22   23   22 1
    23   24   22 1
    24   25   22 1
    25   26   20 1
    26   27   26 1
    27   28   26 1
    28   29   26 1
    29   30    6 1
    30   31   30 1
    31   32   30 1
    32   33   30 1
    33   34   33 1
    34   35   33 1
    35   36   33 1
    36   37   36 1
    37   38   36 1
    38   39   38 1
    39   40   38 1
    40   41   38 1
    41   42   36 1
    42   43   42 1
    43   44   42 1
    44   45   42 1
    45   46   47 ar
    46   47   48 1
    47   49   47 ar
    48   50   49 1
    49   51   49 ar
    50   52   51 ar
    51   53   46 ar
    52   54   53 ar
    53   55   54 1
    54   56   11 ar
    55   57   11 ar
    56   58   57 1
    57   59   46 1
    58   60   59 1
    59   61   59 1
    60   62   59 1
    61   63   62 1
    62   64   62 1
    63   65   62 1
    64   66   65 1
    65   67   65 1
    66   68   67 1
    67   69   67 1
    68   70   67 1
    69   71   65 1
    70   72   71 1
    71   73   71 1
    72   74   71 1
    73   75   51 1
    74   76   75 1
    75   77   75 1
    76   78   75 1
    77   79   78 1
    78   80   78 1
    79   81   78 1
    80   82   81 1
    81   83   81 1
    82   84   83 1
    83   85   83 1
    84   86   83 1
    85   87   81 1
    86   88   87 1
    87   89   87 1
    88   90   87 1
    89    7    8 ar
    90   12   56 ar
    91   52   53 ar
    92   52   57 ar
    93   54   56 ar
@<TRIPOS>SUBSTRUCTURE
     1 RES1 1

@<TRIPOS>CRYSIN
   4.8090   30.3040   10.9730  90.0000 106.3660  90.0000  14 1

