# MOL2 file generated by ConQuest
# Please check atom types

@<TRIPOS>MOLECULE
DUWPER
    48    51     1
SMALL
NO_CHARGES
****
Generated from CSD

@<TRIPOS>ATOM
      1 C1         9.0714    2.2556    4.5335 C.ar      1 RES1    0.0000
      2 C2        10.2523    1.6176    4.3335 C.ar      1 RES1    0.0000
      3 C3        10.3893    0.5444    3.4114 C.ar      1 RES1    0.0000
      4 C4         9.3420    0.0797    2.6964 C.ar      1 RES1    0.0000
      5 C5         8.0481    0.6862    2.8878 C.ar      1 RES1    0.0000
      6 C6         6.9145    0.2403    2.2163 C.ar      1 RES1    0.0000
      7 C7         5.6835    0.9060    2.3207 C.ar      1 RES1    0.0000
      8 C8         4.5329    0.4602    1.6161 C.ar      1 RES1    0.0000
      9 C9         3.3252    1.1502    1.6892 C.ar      1 RES1    0.0000
     10 C10        2.1571    0.7072    0.9759 C.ar      1 RES1    0.0000
     11 C11        1.0032    1.4305    1.0838 C.ar      1 RES1    0.0000
     12 C12        0.9266    2.5802    1.8614 C.ar      1 RES1    0.0000
     13 C13        1.9895    3.0221    2.5555 C.ar      1 RES1    0.0000
     14 C14        3.2364    2.3210    2.4964 C.ar      1 RES1    0.0000
     15 C15        4.3609    2.7568    3.1992 C.ar      1 RES1    0.0000
     16 C16        5.5639    2.0624    3.1609 C.ar      1 RES1    0.0000
     17 C17        6.7120    2.4578    3.8690 C.ar      1 RES1    0.0000
     18 C18        7.9349    1.8109    3.7837 C.ar      1 RES1    0.0000
     19 C19        8.9107    3.3821    5.5338 C.3       1 RES1    0.0000
     20 C20       10.1451    3.8306    6.2958 C.3       1 RES1    0.0000
     21 C21        9.8555    4.9897    7.2126 C.3       1 RES1    0.0000
     22 C22        9.4859   -1.0733    1.7222 C.3       1 RES1    0.0000
     23 C23       10.8963   -1.6116    1.4717 C.3       1 RES1    0.0000
     24 C24       10.8565   -2.7491    0.4662 C.3       1 RES1    0.0000
     25 H1        10.9988    1.8923    4.8153 H         1 RES1    0.0000
     26 H2        11.2243    0.1501    3.2984 H         1 RES1    0.0000
     27 H3         6.9745   -0.5189    1.6822 H         1 RES1    0.0000
     28 H4         4.5861   -0.3090    1.0960 H         1 RES1    0.0000
     29 H5         2.1868   -0.0593    0.4506 H         1 RES1    0.0000
     30 H6         0.2482    1.1458    0.6228 H         1 RES1    0.0000
     31 H7         0.1261    3.0509    1.9032 H         1 RES1    0.0000
     32 H8         1.9146    3.7880    3.0774 H         1 RES1    0.0000
     33 H9         4.3034    3.5338    3.7072 H         1 RES1    0.0000
     34 H10        6.6480    3.1987    4.4274 H         1 RES1    0.0000
     35 H11        8.2417    3.1112    6.1827 H         1 RES1    0.0000
     36 H12        8.5566    4.1513    5.0606 H         1 RES1    0.0000
     37 H13       10.4856    3.0874    6.8194 H         1 RES1    0.0000
     38 H14       10.8348    4.0893    5.6643 H         1 RES1    0.0000
     39 H15       10.6431    5.2052    7.7153 H         1 RES1    0.0000
     40 H16        9.1476    4.7511    7.8162 H         1 RES1    0.0000
     41 H17        9.5885    5.7507    6.6924 H         1 RES1    0.0000
     42 H18        9.1179   -0.7930    0.8716 H         1 RES1    0.0000
     43 H19        8.9393   -1.8065    2.0458 H         1 RES1    0.0000
     44 H20       11.4620   -0.8988    1.1342 H         1 RES1    0.0000
     45 H21       11.2772   -1.9289    2.3050 H         1 RES1    0.0000
     46 H22       10.3456   -3.4779    0.8263 H         1 RES1    0.0000
     47 H23       11.7507   -3.0453    0.2818 H         1 RES1    0.0000
     48 H24       10.4481   -2.4428   -0.3479 H         1 RES1    0.0000
@<TRIPOS>BOND
     1    1    2 ar
     2    2    3 ar
     3    3    4 ar
     4    4    5 ar
     5    5    6 ar
     6    6    7 ar
     7    7    8 ar
     8    8    9 ar
     9    9   10 ar
    10   10   11 ar
    11   11   12 ar
    12   12   13 ar
    13   13   14 ar
    14   14    9 ar
    15   15   14 ar
    16   16    7 ar
    17   17   16 ar
    18   18    1 ar
    19   19    1 1
    20   20   19 1
    21   21   20 1
    22   22    4 1
    23   23   22 1
    24   24   23 1
    25   25    2 1
    26   26    3 1
    27   27    6 1
    28   28    8 1
    29   29   10 1
    30   30   11 1
    31   31   12 1
    32   32   13 1
    33   33   15 1
    34   34   17 1
    35   35   19 1
    36   36   19 1
    37   37   20 1
    38   38   20 1
    39   39   21 1
    40   40   21 1
    41   41   21 1
    42   42   22 1
    43   43   22 1
    44   44   23 1
    45   45   23 1
    46   46   24 1
    47   47   24 1
    48   48   24 1
    49    5   18 ar
    50   15   16 ar
    51   17   18 ar
@<TRIPOS>SUBSTRUCTURE
     1 RES1 1

@<TRIPOS>CRYSIN
  17.6900    5.5380   17.8700  90.0000 103.2200  90.0000 231 1

