# MOL2 file generated by ConQuest
# Please check atom types

@<TRIPOS>MOLECULE
EBADIW
    98   109     1
SMALL
NO_CHARGES
****
Generated from CSD

@<TRIPOS>ATOM
      1 C1         5.1891    8.5730    0.2639 C.3       1 RES1    0.0000
      2 H1         5.0427    9.5120    0.0602 H         1 RES1    0.0000
      3 H2         5.0555    8.4547    1.2167 H         1 RES1    0.0000
      4 C2         4.1611    7.7526   -0.4735 C.2       1 RES1    0.0000
      5 C3         3.4478    8.2063   -1.6795 C.ar      1 RES1    0.0000
      6 C4         3.4324    9.3085   -2.5208 C.ar      1 RES1    0.0000
      7 H3         3.9796   10.0369   -2.3374 H         1 RES1    0.0000
      8 C5         2.5825    9.3313   -3.6618 C.ar      1 RES1    0.0000
      9 H4         2.5956   10.0711   -4.2265 H         1 RES1    0.0000
     10 C6         1.7450    8.2786   -3.9441 C.ar      1 RES1    0.0000
     11 C7         0.7038    7.9120   -5.0037 C.3       1 RES1    0.0000
     12 H5         1.1069    7.9070   -5.8866 H         1 RES1    0.0000
     13 H6        -0.0239    8.5536   -4.9988 H         1 RES1    0.0000
     14 C8         0.1824    6.5009   -4.6418 C.3       1 RES1    0.0000
     15 H7        -0.7741    6.5188   -4.4797 H         1 RES1    0.0000
     16 H8         0.3664    5.8723   -5.3578 H         1 RES1    0.0000
     17 C9         0.9404    6.1138   -3.3736 C.ar      1 RES1    0.0000
     18 C10        0.9719    5.0253   -2.5198 C.ar      1 RES1    0.0000
     19 H9         0.4109    4.3015   -2.6809 H         1 RES1    0.0000
     20 C11        1.8564    4.9960   -1.3904 C.ar      1 RES1    0.0000
     21 H10        1.8675    4.2483   -0.8373 H         1 RES1    0.0000
     22 C12        2.6918    6.0590   -1.1080 C.ar      1 RES1    0.0000
     23 C13        3.7408    6.4865   -0.1475 C.2       1 RES1    0.0000
     24 C14        4.3110    5.6916    1.0130 C.3       1 RES1    0.0000
     25 H11        5.2249    6.0130    1.1537 H         1 RES1    0.0000
     26 C15        4.4133    4.1692    0.7238 C.3       1 RES1    0.0000
     27 H12        3.4972    3.8223    0.6918 H         1 RES1    0.0000
     28 C16        5.1180    3.4408    1.8445 C.2       1 RES1    0.0000
     29 C17        6.5602    3.5564    2.2015 C.ar      1 RES1    0.0000
     30 C18        7.7275    4.1520    1.7678 C.ar      1 RES1    0.0000
     31 H13        7.7077    4.6971    1.0139 H         1 RES1    0.0000
     32 C19        8.9697    3.9527    2.4528 C.ar      1 RES1    0.0000
     33 H14        9.7366    4.3700    2.1317 H         1 RES1    0.0000
     34 C20        9.0564    3.1601    3.5735 C.ar      1 RES1    0.0000
     35 C21       10.1256    2.7182    4.5506 C.3       1 RES1    0.0000
     36 H15       10.5331    3.4876    4.9794 H         1 RES1    0.0000
     37 H16       10.8162    2.2135    4.0936 H         1 RES1    0.0000
     38 C22        9.3991    1.8233    5.6043 C.3       1 RES1    0.0000
     39 H17        9.7966    0.9394    5.6353 H         1 RES1    0.0000
     40 H18        9.4525    2.2211    6.4872 H         1 RES1    0.0000
     41 C23        7.9644    1.7468    5.1386 C.ar      1 RES1    0.0000
     42 C24        6.8073    1.1258    5.5441 C.ar      1 RES1    0.0000
     43 H19        6.8191    0.5895    6.3038 H         1 RES1    0.0000
     44 C25        5.5824    1.2901    4.8174 C.ar      1 RES1    0.0000
     45 H20        4.8206    0.8367    5.1027 H         1 RES1    0.0000
     46 C26        5.5071    2.1009    3.7074 C.ar      1 RES1    0.0000
     47 C27        4.5185    2.5775    2.7255 C.2       1 RES1    0.0000
     48 C28        2.6042    7.1612   -1.9949 C.ar      1 RES1    0.0000
     49 C29        1.7767    7.1844   -3.0728 C.ar      1 RES1    0.0000
     50 C30        6.6970    2.7330    3.3290 C.ar      1 RES1    0.0000
     51 C31        7.8687    2.5474    3.9946 C.ar      1 RES1    0.0000
     52 C32        6.6112    8.2269   -0.0669 C.ar      1 RES1    0.0000
     53 C33        7.0701    8.2238   -1.3739 C.ar      1 RES1    0.0000
     54 H21        6.4892    8.4585   -2.0609 H         1 RES1    0.0000
     55 C34        8.3616    7.8815   -1.6747 C.ar      1 RES1    0.0000
     56 H22        8.6532    7.9032   -2.5576 H         1 RES1    0.0000
     57 C35        9.2278    7.5065   -0.6802 C.ar      1 RES1    0.0000
     58 H23       10.1011    7.2643   -0.8897 H         1 RES1    0.0000
     59 C36        8.8042    7.4917    0.6200 C.ar      1 RES1    0.0000
     60 H24        9.3890    7.2376    1.2973 H         1 RES1    0.0000
     61 C37        7.5066    7.8549    0.9276 C.ar      1 RES1    0.0000
     62 H25        7.2292    7.8500    1.8154 H         1 RES1    0.0000
     63 C38        3.5468    5.9643    2.3054 C.ar      1 RES1    0.0000
     64 C39        4.2296    6.3275    3.4513 C.ar      1 RES1    0.0000
     65 H26        5.1575    6.3933    3.4280 H         1 RES1    0.0000
     66 C40        3.5691    6.5941    4.6195 C.ar      1 RES1    0.0000
     67 H27        4.0515    6.8459    5.3734 H         1 RES1    0.0000
     68 C41        2.1981    6.4903    4.6903 C.ar      1 RES1    0.0000
     69 H28        1.7559    6.6633    5.4888 H         1 RES1    0.0000
     70 C42        1.4923    6.1278    3.5735 C.ar      1 RES1    0.0000
     71 H29        0.5660    6.0510    3.6094 H         1 RES1    0.0000
     72 C43        2.1736    5.8753    2.3840 C.ar      1 RES1    0.0000
     73 H30        1.6898    5.6403    1.6242 H         1 RES1    0.0000
     74 C44        5.0470    3.8702   -0.6326 C.ar      1 RES1    0.0000
     75 C45        6.0756    4.6415   -1.1634 C.ar      1 RES1    0.0000
     76 H31        6.4036    5.3664   -0.6792 H         1 RES1    0.0000
     77 C46        6.6156    4.3487   -2.3937 C.ar      1 RES1    0.0000
     78 H32        7.3115    4.8644   -2.7323 H         1 RES1    0.0000
     79 C47        6.1238    3.2936   -3.1223 C.ar      1 RES1    0.0000
     80 H33        6.4788    3.1073   -3.9616 H         1 RES1    0.0000
     81 C48        5.1295    2.5250   -2.6275 C.ar      1 RES1    0.0000
     82 H34        4.8008    1.8142   -3.1272 H         1 RES1    0.0000
     83 C49        4.5954    2.7947   -1.3778 C.ar      1 RES1    0.0000
     84 H35        3.9257    2.2477   -1.0362 H         1 RES1    0.0000
     85 C50        3.0633    2.1511    2.7274 C.3       1 RES1    0.0000
     86 H36        2.5050    2.9437    2.7556 H         1 RES1    0.0000
     87 H37        2.8882    1.6392    3.5318 H         1 RES1    0.0000
     88 C51        2.6746    1.3194    1.5194 C.ar      1 RES1    0.0000
     89 C52        1.5821    1.6426    0.7384 C.ar      1 RES1    0.0000
     90 H38        1.0399    2.3580    0.9809 H         1 RES1    0.0000
     91 C53        1.2805    0.9090   -0.4143 C.ar      1 RES1    0.0000
     92 H39        0.5556    1.1524   -0.9421 H         1 RES1    0.0000
     93 C54        2.0542   -0.1746   -0.7694 C.ar      1 RES1    0.0000
     94 H40        1.8604   -0.6694   -1.5340 H         1 RES1    0.0000
     95 C55        3.1030   -0.5039    0.0223 C.ar      1 RES1    0.0000
     96 H41        3.6175   -1.2475   -0.1970 H         1 RES1    0.0000
     97 C56        3.4291    0.2312    1.1439 C.ar      1 RES1    0.0000
     98 H42        4.1677   -0.0114    1.6533 H         1 RES1    0.0000
@<TRIPOS>BOND
     1    1    2 1
     2    3    1 1
     3    4    1 1
     4    5    4 1
     5    6    5 ar
     6    7    6 1
     7    8    6 ar
     8    9    8 1
     9   10    8 ar
    10   11   10 1
    11   12   11 1
    12   13   11 1
    13   14   11 1
    14   15   14 1
    15   16   14 1
    16   17   14 1
    17   18   17 ar
    18   19   18 1
    19   20   18 ar
    20   21   20 1
    21   22   20 ar
    22   23    4 2
    23   24   23 1
    24   25   24 1
    25   26   24 1
    26   27   26 1
    27   28   26 1
    28   29   28 1
    29   30   29 ar
    30   31   30 1
    31   32   30 ar
    32   33   32 1
    33   34   32 ar
    34   35   34 1
    35   36   35 1
    36   37   35 1
    37   38   35 1
    38   39   38 1
    39   40   38 1
    40   41   38 1
    41   42   41 ar
    42   43   42 1
    43   44   42 ar
    44   45   44 1
    45   46   44 ar
    46   47   28 2
    47   48    5 ar
    48   49   10 ar
    49   50   29 ar
    50   51   34 ar
    51   52    1 1
    52   53   52 ar
    53   54   53 1
    54   55   53 ar
    55   56   55 1
    56   57   55 ar
    57   58   57 1
    58   59   57 ar
    59   60   59 1
    60   61   52 ar
    61   62   61 1
    62   63   24 1
    63   64   63 ar
    64   65   64 1
    65   66   64 ar
    66   67   66 1
    67   68   66 ar
    68   69   68 1
    69   70   68 ar
    70   71   70 1
    71   72   63 ar
    72   73   72 1
    73   74   26 1
    74   75   74 ar
    75   76   75 1
    76   77   75 ar
    77   78   77 1
    78   79   77 ar
    79   80   79 1
    80   81   79 ar
    81   82   81 1
    82   83   74 ar
    83   84   83 1
    84   85   47 1
    85   86   85 1
    86   87   85 1
    87   88   85 1
    88   89   88 ar
    89   90   89 1
    90   91   89 ar
    91   92   91 1
    92   93   91 ar
    93   94   93 1
    94   95   93 ar
    95   96   95 1
    96   97   88 ar
    97   98   97 1
    98   17   49 ar
    99   22   23 1
   100   22   48 ar
   101   41   51 ar
   102   46   47 1
   103   46   50 ar
   104   48   49 ar
   105   50   51 ar
   106   59   61 ar
   107   70   72 ar
   108   81   83 ar
   109   95   97 ar
@<TRIPOS>SUBSTRUCTURE
     1 RES1 1

@<TRIPOS>CRYSIN
  10.4203   38.0328   10.0996  90.0000 106.1160  90.0000  14 1

