# MOL2 file generated by ConQuest
# Please check atom types

@<TRIPOS>MOLECULE
ECIGOO
    52    56     1
SMALL
NO_CHARGES
****
Generated from CSD

@<TRIPOS>ATOM
      1 C1         2.3583    6.5299    7.6188 C.ar      1 RES1    0.0000
      2 C2         2.3074    5.4546    6.6813 C.ar      1 RES1    0.0000
      3 C3         1.3030    5.3643    5.6905 C.ar      1 RES1    0.0000
      4 H1         0.6394    6.0424    5.6509 H         1 RES1    0.0000
      5 C4         1.2494    4.3220    4.7706 C.ar      1 RES1    0.0000
      6 C5         0.1966    4.2089    3.8042 C.ar      1 RES1    0.0000
      7 H2        -0.5007    4.8546    3.7899 H         1 RES1    0.0000
      8 C6         0.1853    3.1859    2.9069 C.ar      1 RES1    0.0000
      9 H3        -0.5270    3.1211    2.2804 H         1 RES1    0.0000
     10 C7         1.2214    2.2131    2.8922 C.ar      1 RES1    0.0000
     11 H4         1.2088    1.5188    2.2439 H         1 RES1    0.0000
     12 C8         2.2337    2.2707    3.8032 C.ar      1 RES1    0.0000
     13 H5         2.9195    1.6132    3.7867 H         1 RES1    0.0000
     14 C9         2.2738    3.3135    4.7853 C.ar      1 RES1    0.0000
     15 C10        3.2689    3.3799    5.7558 C.ar      1 RES1    0.0000
     16 H6         3.9434    2.7116    5.7698 H         1 RES1    0.0000
     17 C11        3.3075    4.4101    6.7206 C.ar      1 RES1    0.0000
     18 C12        4.2954    4.4201    7.7406 C.ar      1 RES1    0.0000
     19 C13        4.2895    5.4289    8.7099 C.ar      1 RES1    0.0000
     20 C14        5.2278    5.4162    9.7999 C.ar      1 RES1    0.0000
     21 H7         5.8407    4.6946    9.8758 H         1 RES1    0.0000
     22 C15        5.2566    6.4141   10.7238 C.ar      1 RES1    0.0000
     23 H8         5.8775    6.3774   11.4416 H         1 RES1    0.0000
     24 C16        4.3572    7.5141   10.6175 C.ar      1 RES1    0.0000
     25 H9         4.3962    8.2172   11.2549 H         1 RES1    0.0000
     26 C17        3.4438    7.5669    9.6103 C.ar      1 RES1    0.0000
     27 H10        2.8609    8.3146    9.5545 H         1 RES1    0.0000
     28 C18        3.3363    6.5198    8.6251 C.ar      1 RES1    0.0000
     29 C19        1.3672    7.6599    7.4501 C.3       1 RES1    0.0000
     30 H11        1.3319    8.1884    8.2870 H         1 RES1    0.0000
     31 H12        0.4669    7.2799    7.2939 H         1 RES1    0.0000
     32 C20        1.7315    8.5972    6.2745 C.3       1 RES1    0.0000
     33 H13        2.0973    8.0314    5.5351 H         1 RES1    0.0000
     34 C21        0.4871    9.3073    5.7455 C.3       1 RES1    0.0000
     35 H14        0.1104    9.8762    6.4500 H         1 RES1    0.0000
     36 H15       -0.1791    8.6417    5.4736 H         1 RES1    0.0000
     37 H16        0.7302    9.8603    4.9739 H         1 RES1    0.0000
     38 C22        2.8152    9.5925    6.6793 C.3       1 RES1    0.0000
     39 H17        3.1154   10.0889    5.8887 H         1 RES1    0.0000
     40 H18        3.5738    9.1088    7.0686 H         1 RES1    0.0000
     41 H19        2.4532   10.2191    7.3409 H         1 RES1    0.0000
     42 C23        5.3571    3.3663    7.7222 C.ar      1 RES1    0.0000
     43 C24        5.2633    2.2072    8.4812 C.ar      1 RES1    0.0000
     44 H20        4.5141    2.0754    9.0506 H         1 RES1    0.0000
     45 C25        6.2605    1.2361    8.4124 C.ar      1 RES1    0.0000
     46 H21        6.1859    0.4443    8.9327 H         1 RES1    0.0000
     47 C26        7.3583    1.4195    7.5902 C.ar      1 RES1    0.0000
     48 H22        8.0404    0.7584    7.5516 H         1 RES1    0.0000
     49 C27        7.4614    2.5654    6.8257 C.ar      1 RES1    0.0000
     50 H23        8.2141    2.6947    6.2601 H         1 RES1    0.0000
     51 C28        6.4627    3.5279    6.8873 C.ar      1 RES1    0.0000
     52 H24        6.5328    4.3099    6.3519 H         1 RES1    0.0000
@<TRIPOS>BOND
     1    1    2 ar
     2    2    3 ar
     3    3    4 1
     4    5    3 ar
     5    6    5 ar
     6    7    6 1
     7    8    6 ar
     8    9    8 1
     9   10    8 ar
    10   11   10 1
    11   12   10 ar
    12   13   12 1
    13   14    5 ar
    14   15   14 ar
    15   16   15 1
    16   17    2 ar
    17   18   17 ar
    18   19   18 ar
    19   20   19 ar
    20   21   20 1
    21   22   20 ar
    22   23   22 1
    23   24   22 ar
    24   25   24 1
    25   26   24 ar
    26   27   26 1
    27   28    1 ar
    28   29    1 1
    29   30   29 1
    30   31   29 1
    31   32   29 1
    32   33   32 1
    33   34   32 1
    34   35   34 1
    35   36   34 1
    36   37   34 1
    37   38   32 1
    38   39   38 1
    39   40   38 1
    40   41   38 1
    41   42   18 1
    42   43   42 ar
    43   44   43 1
    44   45   43 ar
    45   46   45 1
    46   47   45 ar
    47   48   47 1
    48   49   47 ar
    49   50   49 1
    50   51   42 ar
    51   52   51 1
    52   12   14 ar
    53   15   17 ar
    54   19   28 ar
    55   26   28 ar
    56   49   51 ar
@<TRIPOS>SUBSTRUCTURE
     1 RES1 1

@<TRIPOS>CRYSIN
  19.0506    9.9398   10.6781  90.0000 102.3300  90.0000  14 1

