# MOL2 file generated by ConQuest
# Please check atom types

@<TRIPOS>MOLECULE
ECUNEV
   188   198     2
SMALL
NO_CHARGES
****
Generated from CSD

@<TRIPOS>ATOM
      1 C1        11.7720    9.3819    3.6133 C.ar      1 RES1    0.0000
      2 C2        13.0231    9.8406    4.0203 C.ar      1 RES1    0.0000
      3 C3        13.6330   10.9098    3.3054 C.ar      1 RES1    0.0000
      4 C4        12.9268   11.6226    2.3665 C.ar      1 RES1    0.0000
      5 C5        11.5738   11.2336    2.0091 C.ar      1 RES1    0.0000
      6 C6        10.6938   12.0872    1.2145 C.ar      1 RES1    0.0000
      7 C7         9.8391   11.3957    0.3445 C.ar      1 RES1    0.0000
      8 C8         9.7001   10.0053    0.5577 C.ar      1 RES1    0.0000
      9 H1         9.1828    9.5386   -0.0883 H         1 RES1    0.0000
     10 C9        10.2067    9.2553    1.5569 C.ar      1 RES1    0.0000
     11 C10       11.1639    9.9301    2.4311 C.ar      1 RES1    0.0000
     12 C11       10.9920    8.5262    4.5521 C.ar      1 RES1    0.0000
     13 C12        9.8341    9.0937    5.0732 C.ar      1 RES1    0.0000
     14 H2         9.5783    9.9585    4.7718 H         1 RES1    0.0000
     15 C13        9.0369    8.4554    6.0078 C.ar      1 RES1    0.0000
     16 H3         8.2442    8.8673    6.3286 H         1 RES1    0.0000
     17 C14        9.4118    7.2100    6.4621 C.ar      1 RES1    0.0000
     18 H4         8.8719    6.7508    7.0931 H         1 RES1    0.0000
     19 C15       10.5751    6.6360    5.9949 C.ar      1 RES1    0.0000
     20 H5        10.8424    5.7846    6.3222 H         1 RES1    0.0000
     21 C16       11.3633    7.2897    5.0496 C.ar      1 RES1    0.0000
     22 H6        12.1651    6.8810    4.7438 H         1 RES1    0.0000
     23 C17       13.7864    9.1418    5.0883 C.ar      1 RES1    0.0000
     24 C18       13.5457    9.3253    6.4320 C.ar      1 RES1    0.0000
     25 H7        12.8353    9.8919    6.7098 H         1 RES1    0.0000
     26 C19       14.3344    8.6915    7.3881 C.ar      1 RES1    0.0000
     27 H8        14.1599    8.8266    8.3140 H         1 RES1    0.0000
     28 C20       15.3538    7.8810    7.0026 C.ar      1 RES1    0.0000
     29 H9        15.8959    7.4593    7.6594 H         1 RES1    0.0000
     30 C21       15.6045    7.6660    5.6697 C.ar      1 RES1    0.0000
     31 H10       16.3098    7.0895    5.3984 H         1 RES1    0.0000
     32 C22       14.8155    8.3018    4.7309 C.ar      1 RES1    0.0000
     33 H11       14.9903    8.1548    3.8092 H         1 RES1    0.0000
     34 C23       15.0415   11.2463    3.7037 C.ar      1 RES1    0.0000
     35 C24       15.2861   11.8059    4.9419 C.ar      1 RES1    0.0000
     36 H12       14.5539   12.0185    5.5082 H         1 RES1    0.0000
     37 C25       16.5687   12.0613    5.3747 C.ar      1 RES1    0.0000
     38 H13       16.7162   12.4425    6.2339 H         1 RES1    0.0000
     39 C26       17.6294   11.7675    4.5651 C.ar      1 RES1    0.0000
     40 H14       18.5160   11.9516    4.8558 H         1 RES1    0.0000
     41 C27       17.4108   11.2063    3.3269 C.ar      1 RES1    0.0000
     42 H15       18.1447   11.0001    2.7606 H         1 RES1    0.0000
     43 C28       16.1136   10.9412    2.9092 C.ar      1 RES1    0.0000
     44 H16       15.9672   10.5414    2.0607 H         1 RES1    0.0000
     45 C29       13.6229   12.6280    1.5224 C.ar      1 RES1    0.0000
     46 C30       14.3974   13.6665    2.0241 C.ar      1 RES1    0.0000
     47 H17       14.4663   13.7822    2.9651 H         1 RES1    0.0000
     48 C31       15.0726   14.5391    1.1822 C.ar      1 RES1    0.0000
     49 H18       15.5718   15.2566    1.5526 H         1 RES1    0.0000
     50 C32       15.0250   14.3763   -0.1852 C.ar      1 RES1    0.0000
     51 H19       15.4955   14.9671   -0.7623 H         1 RES1    0.0000
     52 C33       14.2801   13.3340   -0.6977 C.ar      1 RES1    0.0000
     53 H20       14.2363   13.2054   -1.6387 H         1 RES1    0.0000
     54 C34       13.5984   12.4765    0.1400 C.ar      1 RES1    0.0000
     55 H21       13.0986   11.7625   -0.2369 H         1 RES1    0.0000
     56 C35       10.5509   13.5996    1.6258 C.3       1 RES1    0.0000
     57 C36       11.2589   14.6770    0.7730 C.3       1 RES1    0.0000
     58 H22       10.9229   15.5636    1.0228 H         1 RES1    0.0000
     59 H23       11.0772   14.5150   -0.1744 H         1 RES1    0.0000
     60 H24       12.2249   14.6380    0.9324 H         1 RES1    0.0000
     61 C37       11.0088   13.7743    3.0965 C.3       1 RES1    0.0000
     62 H25       10.6952   14.6391    3.4346 H         1 RES1    0.0000
     63 H26       11.9878   13.7415    3.1396 H         1 RES1    0.0000
     64 H27       10.6332   13.0537    3.6434 H         1 RES1    0.0000
     65 C38        9.0454   13.9398    1.7184 C.3       1 RES1    0.0000
     66 H28        8.9358   14.8633    2.0220 H         1 RES1    0.0000
     67 H29        8.6124   13.3323    2.3536 H         1 RES1    0.0000
     68 H30        8.6323   13.8362    0.8355 H         1 RES1    0.0000
     69 C39        9.0315   11.8750   -0.9066 C.3       1 RES1    0.0000
     70 C40        7.5260   11.7990   -0.6395 C.3       1 RES1    0.0000
     71 H31        7.2882   12.4316    0.0711 H         1 RES1    0.0000
     72 H32        7.2902   10.8896   -0.3596 H         1 RES1    0.0000
     73 H33        7.0374   12.0270   -1.4557 H         1 RES1    0.0000
     74 C41        9.3952   13.2383   -1.4729 C.3       1 RES1    0.0000
     75 H34        9.1835   13.9324   -0.8140 H         1 RES1    0.0000
     76 H35        8.8835   13.3981   -2.2933 H         1 RES1    0.0000
     77 H36       10.3539   13.2620   -1.6753 H         1 RES1    0.0000
     78 C42        9.3682   10.8964   -2.0758 C.3       1 RES1    0.0000
     79 H37        8.9941   11.2440   -2.9113 H         1 RES1    0.0000
     80 H38        8.9821   10.0163   -1.8863 H         1 RES1    0.0000
     81 H39       10.3408   10.8143   -2.1619 H         1 RES1    0.0000
     82 C43        9.9707    7.7075    1.5224 C.3       1 RES1    0.0000
     83 C44        8.8596    7.2461    2.5129 C.3       1 RES1    0.0000
     84 H40        9.1857    7.3317    3.4324 H         1 RES1    0.0000
     85 H41        8.6301    6.3118    2.3342 H         1 RES1    0.0000
     86 H42        8.0635    7.8056    2.3945 H         1 RES1    0.0000
     87 C45       11.2686    6.9392    1.7248 C.3       1 RES1    0.0000
     88 H43       11.7351    7.2895    2.5129 H         1 RES1    0.0000
     89 H44       11.8382    7.0458    0.9345 H         1 RES1    0.0000
     90 H45       11.0691    5.9896    1.8583 H         1 RES1    0.0000
     91 C46        9.4621    7.2647    0.1206 C.3       1 RES1    0.0000
     92 H46        8.5819    7.6626   -0.0495 H         1 RES1    0.0000
     93 H47        9.3902    6.2879    0.0926 H         1 RES1    0.0000
     94 H48       10.0928    7.5662   -0.5663 H         1 RES1    0.0000
     95 C47        5.4722   14.9823    9.2593 C.ar      2 RES2    0.0000
     96 C48        4.2064   14.6323    8.7964 C.ar      2 RES2    0.0000
     97 C49        3.6091   15.3634    7.7218 C.ar      2 RES2    0.0000
     98 C50        4.3428   16.2994    7.0220 C.ar      2 RES2    0.0000
     99 C51        5.7008   16.5974    7.4204 C.ar      2 RES2    0.0000
    100 C52        6.5685   17.4298    6.5547 C.ar      2 RES2    0.0000
    101 C53        7.4309   18.2753    7.2546 C.ar      2 RES2    0.0000
    102 C54        7.6622   17.9777    8.6155 C.ar      2 RES2    0.0000
    103 H49        8.2251   18.5838    9.0828 H         2 RES2    0.0000
    104 C55        7.1784   16.9231    9.3541 C.ar      2 RES2    0.0000
    105 C56        6.1371   16.1455    8.6952 C.ar      2 RES2    0.0000
    106 C57        6.1893   13.9798   10.0711 C.ar      2 RES2    0.0000
    107 C58        7.2743   13.3330    9.5005 C.ar      2 RES2    0.0000
    108 H50        7.5693   13.6062    8.6392 H         2 RES2    0.0000
    109 C59        7.9336   12.3213   10.1293 C.ar      2 RES2    0.0000
    110 H51        8.6780   11.9092    9.7072 H         2 RES2    0.0000
    111 C60        7.5264   11.8881   11.3782 C.ar      2 RES2    0.0000
    112 H52        7.9895   11.1876   11.8218 H         2 RES2    0.0000
    113 C61        6.4348   12.4956   11.9682 C.ar      2 RES2    0.0000
    114 H53        6.1416   12.2071   12.8252 H         2 RES2    0.0000
    115 C62        5.7663   13.5154   11.3244 C.ar      2 RES2    0.0000
    116 H54        5.0062   13.9092   11.7357 H         2 RES2    0.0000
    117 C63        3.3907   13.5712    9.4574 C.ar      2 RES2    0.0000
    118 C64        3.5559   12.2173    9.2141 C.ar      2 RES2    0.0000
    119 H55        4.2846   11.9176    8.6844 H         2 RES2    0.0000
    120 C65        2.6610   11.2994    9.7460 C.ar      2 RES2    0.0000
    121 H56        2.7729   10.3745    9.5586 H         2 RES2    0.0000
    122 C66        1.6214   11.7054   10.5319 C.ar      2 RES2    0.0000
    123 H57        1.0177   11.0641   10.8894 H         2 RES2    0.0000
    124 C67        1.4471   13.0419   10.8076 C.ar      2 RES2    0.0000
    125 H58        0.7309   13.3321   11.3610 H         2 RES2    0.0000
    126 C68        2.3395   13.9663   10.2606 C.ar      2 RES2    0.0000
    127 H59        2.2225   14.8912   10.4480 H         2 RES2    0.0000
    128 C69        2.1927   14.9797    7.3665 C.ar      2 RES2    0.0000
    129 C70        1.9640   13.7421    6.7873 C.ar      2 RES2    0.0000
    130 H60        2.6974   13.1838    6.5569 H         2 RES2    0.0000
    131 C71        0.6664   13.3186    6.5418 C.ar      2 RES2    0.0000
    132 H61        0.5161   12.4586    6.1650 H         2 RES2    0.0000
    133 C72       -0.3864   14.1131    6.8347 C.ar      2 RES2    0.0000
    134 H62       -1.2702   13.8263    6.6366 H         2 RES2    0.0000
    135 C73       -0.1749   15.3419    7.4182 C.ar      2 RES2    0.0000
    136 H63       -0.9137   15.8962    7.6443 H         2 RES2    0.0000
    137 C74        1.1243   15.7713    7.6766 C.ar      2 RES2    0.0000
    138 H64        1.2690   16.6230    8.0750 H         2 RES2    0.0000
    139 C75        3.6518   17.1274    6.0121 C.ar      2 RES2    0.0000
    140 C76        2.9062   16.5952    4.9440 C.ar      2 RES2    0.0000
    141 H65        2.8759   15.6556    4.8170 H         2 RES2    0.0000
    142 C77        2.2198   17.4217    4.0806 C.ar      2 RES2    0.0000
    143 H66        1.7310   17.0403    3.3592 H         2 RES2    0.0000
    144 C78        2.2284   18.7814    4.2442 C.ar      2 RES2    0.0000
    145 H67        1.7503   19.3399    3.6434 H         2 RES2    0.0000
    146 C79        2.9368   19.3295    5.2886 C.ar      2 RES2    0.0000
    147 H68        2.9473   20.2719    5.4135 H         2 RES2    0.0000
    148 C80        3.6340   18.5095    6.1521 C.ar      2 RES2    0.0000
    149 H69        4.1185   18.9039    6.8670 H         2 RES2    0.0000
    150 C81        6.6860   17.0051    5.0474 C.3       2 RES2    0.0000
    151 C82        5.9780   17.8125    3.9384 C.3       2 RES2    0.0000
    152 H70        6.3001   17.5161    3.0620 H         2 RES2    0.0000
    153 H71        6.1763   18.7671    4.0526 H         2 RES2    0.0000
    154 H72        5.0102   17.6706    3.9966 H         2 RES2    0.0000
    155 C83        6.2772   15.5152    4.8902 C.3       2 RES2    0.0000
    156 H73        6.6083   15.1730    4.0332 H         2 RES2    0.0000
    157 H74        5.3009   15.4392    4.9182 H         2 RES2    0.0000
    158 H75        6.6661   14.9920    5.6223 H         2 RES2    0.0000
    159 C84        8.2050   16.9645    4.7136 C.3       2 RES2    0.0000
    160 H76        8.3293   16.6749    3.7856 H         2 RES2    0.0000
    161 H77        8.6546   16.3342    5.3166 H         2 RES2    0.0000
    162 H78        8.5898   17.8590    4.8321 H         2 RES2    0.0000
    163 C85        8.1151   19.5852    6.7938 C.3       2 RES2    0.0000
    164 C86        9.6416   19.4823    6.8239 C.3       2 RES2    0.0000
    165 H79        9.9343   19.2353    7.7262 H         2 RES2    0.0000
    166 H80       10.0321   20.3480    6.5806 H         2 RES2    0.0000
    167 H81        9.9358   18.7991    6.1865 H         2 RES2    0.0000
    168 C87        7.6669   20.1694    5.4458 C.3       2 RES2    0.0000
    169 H82        7.9827   19.5926    4.7179 H         2 RES2    0.0000
    170 H83        8.0428   21.0682    5.3381 H         2 RES2    0.0000
    171 H84        6.6884   20.2186    5.4199 H         2 RES2    0.0000
    172 C88        7.6780   20.6846    7.8037 C.3       2 RES2    0.0000
    173 H85        8.0603   20.4892    8.6844 H         2 RES2    0.0000
    174 H86        6.7003   20.6992    7.8661 H         2 RES2    0.0000
    175 H87        7.9983   21.5572    7.4936 H         2 RES2    0.0000
    176 C89        7.6099   16.8649   10.8549 C.3       2 RES2    0.0000
    177 C90        8.6670   15.7718   11.1392 C.3       2 RES2    0.0000
    178 H88        8.2387   14.8908   11.1241 H         2 RES2    0.0000
    179 H89        9.0673   15.9247   12.0199 H         2 RES2    0.0000
    180 H90        9.3658   15.8069   10.4523 H         2 RES2    0.0000
    181 C91        6.3829   16.7215   11.7615 C.3       2 RES2    0.0000
    182 H91        5.7641   16.0678   11.3739 H         2 RES2    0.0000
    183 H92        5.9340   17.5891   11.8433 H         2 RES2    0.0000
    184 H93        6.6655   16.4168   12.6487 H         2 RES2    0.0000
    185 C92        8.2820   18.1877   11.3114 C.3       2 RES2    0.0000
    186 H94        9.1336   18.2997   10.8399 H         2 RES2    0.0000
    187 H95        8.4440   18.1543   12.2761 H         2 RES2    0.0000
    188 H96        7.6915   18.9418   11.1026 H         2 RES2    0.0000
@<TRIPOS>BOND
     1    1    2 ar
     2    2    3 ar
     3    3    4 ar
     4    4    5 ar
     5    5    6 ar
     6    6    7 ar
     7    7    8 ar
     8    8    9 1
     9   10    8 ar
    10   11    1 ar
    11   12    1 1
    12   13   12 ar
    13   14   13 1
    14   15   13 ar
    15   16   15 1
    16   17   15 ar
    17   18   17 1
    18   19   17 ar
    19   20   19 1
    20   21   12 ar
    21   22   21 1
    22   23    2 1
    23   24   23 ar
    24   25   24 1
    25   26   24 ar
    26   27   26 1
    27   28   26 ar
    28   29   28 1
    29   30   28 ar
    30   31   30 1
    31   32   23 ar
    32   33   32 1
    33   34    3 1
    34   35   34 ar
    35   36   35 1
    36   37   35 ar
    37   38   37 1
    38   39   37 ar
    39   40   39 1
    40   41   39 ar
    41   42   41 1
    42   43   34 ar
    43   44   43 1
    44   45    4 1
    45   46   45 ar
    46   47   46 1
    47   48   46 ar
    48   49   48 1
    49   50   48 ar
    50   51   50 1
    51   52   50 ar
    52   53   52 1
    53   54   45 ar
    54   55   54 1
    55   56    6 1
    56   57   56 1
    57   58   57 1
    58   59   57 1
    59   60   57 1
    60   61   56 1
    61   62   61 1
    62   63   61 1
    63   64   61 1
    64   65   56 1
    65   66   65 1
    66   67   65 1
    67   68   65 1
    68   69    7 1
    69   70   69 1
    70   71   70 1
    71   72   70 1
    72   73   70 1
    73   74   69 1
    74   75   74 1
    75   76   74 1
    76   77   74 1
    77   78   69 1
    78   79   78 1
    79   80   78 1
    80   81   78 1
    81   82   10 1
    82   83   82 1
    83   84   83 1
    84   85   83 1
    85   86   83 1
    86   87   82 1
    87   88   87 1
    88   89   87 1
    89   90   87 1
    90   91   82 1
    91   92   91 1
    92   93   91 1
    93   94   91 1
    94   95   96 ar
    95   96   97 ar
    96   97   98 ar
    97   98   99 ar
    98   99  100 ar
    99  100  101 ar
   100  101  102 ar
   101  102  103 1
   102  104  102 ar
   103  105   95 ar
   104  106   95 1
   105  107  106 ar
   106  108  107 1
   107  109  107 ar
   108  110  109 1
   109  111  109 ar
   110  112  111 1
   111  113  111 ar
   112  114  113 1
   113  115  106 ar
   114  116  115 1
   115  117   96 1
   116  118  117 ar
   117  119  118 1
   118  120  118 ar
   119  121  120 1
   120  122  120 ar
   121  123  122 1
   122  124  122 ar
   123  125  124 1
   124  126  117 ar
   125  127  126 1
   126  128   97 1
   127  129  128 ar
   128  130  129 1
   129  131  129 ar
   130  132  131 1
   131  133  131 ar
   132  134  133 1
   133  135  133 ar
   134  136  135 1
   135  137  128 ar
   136  138  137 1
   137  139   98 1
   138  140  139 ar
   139  141  140 1
   140  142  140 ar
   141  143  142 1
   142  144  142 ar
   143  145  144 1
   144  146  144 ar
   145  147  146 1
   146  148  139 ar
   147  149  148 1
   148  150  100 1
   149  151  150 1
   150  152  151 1
   151  153  151 1
   152  154  151 1
   153  155  150 1
   154  156  155 1
   155  157  155 1
   156  158  155 1
   157  159  150 1
   158  160  159 1
   159  161  159 1
   160  162  159 1
   161  163  101 1
   162  164  163 1
   163  165  164 1
   164  166  164 1
   165  167  164 1
   166  168  163 1
   167  169  168 1
   168  170  168 1
   169  171  168 1
   170  172  163 1
   171  173  172 1
   172  174  172 1
   173  175  172 1
   174  176  104 1
   175  177  176 1
   176  178  177 1
   177  179  177 1
   178  180  177 1
   179  181  176 1
   180  182  181 1
   181  183  181 1
   182  184  181 1
   183  185  176 1
   184  186  185 1
   185  187  185 1
   186  188  185 1
   187    5   11 ar
   188   10   11 ar
   189   19   21 ar
   190   30   32 ar
   191   41   43 ar
   192   52   54 ar
   193   99  105 ar
   194  104  105 ar
   195  113  115 ar
   196  124  126 ar
   197  135  137 ar
   198  146  148 ar
@<TRIPOS>SUBSTRUCTURE
     1 RES1 1
     2 RES2 95

@<TRIPOS>CRYSIN
  10.1358   16.5748   22.1720  76.8600  82.7620  75.5250   2 1

