# MOL2 file generated by ConQuest
# Please check atom types

@<TRIPOS>MOLECULE
EGAJEB
    54    59     1
SMALL
NO_CHARGES
****
Generated from CSD

@<TRIPOS>ATOM
      1 C1         4.3403    3.7755    4.8417 C.3       1 RES1    0.0000
      2 C2         4.5239    2.7030    5.9054 C.3       1 RES1    0.0000
      3 C3         4.6970    1.3063    5.2585 C.3       1 RES1    0.0000
      4 C4         3.6443    0.2901    5.6855 C.3       1 RES1    0.0000
      5 C5         2.2666    0.8984    5.6317 C.ar      1 RES1    0.0000
      6 C6         1.1568    0.2702    5.0165 C.ar      1 RES1    0.0000
      7 C7        -0.0583    0.8801    4.9801 C.ar      1 RES1    0.0000
      8 C8        -0.2542    2.1595    5.5429 C.ar      1 RES1    0.0000
      9 C9        -1.5078    2.8282    5.5042 C.ar      1 RES1    0.0000
     10 C10       -1.6707    4.0645    6.0383 C.ar      1 RES1    0.0000
     11 C11       -0.5781    4.7156    6.6267 C.ar      1 RES1    0.0000
     12 C12        0.6448    4.1155    6.6912 C.ar      1 RES1    0.0000
     13 C13        0.8497    2.8115    6.1716 C.ar      1 RES1    0.0000
     14 C14        2.1079    2.1331    6.2311 C.ar      1 RES1    0.0000
     15 C15        3.3401    2.6705    6.8727 C.2       1 RES1    0.0000
     16 C16        3.4247    2.9515    8.1889 C.2       1 RES1    0.0000
     17 C17        2.2761    2.7285    9.1221 C.ar      1 RES1    0.0000
     18 C18        1.7143    1.4609    9.2346 C.ar      1 RES1    0.0000
     19 C19        0.6448    1.2145   10.0783 C.ar      1 RES1    0.0000
     20 C20        0.1179    2.2403   10.8312 C.ar      1 RES1    0.0000
     21 C21        0.6494    3.4963   10.7288 C.ar      1 RES1    0.0000
     22 C22        1.7488    3.7738    9.8943 C.ar      1 RES1    0.0000
     23 C23        2.2867    5.1338    9.8557 C.2       1 RES1    0.0000
     24 C24        3.5579    5.5075    9.6744 C.2       1 RES1    0.0000
     25 C25        4.7327    4.6416    9.5135 C.ar      1 RES1    0.0000
     26 C26        5.9706    5.0568   10.0508 C.ar      1 RES1    0.0000
     27 C27        7.0762    4.2582    9.9944 C.ar      1 RES1    0.0000
     28 C28        7.0121    3.0159    9.4060 C.ar      1 RES1    0.0000
     29 C29        5.8235    2.5917    8.8507 C.ar      1 RES1    0.0000
     30 C30        4.6805    3.4012    8.8589 C.ar      1 RES1    0.0000
     31 H1         5.0798    3.7111    4.1696 H         1 RES1    0.0000
     32 H2         3.4792    3.6558    4.3250 H         1 RES1    0.0000
     33 H3         4.2326    4.6792    5.1806 H         1 RES1    0.0000
     34 H4         5.3623    2.9324    6.4206 H         1 RES1    0.0000
     35 H5         5.6576    0.9899    5.4296 H         1 RES1    0.0000
     36 H6         4.6753    1.4559    4.3350 H         1 RES1    0.0000
     37 H7         3.6878   -0.5329    5.1355 H         1 RES1    0.0000
     38 H8         3.8345   -0.0142    6.6947 H         1 RES1    0.0000
     39 H9         1.3171   -0.6102    4.6442 H         1 RES1    0.0000
     40 H10       -0.8275    0.4351    4.5456 H         1 RES1    0.0000
     41 H11       -2.2379    2.3788    5.1004 H         1 RES1    0.0000
     42 H12       -2.5720    4.4886    6.0680 H         1 RES1    0.0000
     43 H13       -0.6790    5.6176    7.0072 H         1 RES1    0.0000
     44 H14        1.4338    4.5723    7.0640 H         1 RES1    0.0000
     45 H15        2.1157    0.7466    8.6817 H         1 RES1    0.0000
     46 H16        0.2470    0.3205   10.1407 H         1 RES1    0.0000
     47 H17       -0.6523    2.0802   11.4158 H         1 RES1    0.0000
     48 H18        0.2976    4.2595   11.2336 H         1 RES1    0.0000
     49 H19        1.6446    5.8493   10.0521 H         1 RES1    0.0000
     50 H20        3.7710    6.4440    9.7463 H         1 RES1    0.0000
     51 H21        5.9400    5.9149   10.4582 H         1 RES1    0.0000
     52 H22        7.9131    4.5337   10.3362 H         1 RES1    0.0000
     53 H23        7.8506    2.4715    9.3435 H         1 RES1    0.0000
     54 H24        5.7522    1.6927    8.4010 H         1 RES1    0.0000
@<TRIPOS>BOND
     1    1    2 1
     2    2    3 1
     3    3    4 1
     4    4    5 1
     5    5    6 ar
     6    6    7 ar
     7    7    8 ar
     8    8    9 ar
     9    9   10 ar
    10   10   11 ar
    11   11   12 ar
    12   12   13 ar
    13   13    8 ar
    14   14    5 ar
    15   15    2 1
    16   16   15 2
    17   17   16 1
    18   18   17 ar
    19   19   18 ar
    20   20   19 ar
    21   21   20 ar
    22   22   17 ar
    23   23   22 1
    24   24   23 2
    25   25   24 1
    26   26   25 ar
    27   27   26 ar
    28   28   27 ar
    29   29   28 ar
    30   30   16 1
    31   31    1 1
    32   32    1 1
    33   33    1 1
    34   34    2 1
    35   35    3 1
    36   36    3 1
    37   37    4 1
    38   38    4 1
    39   39    6 1
    40   40    7 1
    41   41    9 1
    42   42   10 1
    43   43   11 1
    44   44   12 1
    45   45   18 1
    46   46   19 1
    47   47   20 1
    48   48   21 1
    49   49   23 1
    50   50   24 1
    51   51   26 1
    52   52   27 1
    53   53   28 1
    54   54   29 1
    55   13   14 ar
    56   14   15 1
    57   21   22 ar
    58   25   30 ar
    59   29   30 ar
@<TRIPOS>SUBSTRUCTURE
     1 RES1 1

@<TRIPOS>CRYSIN
  10.0860   12.8725   16.8120  90.0000  96.2610  90.0000  14 1

