# MOL2 file generated by ConQuest
# Please check atom types

@<TRIPOS>MOLECULE
EGAJAX
    59    64     1
SMALL
NO_CHARGES
****
Generated from CSD

@<TRIPOS>ATOM
      1 C1         6.2546   -0.3159    2.7963 C.ar      1 RES1    0.0000
      2 C2         6.1359   -1.5992    2.2736 C.ar      1 RES1    0.0000
      3 C3         7.1134   -2.5480    2.4860 C.ar      1 RES1    0.0000
      4 C4         8.2293   -2.2164    3.1987 C.ar      1 RES1    0.0000
      5 C5         8.3839   -0.9389    3.6929 C.ar      1 RES1    0.0000
      6 C6         7.4150    0.0339    3.4966 C.ar      1 RES1    0.0000
      7 C7         7.5383    1.4637    4.0061 C.3       1 RES1    0.0000
      8 C8         7.0316    2.3998    2.9041 C.ar      1 RES1    0.0000
      9 C9         7.6351    3.6198    2.6247 C.ar      1 RES1    0.0000
     10 C10        7.1501    4.4385    1.6282 C.ar      1 RES1    0.0000
     11 C11        6.0724    4.0566    0.8766 C.ar      1 RES1    0.0000
     12 C12        5.4461    2.8546    1.1430 C.ar      1 RES1    0.0000
     13 C13        5.9021    2.0303    2.1702 C.ar      1 RES1    0.0000
     14 C14        5.2483    0.7412    2.5153 C.2       1 RES1    0.0000
     15 C15        3.9186    0.5656    2.5954 C.2       1 RES1    0.0000
     16 C16        2.8843    1.5188    2.1117 C.ar      1 RES1    0.0000
     17 C17        2.6296    2.8277    2.6182 C.ar      1 RES1    0.0000
     18 C18        3.3946    3.4217    3.6421 C.ar      1 RES1    0.0000
     19 C19        3.1301    4.6897    4.0732 C.ar      1 RES1    0.0000
     20 C20        2.0713    5.4150    3.5084 C.ar      1 RES1    0.0000
     21 C21        1.3099    4.8691    2.5374 C.ar      1 RES1    0.0000
     22 C22        1.5649    3.5703    2.0531 C.ar      1 RES1    0.0000
     23 C23        0.7974    2.9968    1.0181 C.ar      1 RES1    0.0000
     24 C24        1.0582    1.7514    0.5545 C.ar      1 RES1    0.0000
     25 C25        2.0956    0.9915    1.1087 C.ar      1 RES1    0.0000
     26 C26        2.3922   -0.4098    0.6753 C.3       1 RES1    0.0000
     27 C27        2.4223   -1.3287    1.8953 C.3       1 RES1    0.0000
     28 C28        3.2487   -0.7232    3.0596 C.3       1 RES1    0.0000
     29 C29        6.6354    1.6140    5.2496 C.3       1 RES1    0.0000
     30 C30        8.9754    1.7985    4.4173 C.3       1 RES1    0.0000
     31 C31        2.4003   -0.4429    4.2989 C.3       1 RES1    0.0000
     32 H1         5.3351   -1.8004    1.7100 H         1 RES1    0.0000
     33 H2         7.0118   -3.4274    2.1078 H         1 RES1    0.0000
     34 H3         8.9364   -2.8697    3.3594 H         1 RES1    0.0000
     35 H4         9.1860   -0.6849    4.1957 H         1 RES1    0.0000
     36 H5         8.4339    3.8896    3.1479 H         1 RES1    0.0000
     37 H6         7.6240    5.3024    1.4301 H         1 RES1    0.0000
     38 H7         5.7134    4.5978    0.1664 H         1 RES1    0.0000
     39 H8         4.6612    2.5611    0.6126 H         1 RES1    0.0000
     40 H9         4.1279    2.9029    4.0668 H         1 RES1    0.0000
     41 H10        3.6909    5.0504    4.8105 H         1 RES1    0.0000
     42 H11        1.9125    6.3088    3.8189 H         1 RES1    0.0000
     43 H12        0.5568    5.3579    2.1144 H         1 RES1    0.0000
     44 H13        0.0851    3.4804    0.6567 H         1 RES1    0.0000
     45 H14        0.5179    1.3317   -0.1917 H         1 RES1    0.0000
     46 H15        1.7072   -0.7234   -0.0033 H         1 RES1    0.0000
     47 H16        3.3115   -0.3864    0.2237 H         1 RES1    0.0000
     48 H17        1.5169   -1.4979    2.2312 H         1 RES1    0.0000
     49 H18        2.8007   -2.2319    1.6208 H         1 RES1    0.0000
     50 H19        3.9544   -1.3723    3.3484 H         1 RES1    0.0000
     51 H20        6.9789    1.0153    5.9795 H         1 RES1    0.0000
     52 H21        6.6432    2.5417    5.5751 H         1 RES1    0.0000
     53 H22        5.6575    1.3656    5.0264 H         1 RES1    0.0000
     54 H23        9.2728    1.1435    5.1300 H         1 RES1    0.0000
     55 H24        9.0371    2.7270    4.7675 H         1 RES1    0.0000
     56 H25        9.6034    1.7264    3.6338 H         1 RES1    0.0000
     57 H26        1.6477    0.2474    4.1175 H         1 RES1    0.0000
     58 H27        1.9842   -1.2852    4.6100 H         1 RES1    0.0000
     59 H28        3.0025   -0.0513    5.0353 H         1 RES1    0.0000
@<TRIPOS>BOND
     1    1    2 ar
     2    2    3 ar
     3    3    4 ar
     4    4    5 ar
     5    5    6 ar
     6    6    1 ar
     7    7    6 1
     8    8    7 1
     9    9    8 ar
    10   10    9 ar
    11   11   10 ar
    12   12   11 ar
    13   13    8 ar
    14   14    1 1
    15   15   14 2
    16   16   15 1
    17   17   16 ar
    18   18   17 ar
    19   19   18 ar
    20   20   19 ar
    21   21   20 ar
    22   22   17 ar
    23   23   22 ar
    24   24   23 ar
    25   25   16 ar
    26   26   25 1
    27   27   26 1
    28   28   15 1
    29   29    7 1
    30   30    7 1
    31   31   28 1
    32   32    2 1
    33   33    3 1
    34   34    4 1
    35   35    5 1
    36   36    9 1
    37   37   10 1
    38   38   11 1
    39   39   12 1
    40   40   18 1
    41   41   19 1
    42   42   20 1
    43   43   21 1
    44   44   23 1
    45   45   24 1
    46   46   26 1
    47   47   26 1
    48   48   27 1
    49   49   27 1
    50   50   28 1
    51   51   29 1
    52   52   29 1
    53   53   29 1
    54   54   30 1
    55   55   30 1
    56   56   30 1
    57   57   31 1
    58   58   31 1
    59   59   31 1
    60   12   13 ar
    61   13   14 1
    62   21   22 ar
    63   24   25 ar
    64   27   28 1
@<TRIPOS>SUBSTRUCTURE
     1 RES1 1

@<TRIPOS>CRYSIN
  10.0340   10.3070   11.5660 100.0890 102.1350 101.1100   2 1

