# MOL2 file generated by ConQuest
# Please check atom types

@<TRIPOS>MOLECULE
EHUCIU
   106   109     1
SMALL
NO_CHARGES
****
Generated from CSD

@<TRIPOS>ATOM
      1 C1        -1.8842    5.9374    8.0412 C.ar      1 RES1    0.0000
      2 H1        -1.5343    5.2991    8.6517 H         1 RES1    0.0000
      3 C2        -3.1703    6.4355    8.2401 C.ar      1 RES1    0.0000
      4 C3        -3.7100    7.3751    7.3358 C.ar      1 RES1    0.0000
      5 C4        -2.9264    7.8022    6.2243 C.ar      1 RES1    0.0000
      6 C5        -1.6050    7.2946    6.0464 C.ar      1 RES1    0.0000
      7 C6        -1.1009    6.3544    6.9680 C.ar      1 RES1    0.0000
      8 C7        -5.0357    7.9006    7.4718 C.ar      1 RES1    0.0000
      9 H2        -5.5680    7.6260    8.2087 H         1 RES1    0.0000
     10 C8        -0.8480    7.7524    4.9223 C.ar      1 RES1    0.0000
     11 H3         0.0379    7.4326    4.8000 H         1 RES1    0.0000
     12 C9        -3.9645    5.9172    9.3229 C.1       1 RES1    0.0000
     13 C10       -4.6494    5.4422   10.1860 C.1       1 RES1    0.0000
     14 C11       -5.5441    4.8686   11.1967 C.3       1 RES1    0.0000
     15 H4        -5.4446    5.3787   12.0397 H         1 RES1    0.0000
     16 H5        -5.2697    3.9344   11.3757 H         1 RES1    0.0000
     17 C12       -7.0041    4.8831   10.7821 C.3       1 RES1    0.0000
     18 H6        -7.1050    4.3693    9.9418 H         1 RES1    0.0000
     19 H7        -7.2793    5.8167   10.6012 H         1 RES1    0.0000
     20 C13       -7.9222    4.2906   11.8385 C.3       1 RES1    0.0000
     21 H8        -7.6169    3.3726   12.0489 H         1 RES1    0.0000
     22 H9        -7.8461    4.8293   12.6657 H         1 RES1    0.0000
     23 C14       -9.3811    4.2383   11.4210 C.3       1 RES1    0.0000
     24 H10       -9.4498    3.7139   10.5839 H         1 RES1    0.0000
     25 H11       -9.6854    5.1590   11.2226 H         1 RES1    0.0000
     26 C15      -10.3200    3.6288   12.4532 C.3       1 RES1    0.0000
     27 H12      -11.2036    3.4785   12.0328 H         1 RES1    0.0000
     28 H13       -9.9639    2.7473   12.7290 H         1 RES1    0.0000
     29 C16      -10.5050    4.4880   13.6819 C.3       1 RES1    0.0000
     30 H14      -11.1096    4.0364   14.3079 H         1 RES1    0.0000
     31 H15      -10.8886    5.3513   13.4230 H         1 RES1    0.0000
     32 H16       -9.6370    4.6324   14.1134 H         1 RES1    0.0000
     33 C17        0.2003    5.7739    6.7847 C.1       1 RES1    0.0000
     34 C18        1.2746    5.2714    6.6246 C.1       1 RES1    0.0000
     35 C19        2.5989    4.6875    6.3879 C.3       1 RES1    0.0000
     36 H17        2.5250    3.7006    6.4180 H         1 RES1    0.0000
     37 H18        3.2085    4.9666    7.1166 H         1 RES1    0.0000
     38 C20        3.2039    5.0989    5.0501 C.3       1 RES1    0.0000
     39 H19        2.6214    4.7770    4.3167 H         1 RES1    0.0000
     40 H20        3.2392    6.0864    4.9991 H         1 RES1    0.0000
     41 C21        4.6058    4.5374    4.8580 C.3       1 RES1    0.0000
     42 H21        5.1583    4.7940    5.6389 H         1 RES1    0.0000
     43 H22        4.5516    3.5489    4.8426 H         1 RES1    0.0000
     44 C22        5.3056    5.0032    3.5960 C.3       1 RES1    0.0000
     45 H23        5.3369    5.9926    3.5894 H         1 RES1    0.0000
     46 H24        4.7807    4.7110    2.8091 H         1 RES1    0.0000
     47 C23        6.7225    4.4606    3.4769 C.3       1 RES1    0.0000
     48 H25        7.2352    4.7310    4.2798 H         1 RES1    0.0000
     49 H26        6.6845    3.4714    3.4639 H         1 RES1    0.0000
     50 C24        7.4633    4.9386    2.2392 C.3       1 RES1    0.0000
     51 H27        8.3596    4.5414    2.2210 H         1 RES1    0.0000
     52 H28        7.5396    5.9148    2.2602 H         1 RES1    0.0000
     53 H29        6.9700    4.6660    1.4374 H         1 RES1    0.0000
     54 C1A       -4.5087   10.5859    3.4668 C.ar      1 RES1    0.0000
     55 H1A       -4.8586   11.2241    2.8563 H         1 RES1    0.0000
     56 C2A       -3.2226   10.0878    3.2679 C.ar      1 RES1    0.0000
     57 C3A       -2.6829    9.1482    4.1722 C.ar      1 RES1    0.0000
     58 C4A       -3.4665    8.7211    5.2837 C.ar      1 RES1    0.0000
     59 C5A       -4.7879    9.2286    5.4616 C.ar      1 RES1    0.0000
     60 C6A       -5.2920   10.1689    4.5400 C.ar      1 RES1    0.0000
     61 C7A       -1.3573    8.6227    4.0362 C.ar      1 RES1    0.0000
     62 H2A       -0.8249    8.8972    3.2994 H         1 RES1    0.0000
     63 C8A       -5.5449    8.7708    6.5857 C.ar      1 RES1    0.0000
     64 H3A       -6.4308    9.0906    6.7080 H         1 RES1    0.0000
     65 C9A       -2.4284   10.6061    2.1851 C.1       1 RES1    0.0000
     66 C10A      -1.7435   11.0811    1.3220 C.1       1 RES1    0.0000
     67 C11A      -0.8488   11.6547    0.3113 C.3       1 RES1    0.0000
     68 H4A       -0.9483   11.1445   -0.5317 H         1 RES1    0.0000
     69 H5A       -1.1232   12.5888    0.1323 H         1 RES1    0.0000
     70 C12A       0.6111   11.6402    0.7259 C.3       1 RES1    0.0000
     71 H6A        0.7121   12.1540    1.5662 H         1 RES1    0.0000
     72 H7A        0.8864   10.7065    0.9068 H         1 RES1    0.0000
     73 C13A       1.5293   12.2327   -0.3305 C.3       1 RES1    0.0000
     74 H8A        1.2240   13.1507   -0.5409 H         1 RES1    0.0000
     75 H9A        1.4532   11.6939   -1.1577 H         1 RES1    0.0000
     76 C14A       2.9882   12.2849    0.0870 C.3       1 RES1    0.0000
     77 H10A       3.0569   12.8093    0.9241 H         1 RES1    0.0000
     78 H11A       3.2925   11.3642    0.2854 H         1 RES1    0.0000
     79 C15A       3.9271   12.8945   -0.9452 C.3       1 RES1    0.0000
     80 H12A       4.8107   13.0447   -0.5248 H         1 RES1    0.0000
     81 H13A       3.5710   13.7760   -1.2210 H         1 RES1    0.0000
     82 C16A       4.1121   12.0353   -2.1739 C.3       1 RES1    0.0000
     83 H14A       4.7167   12.4869   -2.7999 H         1 RES1    0.0000
     84 H15A       4.4956   11.1719   -1.9149 H         1 RES1    0.0000
     85 H16A       3.2440   11.8909   -2.6054 H         1 RES1    0.0000
     86 C17A      -6.5932   10.7494    4.7234 C.1       1 RES1    0.0000
     87 C18A      -7.6675   11.2518    4.8834 C.1       1 RES1    0.0000
     88 C19A      -8.9918   11.8358    5.1201 C.3       1 RES1    0.0000
     89 H17A      -8.9179   12.8226    5.0900 H         1 RES1    0.0000
     90 H18A      -9.6014   11.5566    4.3915 H         1 RES1    0.0000
     91 C20A      -9.5968   11.4243    6.4580 C.3       1 RES1    0.0000
     92 H19A      -9.0143   11.7463    7.1914 H         1 RES1    0.0000
     93 H20A      -9.6321   10.4369    6.5089 H         1 RES1    0.0000
     94 C21A     -10.9987   11.9858    6.6500 C.3       1 RES1    0.0000
     95 H21A     -11.5512   11.7292    5.8691 H         1 RES1    0.0000
     96 H22A     -10.9445   12.9743    6.6654 H         1 RES1    0.0000
     97 C22A     -11.6985   11.5201    7.9120 C.3       1 RES1    0.0000
     98 H23A     -11.7298   10.5306    7.9187 H         1 RES1    0.0000
     99 H24A     -11.1736   11.8122    8.6989 H         1 RES1    0.0000
    100 C23A     -13.1155   12.0627    8.0311 C.3       1 RES1    0.0000
    101 H25A     -13.6281   11.7923    7.2282 H         1 RES1    0.0000
    102 H26A     -13.0774   13.0518    8.0441 H         1 RES1    0.0000
    103 C24A     -13.8562   11.5847    9.2688 C.3       1 RES1    0.0000
    104 H27A     -14.7525   11.9818    9.2870 H         1 RES1    0.0000
    105 H28A     -13.9325   10.6084    9.2478 H         1 RES1    0.0000
    106 H29A     -13.3629   11.8573   10.0707 H         1 RES1    0.0000
@<TRIPOS>BOND
     1    1    2 1
     2    3    1 ar
     3    4    3 ar
     4    5    4 ar
     5    6    5 ar
     6    7    1 ar
     7    8    4 ar
     8    9    8 1
     9   10    6 ar
    10   11   10 1
    11   12    3 1
    12   13   12 3
    13   14   13 1
    14   15   14 1
    15   16   14 1
    16   17   14 1
    17   18   17 1
    18   19   17 1
    19   20   17 1
    20   21   20 1
    21   22   20 1
    22   23   20 1
    23   24   23 1
    24   25   23 1
    25   26   23 1
    26   27   26 1
    27   28   26 1
    28   29   26 1
    29   30   29 1
    30   31   29 1
    31   32   29 1
    32   33    7 1
    33   34   33 3
    34   35   34 1
    35   36   35 1
    36   37   35 1
    37   38   35 1
    38   39   38 1
    39   40   38 1
    40   41   38 1
    41   42   41 1
    42   43   41 1
    43   44   41 1
    44   45   44 1
    45   46   44 1
    46   47   44 1
    47   48   47 1
    48   49   47 1
    49   50   47 1
    50   51   50 1
    51   52   50 1
    52   53   50 1
    53   54   55 1
    54   56   54 ar
    55   57   56 ar
    56   58    5 ar
    57   59   58 ar
    58   60   54 ar
    59   61   10 ar
    60   62   61 1
    61   63    8 ar
    62   64   63 1
    63   65   56 1
    64   66   65 3
    65   67   66 1
    66   68   67 1
    67   69   67 1
    68   70   67 1
    69   71   70 1
    70   72   70 1
    71   73   70 1
    72   74   73 1
    73   75   73 1
    74   76   73 1
    75   77   76 1
    76   78   76 1
    77   79   76 1
    78   80   79 1
    79   81   79 1
    80   82   79 1
    81   83   82 1
    82   84   82 1
    83   85   82 1
    84   86   60 1
    85   87   86 3
    86   88   87 1
    87   89   88 1
    88   90   88 1
    89   91   88 1
    90   92   91 1
    91   93   91 1
    92   94   91 1
    93   95   94 1
    94   96   94 1
    95   97   94 1
    96   98   97 1
    97   99   97 1
    98  100   97 1
    99  101  100 1
   100  102  100 1
   101  103  100 1
   102  104  103 1
   103  105  103 1
   104  106  103 1
   105    6    7 ar
   106   57   58 ar
   107   57   61 ar
   108   59   60 ar
   109   59   63 ar
@<TRIPOS>SUBSTRUCTURE
     1 RES1 1

@<TRIPOS>CRYSIN
   8.4918    9.8418   12.6119 101.6410 109.3230  96.4750   2 1

