# MOL2 file generated by ConQuest
# Please check atom types

@<TRIPOS>MOLECULE
EKEZAV
    52    60     1
SMALL
NO_CHARGES
****
Generated from CSD

@<TRIPOS>ATOM
      1 C1         6.2151    6.3618    7.3063 C.3       1 RES1    0.0000
      2 C2         6.5583    5.3045    6.2142 C.3       1 RES1    0.0000
      3 H1         7.0067    4.4504    6.3856 H         1 RES1    0.0000
      4 C3         7.0825    6.3876    5.2584 C.3       1 RES1    0.0000
      5 H2         7.9231    6.3398    4.7574 H         1 RES1    0.0000
      6 C4         5.6651    6.5331    4.6277 C.3       1 RES1    0.0000
      7 C5         5.1386    5.4470    5.6121 C.3       1 RES1    0.0000
      8 H3         4.5538    4.7005    5.3660 H         1 RES1    0.0000
      9 C6         4.8041    6.5240    6.6625 C.3       1 RES1    0.0000
     10 H4         3.9641    6.5702    7.1635 H         1 RES1    0.0000
     11 C7         5.3176    7.6214    5.7066 C.3       1 RES1    0.0000
     12 H5         4.8695    8.4748    5.5308 H         1 RES1    0.0000
     13 C8         6.7366    7.4585    6.3175 C.3       1 RES1    0.0000
     14 H6         7.3226    8.2028    6.5702 H         1 RES1    0.0000
     15 C9         4.6432    6.6392    0.4329 C.ar      1 RES1    0.0000
     16 C10        5.8035    6.0162    0.8921 C.ar      1 RES1    0.0000
     17 H7         6.3627    5.5888    0.2835 H         1 RES1    0.0000
     18 C11        6.1385    6.0200    2.2282 C.ar      1 RES1    0.0000
     19 H8         6.9266    5.6047    2.4962 H         1 RES1    0.0000
     20 C12        5.3433    6.6218    3.1862 C.ar      1 RES1    0.0000
     21 C13        4.1957    7.2531    2.7336 C.ar      1 RES1    0.0000
     22 H9         3.6454    7.6912    3.3422 H         1 RES1    0.0000
     23 C14        3.8542    7.2433    1.3953 C.ar      1 RES1    0.0000
     24 H10        3.0638    7.6571    1.1339 H         1 RES1    0.0000
     25 C15        4.2648    6.6521   -1.0042 C.ar      1 RES1    0.0000
     26 C16        5.0722    6.0814   -1.9645 C.ar      1 RES1    0.0000
     27 H11        5.8707    5.6797   -1.7074 H         1 RES1    0.0000
     28 C17        4.7168    6.0958   -3.3071 C.ar      1 RES1    0.0000
     29 H12        5.2720    5.6896   -3.9333 H         1 RES1    0.0000
     30 C18        3.5624    6.6991   -3.7202 C.ar      1 RES1    0.0000
     31 H13        3.3372    6.7332   -4.6211 H         1 RES1    0.0000
     32 C19        2.7591    7.2425   -2.7885 C.ar      1 RES1    0.0000
     33 H14        1.9597    7.6381   -3.0500 H         1 RES1    0.0000
     34 C20        3.0927    7.2251   -1.4569 C.ar      1 RES1    0.0000
     35 H15        2.5126    7.6108   -0.8416 H         1 RES1    0.0000
     36 C21        5.6509    6.6074    9.7344 C.ar      1 RES1    0.0000
     37 H16        4.8360    6.9871    9.4949 H         1 RES1    0.0000
     38 C22        6.5304    6.2284    8.7544 C.ar      1 RES1    0.0000
     39 C23        7.7563    5.6448    9.1258 C.ar      1 RES1    0.0000
     40 H17        8.3518    5.3728    8.4665 H         1 RES1    0.0000
     41 C24        8.0863    5.4713   10.4354 C.ar      1 RES1    0.0000
     42 H18        8.9105    5.1014   10.6552 H         1 RES1    0.0000
     43 C25        7.4973    5.6698   12.8372 C.ar      1 RES1    0.0000
     44 H19        8.3067    5.2864   13.0855 H         1 RES1    0.0000
     45 C26        6.6143    6.0564   13.7930 C.ar      1 RES1    0.0000
     46 H20        6.8265    5.9412   14.6918 H         1 RES1    0.0000
     47 C27        5.3960    6.6225   13.4392 C.ar      1 RES1    0.0000
     48 H21        4.7940    6.8681   14.1051 H         1 RES1    0.0000
     49 C28        5.0714    6.8234   12.1296 C.ar      1 RES1    0.0000
     50 H22        4.2598    7.2213   11.9099 H         1 RES1    0.0000
     51 C29        5.9606    6.4308   11.1034 C.ar      1 RES1    0.0000
     52 C30        7.1951    5.8449   11.4572 C.ar      1 RES1    0.0000
@<TRIPOS>BOND
     1    1    2 1
     2    2    3 1
     3    4    2 1
     4    5    4 1
     5    6    4 1
     6    7    2 1
     7    8    7 1
     8    9    1 1
     9   10    9 1
    10   11    6 1
    11   12   11 1
    12   13    1 1
    13   14   13 1
    14   15   16 ar
    15   16   17 1
    16   18   16 ar
    17   19   18 1
    18   20    6 1
    19   21   20 ar
    20   22   21 1
    21   23   15 ar
    22   24   23 1
    23   25   15 1
    24   26   25 ar
    25   27   26 1
    26   28   26 ar
    27   29   28 1
    28   30   28 ar
    29   31   30 1
    30   32   30 ar
    31   33   32 1
    32   34   25 ar
    33   35   34 1
    34   36   37 1
    35   38    1 1
    36   39   38 ar
    37   40   39 1
    38   41   39 ar
    39   42   41 1
    40   43   44 1
    41   45   43 ar
    42   46   45 1
    43   47   45 ar
    44   48   47 1
    45   49   47 ar
    46   50   49 1
    47   51   36 ar
    48   52   41 ar
    49    4   13 1
    50    6    7 1
    51    7    9 1
    52    9   11 1
    53   11   13 1
    54   18   20 ar
    55   21   23 ar
    56   32   34 ar
    57   36   38 ar
    58   43   52 ar
    59   49   51 ar
    60   51   52 ar
@<TRIPOS>SUBSTRUCTURE
     1 RES1 1

@<TRIPOS>CRYSIN
   5.9788    7.5790   22.0440  90.0000  94.5700  90.0000   4 1

