# MOL2 file generated by ConQuest
# Please check atom types

@<TRIPOS>MOLECULE
ENILET
   162   177     1
SMALL
NO_CHARGES
****
Generated from CSD

@<TRIPOS>ATOM
      1 C1         7.1658    4.8948    7.3364 C.ar      1 RES1    0.0000
      2 C2         7.0350    5.0088    8.7508 C.ar      1 RES1    0.0000
      3 C3         5.0633    6.0474    7.0880 C.ar      1 RES1    0.0000
      4 H1         4.3986    6.3828    6.5316 H         1 RES1    0.0000
      5 C4         5.9053    5.6738    9.3153 C.ar      1 RES1    0.0000
      6 C5         3.6803    6.8424    8.9873 C.ar      1 RES1    0.0000
      7 C6         6.1569    5.4181    6.5063 C.ar      1 RES1    0.0000
      8 C7         6.2157    5.2947    5.0233 C.ar      1 RES1    0.0000
      9 C8         4.9141    6.2004    8.4556 C.ar      1 RES1    0.0000
     10 C9         5.7900    5.6962   10.7421 C.ar      1 RES1    0.0000
     11 H2         5.0409    6.0903   11.1265 H         1 RES1    0.0000
     12 C10        3.7134    7.9237    9.8732 C.ar      1 RES1    0.0000
     13 H3         4.5336    8.2904   10.1131 H         1 RES1    0.0000
     14 C11        8.3474    4.2727    6.8180 C.ar      1 RES1    0.0000
     15 H4         8.4695    4.2350    5.8964 H         1 RES1    0.0000
     16 C12        6.2783    4.0449    4.4201 C.ar      1 RES1    0.0000
     17 H5         6.3349    3.2843    4.9528 H         1 RES1    0.0000
     18 C13        6.1404    6.4061    4.1998 C.ar      1 RES1    0.0000
     19 H6         6.0969    7.2547    4.5784 H         1 RES1    0.0000
     20 C14        1.2757    6.9057    9.1349 C.ar      1 RES1    0.0000
     21 H7         0.4526    6.5730    8.8575 H         1 RES1    0.0000
     22 C15        1.3123    7.9287   10.0751 C.ar      1 RES1    0.0000
     23 C16       -0.2449    8.9175   11.8523 C.2       1 RES1    0.0000
     24 C17        6.2001    5.0181    2.2121 C.ar      1 RES1    0.0000
     25 C18        6.5926    3.9798   -0.0848 C.2       1 RES1    0.0000
     26 C19        6.2585    3.9098    3.0481 C.ar      1 RES1    0.0000
     27 H8         6.2845    3.0582    2.6747 H         1 RES1    0.0000
     28 C20       -1.6395    9.3807   12.1106 C.ar      1 RES1    0.0000
     29 C21        2.5581    8.4564   10.3971 C.ar      1 RES1    0.0000
     30 H9         2.6116    9.1817   10.9759 H         1 RES1    0.0000
     31 C22        2.4302    6.3715    8.6025 C.ar      1 RES1    0.0000
     32 H10        2.3716    5.6861    7.9763 H         1 RES1    0.0000
     33 C23        0.0383    8.3975   10.6475 C.2       1 RES1    0.0000
     34 H11       -0.6927    8.3199   10.0783 H         1 RES1    0.0000
     35 C24        6.1284    6.2730    2.8237 C.ar      1 RES1    0.0000
     36 H12        6.0718    7.0347    2.2928 H         1 RES1    0.0000
     37 C25        6.4702    4.1304   -1.5630 C.ar      1 RES1    0.0000
     38 C26        0.7121    9.0377   12.9936 C.ar      1 RES1    0.0000
     39 C27        6.1906    4.9588    0.7404 C.2       1 RES1    0.0000
     40 H13        5.8548    5.7157    0.3176 H         1 RES1    0.0000
     41 C28        7.2295    2.7237    0.3949 C.ar      1 RES1    0.0000
     42 C29        1.5549    8.0019   13.3738 C.ar      1 RES1    0.0000
     43 H14        1.5642    7.2149   12.8796 H         1 RES1    0.0000
     44 C30        7.4897    3.6805   -2.4010 C.ar      1 RES1    0.0000
     45 H15        8.2325    3.2584   -2.0322 H         1 RES1    0.0000
     46 C31        5.3646    4.7143   -2.1511 C.ar      1 RES1    0.0000
     47 H16        4.6682    5.0145   -1.6136 H         1 RES1    0.0000
     48 C32        0.7540   10.1991   13.7514 C.ar      1 RES1    0.0000
     49 H17        0.2095   10.9154   13.5148 H         1 RES1    0.0000
     50 C33       -2.3067    9.0551   13.2814 C.ar      1 RES1    0.0000
     51 H18       -1.8676    8.5619   13.9352 H         1 RES1    0.0000
     52 C34       -3.6172   10.5795   11.4169 C.ar      1 RES1    0.0000
     53 H19       -4.0483   11.1183   10.7942 H         1 RES1    0.0000
     54 C35       -4.2655   10.2133   12.5629 C.ar      1 RES1    0.0000
     55 H20       -5.1438   10.4800   12.7107 H         1 RES1    0.0000
     56 C36        7.4141    3.8510   -3.7633 C.ar      1 RES1    0.0000
     57 H21        8.1155    3.5669   -4.3048 H         1 RES1    0.0000
     58 C37       -3.6083    9.4505   13.4907 C.ar      1 RES1    0.0000
     59 H22       -4.0459    9.1971   14.2711 H         1 RES1    0.0000
     60 C38        6.3113    4.4368   -4.3270 C.ar      1 RES1    0.0000
     61 H23        6.2629    4.5482   -5.2484 H         1 RES1    0.0000
     62 C39        2.3889    9.2781   15.2138 C.ar      1 RES1    0.0000
     63 H24        2.9405    9.3529   15.9582 H         1 RES1    0.0000
     64 C40        8.4867    2.7324    0.9665 C.ar      1 RES1    0.0000
     65 H25        8.9507    3.5349    1.0390 H         1 RES1    0.0000
     66 C41        2.3783    8.1221   14.4728 C.ar      1 RES1    0.0000
     67 H26        2.9311    7.4145   14.7135 H         1 RES1    0.0000
     68 C42        8.3801    0.3892    1.3430 C.ar      1 RES1    0.0000
     69 H27        8.7646   -0.3933    1.6669 H         1 RES1    0.0000
     70 C43        5.2736    4.8611   -3.5246 C.ar      1 RES1    0.0000
     71 H28        4.5155    5.2443   -3.9046 H         1 RES1    0.0000
     72 C44        1.5818   10.3169   14.8453 C.ar      1 RES1    0.0000
     73 H29        1.5913   11.1074   15.3358 H         1 RES1    0.0000
     74 C45        6.5729    1.5114    0.2968 C.ar      1 RES1    0.0000
     75 H30        5.7352    1.4761   -0.1046 H         1 RES1    0.0000
     76 C46        9.0649    1.5703    1.4315 C.ar      1 RES1    0.0000
     77 H31        9.9169    1.5897    1.8045 H         1 RES1    0.0000
     78 C47        7.1406    0.3506    0.7868 C.ar      1 RES1    0.0000
     79 H32        6.6765   -0.4542    0.7361 H         1 RES1    0.0000
     80 C48       -2.3216   10.1510   11.1797 C.ar      1 RES1    0.0000
     81 H33       -1.9020   10.3839   10.3830 H         1 RES1    0.0000
     82 C1A        7.9041    4.5475   11.0211 C.ar      1 RES1    0.0000
     83 C2A        8.0349    4.4334    9.6066 C.ar      1 RES1    0.0000
     84 C3A       10.0066    3.3948   11.2695 C.ar      1 RES1    0.0000
     85 H1A       10.6713    3.0594   11.8259 H         1 RES1    0.0000
     86 C4A        9.1646    3.7685    9.0422 C.ar      1 RES1    0.0000
     87 C5A       11.3896    2.5998    9.3702 C.ar      1 RES1    0.0000
     88 C6A        8.9130    4.0241   11.8512 C.ar      1 RES1    0.0000
     89 C7A        8.8542    4.1475   13.3341 C.ar      1 RES1    0.0000
     90 C8A       10.1558    3.2419    9.9018 C.ar      1 RES1    0.0000
     91 C9A        9.2799    3.7460    7.6154 C.ar      1 RES1    0.0000
     92 H2A       10.0291    3.3519    7.2310 H         1 RES1    0.0000
     93 C10A      11.3565    1.5185    8.4843 C.ar      1 RES1    0.0000
     94 H3A       10.5363    1.1519    8.2443 H         1 RES1    0.0000
     95 C11A       6.7225    5.1695   11.5395 C.ar      1 RES1    0.0000
     96 H4A        6.6004    5.2072   12.4611 H         1 RES1    0.0000
     97 C12A       8.7916    5.3974   13.9374 C.ar      1 RES1    0.0000
     98 H5A        8.7350    6.1580   13.4046 H         1 RES1    0.0000
     99 C13A       8.9295    3.0361   14.1576 C.ar      1 RES1    0.0000
    100 H6A        8.9730    2.1876   13.7791 H         1 RES1    0.0000
    101 C14A      13.7942    2.5366    9.2226 C.ar      1 RES1    0.0000
    102 H7A       14.6173    2.8692    9.5000 H         1 RES1    0.0000
    103 C15A      13.7576    1.5136    8.2823 C.ar      1 RES1    0.0000
    104 C16A      15.3148    0.5247    6.5052 C.2       1 RES1    0.0000
    105 C17A       8.8699    4.4241   16.1454 C.ar      1 RES1    0.0000
    106 C18A       8.4773    5.4625   18.4423 C.2       1 RES1    0.0000
    107 C19A       8.8114    5.5325   15.3094 C.ar      1 RES1    0.0000
    108 H8A        8.7854    6.3841   15.6828 H         1 RES1    0.0000
    109 C20A      16.7094    0.0616    6.2469 C.ar      1 RES1    0.0000
    110 C21A      12.5118    0.9858    7.9604 C.ar      1 RES1    0.0000
    111 H9A       12.4584    0.2605    7.3815 H         1 RES1    0.0000
    112 C22A      12.6397    3.0708    9.7550 C.ar      1 RES1    0.0000
    113 H10A      12.6984    3.7562   10.3812 H         1 RES1    0.0000
    114 C23A      15.0316    1.0448    7.7100 C.2       1 RES1    0.0000
    115 H11A      15.7626    1.1223    8.2792 H         1 RES1    0.0000
    116 C24A       8.9415    3.1693   15.5337 C.ar      1 RES1    0.0000
    117 H12A       8.9981    2.4075   16.0646 H         1 RES1    0.0000
    118 C25A       8.5997    5.3118   19.9204 C.ar      1 RES1    0.0000
    119 C26A      14.3578    0.4046    5.3639 C.ar      1 RES1    0.0000
    120 C27A       8.8793    4.4835   17.6171 C.2       1 RES1    0.0000
    121 H13A       9.2151    3.7265   18.0399 H         1 RES1    0.0000
    122 C28A       7.8404    6.7186   17.9626 C.ar      1 RES1    0.0000
    123 C29A      13.5150    1.4403    4.9837 C.ar      1 RES1    0.0000
    124 H14A      13.5057    2.2274    5.4779 H         1 RES1    0.0000
    125 C30A       7.5802    5.7618   20.7584 C.ar      1 RES1    0.0000
    126 H15A       6.8374    6.1839   20.3896 H         1 RES1    0.0000
    127 C31A       9.7053    4.7280   20.5086 C.ar      1 RES1    0.0000
    128 H16A      10.4017    4.4277   19.9711 H         1 RES1    0.0000
    129 C32A      14.3159   -0.7569    4.6061 C.ar      1 RES1    0.0000
    130 H17A      14.8604   -1.4731    4.8427 H         1 RES1    0.0000
    131 C33A      17.3766    0.3872    5.0760 C.ar      1 RES1    0.0000
    132 H18A      16.9375    0.8804    4.4223 H         1 RES1    0.0000
    133 C34A      18.6871   -1.1373    6.9406 C.ar      1 RES1    0.0000
    134 H19A      19.1182   -1.6760    7.5633 H         1 RES1    0.0000
    135 C35A      19.3354   -0.7710    5.7945 C.ar      1 RES1    0.0000
    136 H20A      20.2137   -1.0378    5.6468 H         1 RES1    0.0000
    137 C36A       7.6558    5.5912   22.1208 C.ar      1 RES1    0.0000
    138 H21A       6.9544    5.8753   22.6623 H         1 RES1    0.0000
    139 C37A      18.6782   -0.0083    4.8667 C.ar      1 RES1    0.0000
    140 H22A      19.1158    0.2451    4.0864 H         1 RES1    0.0000
    141 C38A       8.7586    5.0054   22.6845 C.ar      1 RES1    0.0000
    142 H23A       8.8070    4.8941   23.6059 H         1 RES1    0.0000
    143 C39A      12.6810    0.1642    3.1437 C.ar      1 RES1    0.0000
    144 H24A      12.1294    0.0894    2.3993 H         1 RES1    0.0000
    145 C40A       6.5832    6.7098   17.3910 C.ar      1 RES1    0.0000
    146 H25A       6.1192    5.9073   17.3184 H         1 RES1    0.0000
    147 C41A      12.6916    1.3201    3.8846 C.ar      1 RES1    0.0000
    148 H26A      12.1388    2.0278    3.6440 H         1 RES1    0.0000
    149 C42A       6.6898    9.0531   17.0144 C.ar      1 RES1    0.0000
    150 H27A       6.3053    9.8356   16.6906 H         1 RES1    0.0000
    151 C43A       9.7963    4.5811   21.8821 C.ar      1 RES1    0.0000
    152 H28A      10.5544    4.1980   22.2621 H         1 RES1    0.0000
    153 C44A      13.4881   -0.8746    3.5122 C.ar      1 RES1    0.0000
    154 H29A      13.4786   -1.6651    3.0216 H         1 RES1    0.0000
    155 C45A       8.4970    7.9308   18.0606 C.ar      1 RES1    0.0000
    156 H30A       9.3347    7.9661   18.4621 H         1 RES1    0.0000
    157 C46A       6.0050    7.8720   16.9260 C.ar      1 RES1    0.0000
    158 H31A       5.1530    7.8526   16.5529 H         1 RES1    0.0000
    159 C47A       7.9293    9.0916   17.5707 C.ar      1 RES1    0.0000
    160 H32A       8.3934    9.8964   17.6213 H         1 RES1    0.0000
    161 C48A      17.3915   -0.7088    7.1778 C.ar      1 RES1    0.0000
    162 H33A      16.9719   -0.9417    7.9745 H         1 RES1    0.0000
@<TRIPOS>BOND
     1    1    2 ar
     2    2    5 ar
     3    3    4 1
     4    5    9 ar
     5    6    9 1
     6    7    1 ar
     7    8    7 1
     8    9    3 ar
     9   10    5 ar
    10   11   10 1
    11   12    6 ar
    12   13   12 1
    13   14    1 ar
    14   15   14 1
    15   16    8 ar
    16   17   16 1
    17   18    8 ar
    18   19   18 1
    19   20   21 1
    20   22   20 ar
    21   23   28 1
    22   24   26 ar
    23   25   37 1
    24   26   16 ar
    25   27   26 1
    26   28   50 ar
    27   29   12 ar
    28   30   29 1
    29   31    6 ar
    30   32   31 1
    31   33   22 1
    32   34   33 1
    33   35   18 ar
    34   36   35 1
    35   37   44 ar
    36   38   23 1
    37   39   24 1
    38   40   39 1
    39   41   25 1
    40   42   38 ar
    41   43   42 1
    42   44   45 1
    43   46   37 ar
    44   47   46 1
    45   48   38 ar
    46   49   48 1
    47   50   51 1
    48   52   53 1
    49   54   52 ar
    50   55   54 1
    51   56   44 ar
    52   57   56 1
    53   58   50 ar
    54   59   58 1
    55   60   56 ar
    56   61   60 1
    57   62   63 1
    58   64   41 ar
    59   65   64 1
    60   66   42 ar
    61   67   66 1
    62   68   69 1
    63   70   46 ar
    64   71   70 1
    65   72   48 ar
    66   73   72 1
    67   74   41 ar
    68   75   74 1
    69   76   64 ar
    70   77   76 1
    71   78   68 ar
    72   79   78 1
    73   80   28 ar
    74   81   80 1
    75   82   83 ar
    76   83    2 ar
    77   84   85 1
    78   86   83 ar
    79   87   90 1
    80   88   82 ar
    81   89   88 1
    82   90   84 ar
    83   91   14 ar
    84   92   91 1
    85   93   87 ar
    86   94   93 1
    87   95   10 ar
    88   96   95 1
    89   97   89 ar
    90   98   97 1
    91   99   89 ar
    92  100   99 1
    93  101  102 1
    94  103  101 ar
    95  104  109 1
    96  105  107 ar
    97  106  118 1
    98  107   97 ar
    99  108  107 1
   100  109  131 ar
   101  110   93 ar
   102  111  110 1
   103  112   87 ar
   104  113  112 1
   105  114  103 1
   106  115  114 1
   107  116   99 ar
   108  117  116 1
   109  118  125 ar
   110  119  104 1
   111  120  105 1
   112  121  120 1
   113  122  106 1
   114  123  119 ar
   115  124  123 1
   116  125  126 1
   117  127  118 ar
   118  128  127 1
   119  129  119 ar
   120  130  129 1
   121  131  132 1
   122  133  134 1
   123  135  133 ar
   124  136  135 1
   125  137  125 ar
   126  138  137 1
   127  139  131 ar
   128  140  139 1
   129  141  137 ar
   130  142  141 1
   131  143  144 1
   132  145  122 ar
   133  146  145 1
   134  147  123 ar
   135  148  147 1
   136  149  150 1
   137  151  127 ar
   138  152  151 1
   139  153  129 ar
   140  154  153 1
   141  155  122 ar
   142  156  155 1
   143  157  145 ar
   144  158  157 1
   145  159  149 ar
   146  160  159 1
   147  161  109 ar
   148  162  161 1
   149    3    7 ar
   150   20   31 ar
   151   22   29 ar
   152   23   33 2
   153   24   35 ar
   154   25   39 2
   155   52   80 ar
   156   54   58 ar
   157   60   70 ar
   158   62   66 ar
   159   62   72 ar
   160   68   76 ar
   161   74   78 ar
   162   82   95 ar
   163   84   88 ar
   164   86   90 ar
   165   86   91 ar
   166  101  112 ar
   167  103  110 ar
   168  104  114 2
   169  105  116 ar
   170  106  120 2
   171  133  161 ar
   172  135  139 ar
   173  141  151 ar
   174  143  147 ar
   175  143  153 ar
   176  149  157 ar
   177  155  159 ar
@<TRIPOS>SUBSTRUCTURE
     1 RES1 1

@<TRIPOS>CRYSIN
   9.3930   10.0128   18.4987  90.3860  96.9380  98.5090   2 1

