# MOL2 file generated by ConQuest
# Please check atom types

@<TRIPOS>MOLECULE
ENILAP
    60    66     1
SMALL
NO_CHARGES
****
Generated from CSD

@<TRIPOS>ATOM
      1 C1         3.3944   10.7581    1.7800 C.ar      1 RES1    0.0000
      2 C2         3.1711    9.5403    1.0727 C.ar      1 RES1    0.0000
      3 C3         1.7739    8.1420   -0.3684 C.ar      1 RES1    0.0000
      4 C4         1.9901    9.3672    0.2975 C.ar      1 RES1    0.0000
      5 C5         4.1281    8.4918    1.1652 C.ar      1 RES1    0.0000
      6 C6         2.7534    7.1548   -0.2961 C.ar      1 RES1    0.0000
      7 H1         2.6346    6.3638   -0.7712 H         1 RES1    0.0000
      8 C7         2.4436   11.8039    1.7189 C.ar      1 RES1    0.0000
      9 C8        -3.1885    6.3962   -2.7675 C.2       1 RES1    0.0000
     10 H2        -3.8647    6.4130   -2.1295 H         1 RES1    0.0000
     11 C9         3.8943    7.3172    0.4608 C.ar      1 RES1    0.0000
     12 H3         4.5183    6.6280    0.5000 H         1 RES1    0.0000
     13 C10       -1.8900    7.5218   -1.0268 C.ar      1 RES1    0.0000
     14 H4        -2.6954    7.6336   -0.5742 H         1 RES1    0.0000
     15 C11        1.0781   10.4734    0.2185 C.ar      1 RES1    0.0000
     16 H5         0.3218   10.3987   -0.3172 H         1 RES1    0.0000
     17 C12        0.5036    7.8134   -1.0709 C.ar      1 RES1    0.0000
     18 C13        4.5771   10.9329    2.5525 C.ar      1 RES1    0.0000
     19 C14       -0.7294    7.9694   -0.4388 C.ar      1 RES1    0.0000
     20 H6        -0.7680    8.3823    0.3938 H         1 RES1    0.0000
     21 C15        0.4977    7.2098   -2.3248 C.ar      1 RES1    0.0000
     22 H7         1.3040    7.0990   -2.7745 H         1 RES1    0.0000
     23 C16       -1.9000    6.9040   -2.2823 C.ar      1 RES1    0.0000
     24 C17        1.2892   11.6167    0.8994 C.ar      1 RES1    0.0000
     25 H8         0.6653   12.3030    0.8336 H         1 RES1    0.0000
     26 C18       -3.5771    5.9123   -3.9580 C.2       1 RES1    0.0000
     27 C19       -4.9482    5.3645   -4.1323 C.ar      1 RES1    0.0000
     28 C20        5.2908    8.6885    1.9852 C.ar      1 RES1    0.0000
     29 H9         5.9072    7.9973    2.0729 H         1 RES1    0.0000
     30 C21       -2.6993    5.8886   -5.1627 C.ar      1 RES1    0.0000
     31 C22       -0.6654    6.7720   -2.9204 C.ar      1 RES1    0.0000
     32 H10       -0.6269    6.3806   -3.7638 H         1 RES1    0.0000
     33 C23        5.5079    9.8522    2.6297 C.ar      1 RES1    0.0000
     34 H11        6.2809    9.9538    3.1365 H         1 RES1    0.0000
     35 C24        2.6749   12.9774    2.4372 C.ar      1 RES1    0.0000
     36 H12        2.0379   13.6547    2.4231 H         1 RES1    0.0000
     37 C25        4.7720   12.1470    3.2118 C.ar      1 RES1    0.0000
     38 H13        5.5565   12.2828    3.6930 H         1 RES1    0.0000
     39 C26       -5.6172    4.7149   -3.1094 C.ar      1 RES1    0.0000
     40 H14       -5.1946    4.6050   -2.2875 H         1 RES1    0.0000
     41 C27        3.8295   13.1484    3.1651 C.ar      1 RES1    0.0000
     42 H15        3.9736   13.9424    3.6270 H         1 RES1    0.0000
     43 C28       -6.8980    4.2274   -3.2819 C.ar      1 RES1    0.0000
     44 H16       -7.3259    3.7926   -2.5799 H         1 RES1    0.0000
     45 C29       -2.1723    4.6900   -5.6155 C.ar      1 RES1    0.0000
     46 H17       -2.3734    3.9024   -5.1634 H         1 RES1    0.0000
     47 C30       -2.4131    7.0417   -5.8740 C.ar      1 RES1    0.0000
     48 H18       -2.7663    7.8562   -5.5962 H         1 RES1    0.0000
     49 C31       -7.5425    4.3808   -4.4818 C.ar      1 RES1    0.0000
     50 H19       -8.4080    4.0598   -4.5963 H         1 RES1    0.0000
     51 C32       -5.6135    5.4864   -5.3398 C.ar      1 RES1    0.0000
     52 H20       -5.1857    5.8984   -6.0560 H         1 RES1    0.0000
     53 C33       -1.3561    4.6439   -6.7231 C.ar      1 RES1    0.0000
     54 H21       -0.9973    3.8335   -7.0029 H         1 RES1    0.0000
     55 C34       -1.6014    6.9871   -7.0006 C.ar      1 RES1    0.0000
     56 H22       -1.4165    7.7639   -7.4781 H         1 RES1    0.0000
     57 C35       -6.8984    5.0100   -5.5042 C.ar      1 RES1    0.0000
     58 H23       -7.3289    5.1196   -6.3213 H         1 RES1    0.0000
     59 C36       -1.0729    5.7893   -7.4100 C.ar      1 RES1    0.0000
     60 H24       -0.5203    5.7576   -8.1572 H         1 RES1    0.0000
@<TRIPOS>BOND
     1    1    2 ar
     2    2    4 ar
     3    3    4 ar
     4    4   15 ar
     5    5    2 ar
     6    6    3 ar
     7    7    6 1
     8    8    1 ar
     9    9   10 1
    10   11    5 ar
    11   12   11 1
    12   13   14 1
    13   15   16 1
    14   17    3 1
    15   18    1 ar
    16   19   13 ar
    17   20   19 1
    18   21   17 ar
    19   22   21 1
    20   23    9 1
    21   24    8 ar
    22   25   24 1
    23   26    9 2
    24   27   26 1
    25   28    5 ar
    26   29   28 1
    27   30   26 1
    28   31   21 ar
    29   32   31 1
    30   33   18 ar
    31   34   33 1
    32   35    8 ar
    33   36   35 1
    34   37   18 ar
    35   38   37 1
    36   39   27 ar
    37   40   39 1
    38   41   35 ar
    39   42   41 1
    40   43   39 ar
    41   44   43 1
    42   45   30 ar
    43   46   45 1
    44   47   30 ar
    45   48   47 1
    46   49   43 ar
    47   50   49 1
    48   51   27 ar
    49   52   51 1
    50   53   45 ar
    51   54   53 1
    52   55   47 ar
    53   56   55 1
    54   57   49 ar
    55   58   57 1
    56   59   53 ar
    57   60   59 1
    58    6   11 ar
    59   13   23 ar
    60   15   24 ar
    61   17   19 ar
    62   23   31 ar
    63   28   33 ar
    64   37   41 ar
    65   51   57 ar
    66   55   59 ar
@<TRIPOS>SUBSTRUCTURE
     1 RES1 1

@<TRIPOS>CRYSIN
   9.2683   11.9283   12.9205  66.2500  86.7870  72.2170   2 1

