# MOL2 file generated by ConQuest
# Please check atom types

@<TRIPOS>MOLECULE
ENOBEO
    53    60     1
SMALL
NO_CHARGES
****
Generated from CSD

@<TRIPOS>ATOM
      1 C1         8.4037    2.2874    8.7968 C.3       1 RES1    0.0000
      2 C2         7.1744    1.4015    8.7026 C.ar      1 RES1    0.0000
      3 C3         6.3133    1.2142    7.6437 C.ar      1 RES1    0.0000
      4 H1         6.4342    1.6844    6.8500 H         1 RES1    0.0000
      5 C4         5.2706    0.3222    7.7736 C.ar      1 RES1    0.0000
      6 H2         4.6691    0.2124    7.0731 H         1 RES1    0.0000
      7 C5         5.1095   -0.4088    8.9322 C.ar      1 RES1    0.0000
      8 H3         4.4177   -1.0269    8.9925 H         1 RES1    0.0000
      9 C6         5.9584   -0.2346    9.9993 C.ar      1 RES1    0.0000
     10 H4         5.8487   -0.7319   10.7766 H         1 RES1    0.0000
     11 C7         6.9825    0.6977    9.8941 C.ar      1 RES1    0.0000
     12 C8         7.9834    1.1437   10.8753 C.ar      1 RES1    0.0000
     13 C9         8.2016    0.7944   12.2040 C.ar      1 RES1    0.0000
     14 H5         7.6581    0.1671   12.6237 H         1 RES1    0.0000
     15 C10        9.2373    1.3944   12.8889 C.ar      1 RES1    0.0000
     16 H6         9.3738    1.1850   13.7850 H         1 RES1    0.0000
     17 C11       10.0733    2.2965   12.2717 C.ar      1 RES1    0.0000
     18 H7        10.7771    2.6760   12.7472 H         1 RES1    0.0000
     19 C12        9.8697    2.6428   10.9430 C.ar      1 RES1    0.0000
     20 H8        10.4349    3.2489   10.5214 H         1 RES1    0.0000
     21 C13        8.8210    2.0760   10.2599 C.ar      1 RES1    0.0000
     22 C14        8.2412    3.7443    8.4292 C.ar      1 RES1    0.0000
     23 C15        7.2554    4.6161    8.9047 C.ar      1 RES1    0.0000
     24 H9         6.6216    4.3242    9.5201 H         1 RES1    0.0000
     25 C16        7.2420    5.8968    8.4521 C.ar      1 RES1    0.0000
     26 H10        6.6319    6.4998    8.8114 H         1 RES1    0.0000
     27 C17        8.1327    6.3317    7.4480 C.ar      1 RES1    0.0000
     28 C18        7.9955    7.6154    6.8719 C.ar      1 RES1    0.0000
     29 H11        7.3847    8.2174    7.2322 H         1 RES1    0.0000
     30 C19        8.7409    7.9808    5.8030 C.ar      1 RES1    0.0000
     31 H12        8.6492    8.8346    5.4463 H         1 RES1    0.0000
     32 C20        9.6450    7.0868    5.2324 C.ar      1 RES1    0.0000
     33 H13       10.1254    7.3365    4.4761 H         1 RES1    0.0000
     34 C21        9.8312    5.8494    5.7755 C.ar      1 RES1    0.0000
     35 H14       10.4358    5.2645    5.3796 H         1 RES1    0.0000
     36 C22        9.1224    5.4407    6.9277 C.ar      1 RES1    0.0000
     37 C23        9.2192    4.1470    7.5312 C.ar      1 RES1    0.0000
     38 C24       10.1364    2.9962    7.3090 C.ar      1 RES1    0.0000
     39 C25       11.4499    2.8694    6.7512 C.ar      1 RES1    0.0000
     40 C26       12.3205    3.9396    6.4559 C.ar      1 RES1    0.0000
     41 H15       12.0328    4.8125    6.5976 H         1 RES1    0.0000
     42 C27       13.5747    3.7211    5.9667 C.ar      1 RES1    0.0000
     43 H16       14.1251    4.4460    5.7728 H         1 RES1    0.0000
     44 C28       14.0412    2.4213    5.7545 C.ar      1 RES1    0.0000
     45 H17       14.8891    2.2834    5.3979 H         1 RES1    0.0000
     46 C29       13.2604    1.3672    6.0663 C.ar      1 RES1    0.0000
     47 H18       13.5816    0.5054    5.9273 H         1 RES1    0.0000
     48 C30       11.9649    1.5444    6.6004 C.ar      1 RES1    0.0000
     49 C31       11.2317    0.4329    7.0530 C.ar      1 RES1    0.0000
     50 H19       11.5416   -0.4259    6.8756 H         1 RES1    0.0000
     51 C32       10.0750    0.6000    7.7461 C.ar      1 RES1    0.0000
     52 H20        9.6326   -0.1319    8.1119 H         1 RES1    0.0000
     53 C33        9.5635    1.8867    7.9016 C.ar      1 RES1    0.0000
@<TRIPOS>BOND
     1    1    2 1
     2    2    3 ar
     3    3    4 1
     4    5    3 ar
     5    6    5 1
     6    7    5 ar
     7    8    7 1
     8    9    7 ar
     9   10    9 1
    10   11    2 ar
    11   12   11 1
    12   13   12 ar
    13   14   13 1
    14   15   13 ar
    15   16   15 1
    16   17   15 ar
    17   18   17 1
    18   19   17 ar
    19   20   19 1
    20   21    1 1
    21   22    1 1
    22   23   22 ar
    23   24   23 1
    24   25   23 ar
    25   26   25 1
    26   27   25 ar
    27   28   27 ar
    28   29   28 1
    29   30   28 ar
    30   31   30 1
    31   32   30 ar
    32   33   32 1
    33   34   32 ar
    34   35   34 1
    35   36   27 ar
    36   37   22 ar
    37   38   37 1
    38   39   38 ar
    39   40   39 ar
    40   41   40 1
    41   42   40 ar
    42   43   42 1
    43   44   42 ar
    44   45   44 1
    45   46   44 ar
    46   47   46 1
    47   48   39 ar
    48   49   48 ar
    49   50   49 1
    50   51   49 ar
    51   52   51 1
    52   53    1 1
    53    9   11 ar
    54   12   21 ar
    55   19   21 ar
    56   34   36 ar
    57   36   37 ar
    58   38   53 ar
    59   46   48 ar
    60   51   53 ar
@<TRIPOS>SUBSTRUCTURE
     1 RES1 1

@<TRIPOS>CRYSIN
  23.8987   10.0679    9.1443  90.0000  90.0000  90.0000  33 1

