# MOL2 file generated by ConQuest
# Please check atom types

@<TRIPOS>MOLECULE
EPUBOI
    50    55     1
SMALL
NO_CHARGES
****
Generated from CSD

@<TRIPOS>ATOM
      1 C1         5.2347    1.5215   -0.6904 C.ar      1 RES1    0.0000
      2 H1         4.9146    0.7653   -0.2554 H         1 RES1    0.0000
      3 C2         5.1992    1.5616   -2.0948 C.ar      1 RES1    0.0000
      4 H2         4.8463    0.8479   -2.5758 H         1 RES1    0.0000
      5 C3         5.6812    2.6446   -2.7407 C.ar      1 RES1    0.0000
      6 H3         5.6689    2.6637   -3.6700 H         1 RES1    0.0000
      7 C4         6.2037    3.7517   -2.0325 C.ar      1 RES1    0.0000
      8 C5         6.2037    3.7517   -0.5973 C.ar      1 RES1    0.0000
      9 C6         5.7284    2.5646    0.0623 C.ar      1 RES1    0.0000
     10 C7         5.7379    2.3488    1.5433 C.ar      1 RES1    0.0000
     11 C8         4.5435    2.3241    2.2258 C.ar      1 RES1    0.0000
     12 H4         3.7495    2.4731    1.7656 H         1 RES1    0.0000
     13 C9         4.5066    2.0760    3.6099 C.ar      1 RES1    0.0000
     14 H5         3.6912    2.0769    4.0575 H         1 RES1    0.0000
     15 C10        5.6491    1.8353    4.2983 C.ar      1 RES1    0.0000
     16 H6         5.6094    1.6882    5.2155 H         1 RES1    0.0000
     17 C11        6.9000    1.8056    3.6400 C.ar      1 RES1    0.0000
     18 C12        6.9514    2.0525    2.2339 C.ar      1 RES1    0.0000
     19 C13        8.2033    1.9731    1.5827 C.ar      1 RES1    0.0000
     20 H7         8.2509    2.1294    0.6671 H         1 RES1    0.0000
     21 C14        9.3470    1.6699    2.2722 C.ar      1 RES1    0.0000
     22 H8        10.1604    1.6147    1.8251 H         1 RES1    0.0000
     23 C15        9.2882    1.4409    3.6662 C.ar      1 RES1    0.0000
     24 H9        10.0661    1.2425    4.1367 H         1 RES1    0.0000
     25 C16        8.1070    1.5098    4.3203 C.ar      1 RES1    0.0000
     26 H10        8.0859    1.3596    5.2375 H         1 RES1    0.0000
     27 C1E        7.1727    5.9818   -0.6904 C.ar      1 RES1    0.0000
     28 H1E        7.4928    6.7380   -0.2554 H         1 RES1    0.0000
     29 C2E        7.2082    5.9417   -2.0948 C.ar      1 RES1    0.0000
     30 H2E        7.5611    6.6554   -2.5758 H         1 RES1    0.0000
     31 C3E        6.7262    4.8587   -2.7407 C.ar      1 RES1    0.0000
     32 H3E        6.7385    4.8396   -3.6700 H         1 RES1    0.0000
     33 C6E        6.6790    4.9387    0.0623 C.ar      1 RES1    0.0000
     34 C7E        6.6695    5.1545    1.5433 C.ar      1 RES1    0.0000
     35 C8E        7.8639    5.1792    2.2258 C.ar      1 RES1    0.0000
     36 H4E        8.6579    5.0302    1.7656 H         1 RES1    0.0000
     37 C9E        7.9008    5.4273    3.6099 C.ar      1 RES1    0.0000
     38 H5E        8.7162    5.4264    4.0575 H         1 RES1    0.0000
     39 C10E       6.7583    5.6680    4.2983 C.ar      1 RES1    0.0000
     40 H6E        6.7980    5.8151    5.2155 H         1 RES1    0.0000
     41 C11E       5.5074    5.6977    3.6400 C.ar      1 RES1    0.0000
     42 C12E       5.4560    5.4508    2.2339 C.ar      1 RES1    0.0000
     43 C13E       4.2041    5.5302    1.5827 C.ar      1 RES1    0.0000
     44 H7E        4.1565    5.3739    0.6671 H         1 RES1    0.0000
     45 C14E       3.0604    5.8334    2.2722 C.ar      1 RES1    0.0000
     46 H8E        2.2470    5.8886    1.8251 H         1 RES1    0.0000
     47 C15E       3.1192    6.0624    3.6662 C.ar      1 RES1    0.0000
     48 H9E        2.3413    6.2608    4.1367 H         1 RES1    0.0000
     49 C16E       4.3004    5.9935    4.3203 C.ar      1 RES1    0.0000
     50 H10E       4.3215    6.1437    5.2375 H         1 RES1    0.0000
@<TRIPOS>BOND
     1    1    2 1
     2    3    1 ar
     3    4    3 1
     4    5    3 ar
     5    6    5 1
     6    7    5 ar
     7    8    7 ar
     8    9    1 ar
     9   10    9 1
    10   11   10 ar
    11   12   11 1
    12   13   11 ar
    13   14   13 1
    14   15   13 ar
    15   16   15 1
    16   17   15 ar
    17   18   10 ar
    18   19   18 ar
    19   20   19 1
    20   21   19 ar
    21   22   21 1
    22   23   21 ar
    23   24   23 1
    24   25   17 ar
    25   26   25 1
    26   27   28 1
    27   29   27 ar
    28   30   29 1
    29   31    7 ar
    30   32   31 1
    31   33    8 ar
    32   34   33 1
    33   35   34 ar
    34   36   35 1
    35   37   35 ar
    36   38   37 1
    37   39   37 ar
    38   40   39 1
    39   41   39 ar
    40   42   34 ar
    41   43   42 ar
    42   44   43 1
    43   45   43 ar
    44   46   45 1
    45   47   45 ar
    46   48   47 1
    47   49   41 ar
    48   50   49 1
    49    8    9 ar
    50   17   18 ar
    51   23   25 ar
    52   27   33 ar
    53   29   31 ar
    54   41   42 ar
    55   47   49 ar
@<TRIPOS>SUBSTRUCTURE
     1 RES1 1

@<TRIPOS>CRYSIN
  12.4074   15.0066   22.0155  90.0000  90.0000  90.0000  73 1

