# MOL2 file generated by ConQuest
# Please check atom types

@<TRIPOS>MOLECULE
EPUBIC
    50    53     1
SMALL
NO_CHARGES
****
Generated from CSD

@<TRIPOS>ATOM
      1 C1         7.3790    5.8368    9.4577 C.ar      1 RES1    0.0000
      2 H1         7.9727    6.3236   10.0176 H         1 RES1    0.0000
      3 C2         7.8339    4.6429    8.8688 C.ar      1 RES1    0.0000
      4 H2         8.7067    4.3174    9.0539 H         1 RES1    0.0000
      5 C3         7.0040    3.9593    8.0286 C.ar      1 RES1    0.0000
      6 H3         7.3131    3.1658    7.6077 H         1 RES1    0.0000
      7 C4         5.6879    4.4179    7.7757 C.ar      1 RES1    0.0000
      8 C5         4.8791    3.6964    6.8616 C.ar      1 RES1    0.0000
      9 H4         5.2257    2.9162    6.4446 H         1 RES1    0.0000
     10 C6         3.6092    4.1068    6.5727 C.ar      1 RES1    0.0000
     11 H5         3.0879    3.6427    5.9289 H         1 RES1    0.0000
     12 C7         3.0834    5.2260    7.2420 C.ar      1 RES1    0.0000
     13 H6         2.1922    5.4944    7.0514 H         1 RES1    0.0000
     14 C8         3.8112    5.9528    8.1677 C.ar      1 RES1    0.0000
     15 C9         5.1842    5.5986    8.4225 C.ar      1 RES1    0.0000
     16 C10        6.1054    6.3310    9.2549 C.ar      1 RES1    0.0000
     17 C11        5.8270    7.6418    9.9112 C.ar      1 RES1    0.0000
     18 C12        5.4771    8.7742    9.1739 C.ar      1 RES1    0.0000
     19 H7         5.3937    8.7101    8.2293 H         1 RES1    0.0000
     20 C13        5.2478    9.9979    9.7999 C.ar      1 RES1    0.0000
     21 C14        5.3871   10.0764   11.1891 C.ar      1 RES1    0.0000
     22 H8         5.2227   10.9045   11.6251 H         1 RES1    0.0000
     23 C15        5.7622    8.9688   11.9519 C.ar      1 RES1    0.0000
     24 C16        5.9874    7.7635   11.2972 C.ar      1 RES1    0.0000
     25 H9         6.2564    7.0047   11.8011 H         1 RES1    0.0000
     26 C17        3.0576    7.0415    8.8556 C.ar      1 RES1    0.0000
     27 C18        2.4030    8.0117    8.0908 C.ar      1 RES1    0.0000
     28 H10        2.4848    7.9925    7.1449 H         1 RES1    0.0000
     29 C19        1.6316    9.0086    8.6909 C.ar      1 RES1    0.0000
     30 C20        1.5209    9.0186   10.0793 C.ar      1 RES1    0.0000
     31 H11        0.9984    9.6930   10.4977 H         1 RES1    0.0000
     32 C21        2.1604    8.0595   10.8711 C.ar      1 RES1    0.0000
     33 C22        2.9152    7.0691   10.2451 C.ar      1 RES1    0.0000
     34 H12        3.3400    6.4025   10.7721 H         1 RES1    0.0000
     35 C23        4.8369   11.2078    8.9948 C.3       1 RES1    0.0000
     36 H13        5.5494   11.8798    9.0281 H         1 RES1    0.0000
     37 H14        4.0132   11.5847    9.3690 H         1 RES1    0.0000
     38 H15        4.6811   10.9431    8.0643 H         1 RES1    0.0000
     39 C24        5.8951    9.0665   13.4541 C.3       1 RES1    0.0000
     40 H16        5.0068    9.0067   13.8652 H         1 RES1    0.0000
     41 H17        6.3071    9.9233   13.6904 H         1 RES1    0.0000
     42 H18        6.4560    8.3328   13.7815 H         1 RES1    0.0000
     43 C25        0.9233   10.0452    7.8511 C.3       1 RES1    0.0000
     44 H19        0.0790    9.6754    7.5191 H         1 RES1    0.0000
     45 H20        1.4911   10.2950    7.0920 H         1 RES1    0.0000
     46 H21        0.7402   10.8382    8.3966 H         1 RES1    0.0000
     47 C26        2.0381    8.0947   12.3723 C.3       1 RES1    0.0000
     48 H22        2.3080    7.2278   12.7427 H         1 RES1    0.0000
     49 H23        1.1085    8.2811   12.6196 H         1 RES1    0.0000
     50 H24        2.6192    8.7981   12.7304 H         1 RES1    0.0000
@<TRIPOS>BOND
     1    1    2 1
     2    3    1 ar
     3    4    3 1
     4    5    3 ar
     5    6    5 1
     6    7    5 ar
     7    8    7 ar
     8    9    8 1
     9   10    8 ar
    10   11   10 1
    11   12   10 ar
    12   13   12 1
    13   14   12 ar
    14   15    7 ar
    15   16    1 ar
    16   17   16 1
    17   18   17 ar
    18   19   18 1
    19   20   18 ar
    20   21   20 ar
    21   22   21 1
    22   23   21 ar
    23   24   17 ar
    24   25   24 1
    25   26   14 1
    26   27   26 ar
    27   28   27 1
    28   29   27 ar
    29   30   29 ar
    30   31   30 1
    31   32   30 ar
    32   33   26 ar
    33   34   33 1
    34   35   20 1
    35   36   35 1
    36   37   35 1
    37   38   35 1
    38   39   23 1
    39   40   39 1
    40   41   39 1
    41   42   39 1
    42   43   29 1
    43   44   43 1
    44   45   43 1
    45   46   43 1
    46   47   32 1
    47   48   47 1
    48   49   47 1
    49   50   47 1
    50   14   15 ar
    51   15   16 ar
    52   23   24 ar
    53   32   33 ar
@<TRIPOS>SUBSTRUCTURE
     1 RES1 1

@<TRIPOS>CRYSIN
   7.7878   10.2260   12.3632  84.6090  88.9330  74.2010   2 1

