# MOL2 file generated by ConQuest
# Please check atom types

@<TRIPOS>MOLECULE
EPUBEY
   100   110     2
SMALL
NO_CHARGES
****
Generated from CSD

@<TRIPOS>ATOM
      1 C1        11.7453   12.8636    0.3840 C.ar      1 RES1    0.0000
      2 C2        10.3581   13.0653    0.7181 C.ar      1 RES1    0.0000
      3 C3         9.4137   12.2284    0.1732 C.ar      1 RES1    0.0000
      4 H1         8.5209   12.3527    0.4015 H         1 RES1    0.0000
      5 C4         9.7415   11.1953   -0.7090 C.ar      1 RES1    0.0000
      6 H2         9.0725   10.6497   -1.0541 H         1 RES1    0.0000
      7 C5        11.0312   10.9939   -1.0605 C.ar      1 RES1    0.0000
      8 H3        11.2455   10.3147   -1.6560 H         1 RES1    0.0000
      9 C6        12.0549   11.8071   -0.5325 C.ar      1 RES1    0.0000
     10 C7        13.3879   11.5617   -0.9178 C.ar      1 RES1    0.0000
     11 H4        13.5738   10.8595   -1.5010 H         1 RES1    0.0000
     12 C8        14.3981   12.3244   -0.4554 C.ar      1 RES1    0.0000
     13 H5        15.2718   12.1590   -0.7304 H         1 RES1    0.0000
     14 C9        14.1249   13.3644    0.4411 C.ar      1 RES1    0.0000
     15 H6        14.8313   13.8862    0.7466 H         1 RES1    0.0000
     16 C10       12.8546   13.6452    0.8893 C.ar      1 RES1    0.0000
     17 C11       12.7251   14.7453    1.8895 C.ar      1 RES1    0.0000
     18 C12       12.2822   14.4826    3.2076 C.ar      1 RES1    0.0000
     19 H7        12.1105   13.6037    3.4612 H         1 RES1    0.0000
     20 C13       12.1025   15.4786    4.1092 C.ar      1 RES1    0.0000
     21 H8        11.8235   15.2703    4.9713 H         1 RES1    0.0000
     22 C14       12.3333   16.8252    3.7557 C.ar      1 RES1    0.0000
     23 C15       12.0399   17.8978    4.6268 C.ar      1 RES1    0.0000
     24 H9        11.6821   17.7239    5.4675 H         1 RES1    0.0000
     25 C16       12.2766   19.1860    4.2474 C.ar      1 RES1    0.0000
     26 H10       12.0770   19.8829    4.8279 H         1 RES1    0.0000
     27 C17       12.8181   19.4600    2.9851 C.ar      1 RES1    0.0000
     28 H11       12.9938   20.3389    2.7418 H         1 RES1    0.0000
     29 C18       13.0885   18.4556    2.1107 C.ar      1 RES1    0.0000
     30 H12       13.4326   18.6561    1.2701 H         1 RES1    0.0000
     31 C19       12.8512   17.1045    2.4727 C.ar      1 RES1    0.0000
     32 C20       13.0501   16.0375    1.5568 C.ar      1 RES1    0.0000
     33 H13       13.4079   16.2187    0.7168 H         1 RES1    0.0000
     34 C21        9.8159   14.1319    1.6145 C.ar      1 RES1    0.0000
     35 C22        9.2196   13.7437    2.8379 C.ar      1 RES1    0.0000
     36 H14        9.1893   12.8410    3.0629 H         1 RES1    0.0000
     37 C23        8.6840   14.6674    3.6973 C.ar      1 RES1    0.0000
     38 H15        8.3036   14.3906    4.5003 H         1 RES1    0.0000
     39 C24        8.7109   16.0230    3.3626 C.ar      1 RES1    0.0000
     40 C25        8.2033   17.0189    4.2740 C.ar      1 RES1    0.0000
     41 H16        7.8255   16.7594    5.0835 H         1 RES1    0.0000
     42 C26        8.2757   18.3365    3.9483 C.ar      1 RES1    0.0000
     43 H17        7.9528   18.9830    4.5354 H         1 RES1    0.0000
     44 C27        8.8431   18.7219    2.7198 C.ar      1 RES1    0.0000
     45 H18        8.8925   19.6246    2.5109 H         1 RES1    0.0000
     46 C28        9.3236   17.8115    1.8266 C.ar      1 RES1    0.0000
     47 H19        9.6754   18.0911    1.0132 H         1 RES1    0.0000
     48 C29        9.2775   16.4499    2.1477 C.ar      1 RES1    0.0000
     49 C30        9.8099   15.4471    1.2623 C.ar      1 RES1    0.0000
     50 H20       10.1531   15.7021    0.4365 H         1 RES1    0.0000
     51 C31       11.6376   27.8639    3.1304 C.ar      2 RES2    0.0000
     52 C32       10.3765   27.3587    2.6458 C.ar      2 RES2    0.0000
     53 C33        9.2167   27.9729    3.0688 C.ar      2 RES2    0.0000
     54 H21        8.4077   27.6714    2.7269 H         2 RES2    0.0000
     55 C34        9.1991   29.0265    3.9860 C.ar      2 RES2    0.0000
     56 H22        8.3923   29.4107    4.2461 H         2 RES2    0.0000
     57 C35       10.3594   29.4813    4.4874 C.ar      2 RES2    0.0000
     58 H23       10.3482   30.1734    5.1088 H         2 RES2    0.0000
     59 C36       11.5980   28.9273    4.0859 C.ar      2 RES2    0.0000
     60 C37       12.7840   29.4656    4.6242 C.ar      2 RES2    0.0000
     61 H24       12.7367   30.1694    5.2307 H         2 RES2    0.0000
     62 C38       13.9926   28.9680    4.2681 C.ar      2 RES2    0.0000
     63 H25       14.7707   29.3139    4.6418 H         2 RES2    0.0000
     64 C39       14.0617   27.9289    3.3347 C.ar      2 RES2    0.0000
     65 H26       14.8976   27.5907    3.1077 H         2 RES2    0.0000
     66 C40       12.9495   27.3865    2.7367 C.ar      2 RES2    0.0000
     67 C41       13.1893   26.3417    1.7118 C.ar      2 RES2    0.0000
     68 C42       12.7716   26.5217    0.3652 C.ar      2 RES2    0.0000
     69 H27       12.3620   27.3163    0.1148 H         2 RES2    0.0000
     70 C43       12.9617   25.5463   -0.5591 C.ar      2 RES2    0.0000
     71 H28       12.6678   25.6819   -1.4303 H         2 RES2    0.0000
     72 C44       13.5991   24.3268   -0.2290 C.ar      2 RES2    0.0000
     73 C45       13.7493   23.2647   -1.1546 C.ar      2 RES2    0.0000
     74 H29       13.4198   23.3534   -2.0199 H         2 RES2    0.0000
     75 C46       14.3692   22.1206   -0.7829 C.ar      2 RES2    0.0000
     76 H30       14.4738   21.4325   -1.3985 H         2 RES2    0.0000
     77 C47       14.8539   21.9656    0.5215 C.ar      2 RES2    0.0000
     78 H31       15.2669   21.1662    0.7648 H         2 RES2    0.0000
     79 C48       14.7335   22.9588    1.4361 C.ar      2 RES2    0.0000
     80 H32       15.0788   22.8450    2.2923 H         2 RES2    0.0000
     81 C49       14.0890   24.1634    1.0930 C.ar      2 RES2    0.0000
     82 C50       13.8889   25.2009    2.0322 C.ar      2 RES2    0.0000
     83 H33       14.2404   25.1089    2.8884 H         2 RES2    0.0000
     84 C51       10.1856   26.2037    1.7170 C.ar      2 RES2    0.0000
     85 C52        9.5775   26.4370    0.4502 C.ar      2 RES2    0.0000
     86 H34        9.3175   27.3002    0.2192 H         2 RES2    0.0000
     87 C53        9.3701   25.4148   -0.4281 C.ar      2 RES2    0.0000
     88 H35        8.9643   25.5891   -1.2467 H         2 RES2    0.0000
     89 C54        9.7639   24.1044   -0.1122 C.ar      2 RES2    0.0000
     90 C55        9.6085   23.0249   -1.0158 C.ar      2 RES2    0.0000
     91 H36        9.2235   23.1759   -1.8493 H         2 RES2    0.0000
     92 C56       10.0136   21.7772   -0.6798 C.ar      2 RES2    0.0000
     93 H37        9.9228   21.0815   -1.2915 H         2 RES2    0.0000
     94 C57       10.5669   21.5250    0.5760 C.ar      2 RES2    0.0000
     95 H38       10.8366   20.6618    0.7972 H         2 RES2    0.0000
     96 C58       10.7145   22.5354    1.4815 C.ar      2 RES2    0.0000
     97 H39       11.0715   22.3526    2.3202 H         2 RES2    0.0000
     98 C59       10.3332   23.8514    1.1604 C.ar      2 RES2    0.0000
     99 C60       10.5117   24.9277    2.0627 C.ar      2 RES2    0.0000
    100 H40       10.8607   24.7618    2.9079 H         2 RES2    0.0000
@<TRIPOS>BOND
     1    1    2 ar
     2    2    3 ar
     3    3    4 1
     4    5    3 ar
     5    6    5 1
     6    7    5 ar
     7    8    7 1
     8    9    1 ar
     9   10    9 ar
    10   11   10 1
    11   12   10 ar
    12   13   12 1
    13   14   12 ar
    14   15   14 1
    15   16    1 ar
    16   17   16 1
    17   18   17 ar
    18   19   18 1
    19   20   18 ar
    20   21   20 1
    21   22   20 ar
    22   23   22 ar
    23   24   23 1
    24   25   23 ar
    25   26   25 1
    26   27   25 ar
    27   28   27 1
    28   29   27 ar
    29   30   29 1
    30   31   22 ar
    31   32   17 ar
    32   33   32 1
    33   34    2 1
    34   35   34 ar
    35   36   35 1
    36   37   35 ar
    37   38   37 1
    38   39   37 ar
    39   40   39 ar
    40   41   40 1
    41   42   40 ar
    42   43   42 1
    43   44   42 ar
    44   45   44 1
    45   46   44 ar
    46   47   46 1
    47   48   39 ar
    48   49   34 ar
    49   50   49 1
    50   51   52 ar
    51   52   53 ar
    52   53   54 1
    53   55   53 ar
    54   56   55 1
    55   57   55 ar
    56   58   57 1
    57   59   51 ar
    58   60   59 ar
    59   61   60 1
    60   62   60 ar
    61   63   62 1
    62   64   62 ar
    63   65   64 1
    64   66   51 ar
    65   67   66 1
    66   68   67 ar
    67   69   68 1
    68   70   68 ar
    69   71   70 1
    70   72   70 ar
    71   73   72 ar
    72   74   73 1
    73   75   73 ar
    74   76   75 1
    75   77   75 ar
    76   78   77 1
    77   79   77 ar
    78   80   79 1
    79   81   72 ar
    80   82   67 ar
    81   83   82 1
    82   84   52 1
    83   85   84 ar
    84   86   85 1
    85   87   85 ar
    86   88   87 1
    87   89   87 ar
    88   90   89 ar
    89   91   90 1
    90   92   90 ar
    91   93   92 1
    92   94   92 ar
    93   95   94 1
    94   96   94 ar
    95   97   96 1
    96   98   89 ar
    97   99   84 ar
    98  100   99 1
    99    7    9 ar
   100   14   16 ar
   101   29   31 ar
   102   31   32 ar
   103   46   48 ar
   104   48   49 ar
   105   57   59 ar
   106   64   66 ar
   107   79   81 ar
   108   81   82 ar
   109   96   98 ar
   110   98   99 ar
@<TRIPOS>SUBSTRUCTURE
     1 RES1 1
     2 RES2 51

@<TRIPOS>CRYSIN
  15.3717   40.3550    6.4955  90.0000  93.0140  90.0000  14 1

