# MOL2 file generated by ConQuest
# Please check atom types

@<TRIPOS>MOLECULE
EPUCAV
    44    47     1
SMALL
NO_CHARGES
****
Generated from CSD

@<TRIPOS>ATOM
      1 C1         1.1113    3.4297    2.0567 C.ar      1 RES1    0.0000
      2 H1         1.7057    3.1777    1.3875 H         1 RES1    0.0000
      3 C2         0.1878    4.4376    1.7836 C.ar      1 RES1    0.0000
      4 H2         0.1666    4.8383    0.9437 H         1 RES1    0.0000
      5 C3        -0.6751    4.8292    2.7450 C.ar      1 RES1    0.0000
      6 H3        -1.2864    5.5069    2.5661 H         1 RES1    0.0000
      7 C4        -0.6632    4.2205    4.0261 C.ar      1 RES1    0.0000
      8 C5        -1.5941    4.6516    4.9971 C.ar      1 RES1    0.0000
      9 H4        -2.1996    5.3256    4.7881 H         1 RES1    0.0000
     10 C6        -1.6118    4.0915    6.2330 C.ar      1 RES1    0.0000
     11 H5        -2.2272    4.3784    6.8667 H         1 RES1    0.0000
     12 C7        -0.6948    3.0783    6.5471 C.ar      1 RES1    0.0000
     13 H6        -0.7122    2.7102    7.4007 H         1 RES1    0.0000
     14 C8         0.2308    2.6062    5.6417 C.ar      1 RES1    0.0000
     15 C9         0.2773    3.1777    4.3245 C.ar      1 RES1    0.0000
     16 C10        1.1821    2.7914    3.2749 C.ar      1 RES1    0.0000
     17 C11        2.2033    1.6864    3.3602 C.ar      1 RES1    0.0000
     18 C12        1.7778    0.3559    3.2312 C.ar      1 RES1    0.0000
     19 H7         0.8674    0.1753    3.1698 H         1 RES1    0.0000
     20 C13        2.6702   -0.6831    3.1916 C.ar      1 RES1    0.0000
     21 H8         2.3677   -1.5589    3.1165 H         1 RES1    0.0000
     22 C14        4.0034   -0.4205    3.2654 C.ar      1 RES1    0.0000
     23 H9         4.6119   -1.1232    3.2476 H         1 RES1    0.0000
     24 C15        4.4597    0.8751    3.3651 C.ar      1 RES1    0.0000
     25 H10        5.3756    1.0337    3.4033 H         1 RES1    0.0000
     26 C16        3.5727    1.9566    3.4101 C.ar      1 RES1    0.0000
     27 C17        1.0756    1.4617    6.1511 C.ar      1 RES1    0.0000
     28 C18        0.4921    0.1336    6.1210 C.ar      1 RES1    0.0000
     29 H11       -0.3524    0.0023    5.7537 H         1 RES1    0.0000
     30 C19        1.1913   -0.9290    6.6400 C.ar      1 RES1    0.0000
     31 H12        0.8308   -1.7858    6.6222 H         1 RES1    0.0000
     32 C20        2.4367   -0.7028    7.1876 C.ar      1 RES1    0.0000
     33 H13        2.9192   -1.4299    7.5086 H         1 RES1    0.0000
     34 C21        2.9796    0.5176    7.2764 C.ar      1 RES1    0.0000
     35 H14        3.8090    0.6269    7.6820 H         1 RES1    0.0000
     36 C22        2.2906    1.6538    6.7506 C.ar      1 RES1    0.0000
     37 C23        4.1028    3.3485    3.4730 C.3       1 RES1    0.0000
     38 H15        4.9247    3.3553    3.9687 H         1 RES1    0.0000
     39 H16        3.4622    3.9154    3.9086 H         1 RES1    0.0000
     40 H17        4.2632    3.6703    2.5825 H         1 RES1    0.0000
     41 C24        2.8424    2.9933    6.8571 C.3       1 RES1    0.0000
     42 H18        2.6477    3.4843    6.0555 H         1 RES1    0.0000
     43 H19        3.7931    2.9394    6.9773 H         1 RES1    0.0000
     44 H20        2.4480    3.4411    7.6110 H         1 RES1    0.0000
@<TRIPOS>BOND
     1    1    2 1
     2    3    1 ar
     3    4    3 1
     4    5    3 ar
     5    6    5 1
     6    7    5 ar
     7    8    7 ar
     8    9    8 1
     9   10    8 ar
    10   11   10 1
    11   12   10 ar
    12   13   12 1
    13   14   12 ar
    14   15    7 ar
    15   16    1 ar
    16   17   16 1
    17   18   17 ar
    18   19   18 1
    19   20   18 ar
    20   21   20 1
    21   22   20 ar
    22   23   22 1
    23   24   22 ar
    24   25   24 1
    25   26   17 ar
    26   27   14 1
    27   28   27 ar
    28   29   28 1
    29   30   28 ar
    30   31   30 1
    31   32   30 ar
    32   33   32 1
    33   34   32 ar
    34   35   34 1
    35   36   27 ar
    36   37   26 1
    37   38   37 1
    38   39   37 1
    39   40   37 1
    40   41   36 1
    41   42   41 1
    42   43   41 1
    43   44   41 1
    44   14   15 ar
    45   15   16 ar
    46   24   26 ar
    47   34   36 ar
@<TRIPOS>SUBSTRUCTURE
     1 RES1 1

@<TRIPOS>CRYSIN
  16.5078    7.5895   15.4130  90.0000 117.6170  90.0000  14 1

