# MOL2 file generated by ConQuest
# Please check atom types

@<TRIPOS>MOLECULE
EQAKUE
    57    67     1
SMALL
NO_CHARGES
****
Generated from CSD

@<TRIPOS>ATOM
      1 C1         1.3899    2.3336    2.2685 C.ar      1 RES1    0.0000
      2 C2         1.9373   -3.0463    2.9740 C.ar      1 RES1    0.0000
      3 C3        -0.2975    0.6372    2.7499 C.ar      1 RES1    0.0000
      4 H1        -1.1811    0.4106    3.0157 H         1 RES1    0.0000
      5 C4         1.9292   -0.0755    2.0094 C.ar      1 RES1    0.0000
      6 C5         0.0927    2.0183    2.7232 C.ar      1 RES1    0.0000
      7 C6         3.6223    1.6422    1.4661 C.ar      1 RES1    0.0000
      8 C7         2.3275    1.3006    1.9258 C.ar      1 RES1    0.0000
      9 C8         2.8709   -1.1003    1.7018 C.ar      1 RES1    0.0000
     10 C9         1.7527   -6.2387    4.5771 C.ar      1 RES1    0.0000
     11 C10        1.5793   -4.4077    2.9790 C.ar      1 RES1    0.0000
     12 C11        0.5716   -0.3547    2.4056 C.ar      1 RES1    0.0000
     13 H2         0.2741   -1.2563    2.4256 H         1 RES1    0.0000
     14 C12        1.9204   -5.2403    1.9525 C.ar      1 RES1    0.0000
     15 C13        1.8043    3.6999    2.1933 C.ar      1 RES1    0.0000
     16 C14        3.9850    3.0381    1.3858 C.ar      1 RES1    0.0000
     17 H3         4.8557    3.2729    1.0866 H         1 RES1    0.0000
     18 C15        3.5973   -8.8695    2.9606 C.ar      1 RES1    0.0000
     19 H4         4.0495   -9.6742    3.1829 H         1 RES1    0.0000
     20 C16        1.5092   -4.9003    4.3213 C.ar      1 RES1    0.0000
     21 C17        1.8156   -3.9183    5.2458 C.ar      1 RES1    0.0000
     22 C18        4.1366   -0.7259    1.2354 C.ar      1 RES1    0.0000
     23 H5         4.7558   -1.4008    0.9846 H         1 RES1    0.0000
     24 C19        3.6843   -8.3506    1.6065 C.ar      1 RES1    0.0000
     25 H6         4.2084   -8.8104    0.9612 H         1 RES1    0.0000
     26 C20        2.8572   -8.2028    3.9385 C.ar      1 RES1    0.0000
     27 C21        2.5057   -2.5356    1.8155 C.ar      1 RES1    0.0000
     28 C22        3.0120   -7.1912    1.2454 C.ar      1 RES1    0.0000
     29 C23        2.9031   -3.4568    0.7472 C.ar      1 RES1    0.0000
     30 H7         3.3522   -3.1169   -0.0184 H         1 RES1    0.0000
     31 C24        3.1216    4.0185    1.7235 C.ar      1 RES1    0.0000
     32 H8         3.3885    4.9266    1.6483 H         1 RES1    0.0000
     33 C25        2.2864   -4.3305    6.4962 C.ar      1 RES1    0.0000
     34 H9         2.4371   -3.6949    7.1850 H         1 RES1    0.0000
     35 C26       -0.3821    4.3568    3.0425 C.ar      1 RES1    0.0000
     36 H10       -0.9779    5.0416    3.3233 H         1 RES1    0.0000
     37 C27        2.6347   -4.8231    0.8308 C.ar      1 RES1    0.0000
     38 C28        1.8986   -2.5832    4.4517 C.3       1 RES1    0.0000
     39 H11        1.1069   -2.0150    4.6256 H         1 RES1    0.0000
     40 H12        2.7169   -2.0790    4.6874 H         1 RES1    0.0000
     41 C29        4.5139    0.6142    1.1284 C.ar      1 RES1    0.0000
     42 H13        5.3870    0.8326    0.8241 H         1 RES1    0.0000
     43 C30        2.3307   -6.6788    5.7674 C.ar      1 RES1    0.0000
     44 C31        2.9209   -8.1043    5.4798 C.3       1 RES1    0.0000
     45 H14        3.8536   -8.1782    5.8041 H         1 RES1    0.0000
     46 H15        2.3735   -8.8104    5.9061 H         1 RES1    0.0000
     47 C32       -0.7852    3.0463    3.0977 C.ar      1 RES1    0.0000
     48 H16       -1.6640    2.8344    3.3902 H         1 RES1    0.0000
     49 C33        2.1517   -6.6378    2.1983 C.ar      1 RES1    0.0000
     50 C34        2.5403   -5.7264    6.7303 C.ar      1 RES1    0.0000
     51 H17        2.8652   -5.9973    7.5812 H         1 RES1    0.0000
     52 C35        2.0816   -7.1337    3.5005 C.ar      1 RES1    0.0000
     53 C36        0.8796    4.6967    2.5861 C.ar      1 RES1    0.0000
     54 H18        1.1287    5.6130    2.5360 H         1 RES1    0.0000
     55 C37        3.2603   -6.0844    0.1906 C.3       1 RES1    0.0000
     56 H19        4.2293   -5.9595    0.0301 H         1 RES1    0.0000
     57 H20        2.8177   -6.3060   -0.6670 H         1 RES1    0.0000
@<TRIPOS>BOND
     1    1    6 ar
     2    2   11 ar
     3    3    4 1
     4    5    8 ar
     5    6    3 ar
     6    7    8 ar
     7    8    1 ar
     8    9    5 ar
     9   10   20 ar
    10   11   14 ar
    11   12    3 ar
    12   13   12 1
    13   14   37 ar
    14   15    1 ar
    15   16    7 ar
    16   17   16 1
    17   18   19 1
    18   20   11 ar
    19   21   20 ar
    20   22    9 ar
    21   23   22 1
    22   24   18 ar
    23   25   24 1
    24   26   18 ar
    25   27    2 ar
    26   28   24 ar
    27   29   27 ar
    28   30   29 1
    29   31   15 ar
    30   32   31 1
    31   33   21 ar
    32   34   33 1
    33   35   36 1
    34   37   29 ar
    35   38    2 1
    36   39   38 1
    37   40   38 1
    38   41    7 ar
    39   42   41 1
    40   43   10 ar
    41   44   26 1
    42   45   44 1
    43   46   44 1
    44   47    6 ar
    45   48   47 1
    46   49   14 ar
    47   50   33 ar
    48   51   50 1
    49   52   10 ar
    50   53   15 ar
    51   54   53 1
    52   55   28 1
    53   56   55 1
    54   57   55 1
    55    5   12 ar
    56    9   27 1
    57   16   31 ar
    58   21   38 1
    59   22   41 ar
    60   26   52 ar
    61   28   49 ar
    62   35   47 ar
    63   35   53 ar
    64   37   55 1
    65   43   44 1
    66   43   50 ar
    67   49   52 ar
@<TRIPOS>SUBSTRUCTURE
     1 RES1 1

@<TRIPOS>CRYSIN
   8.0620   16.4220   16.7170  90.0000  90.0000  90.0000  29 6

