# MOL2 file generated by ConQuest
# Please check atom types

@<TRIPOS>MOLECULE
EQEBUZ
    42    47     1
SMALL
NO_CHARGES
****
Generated from CSD

@<TRIPOS>ATOM
      1 C1         4.8640    8.6456    3.8119 C.ar      1 RES1    0.0000
      2 C2         5.7745    8.5046    2.7480 C.ar      1 RES1    0.0000
      3 H1         6.5756    8.9772    2.7712 H         1 RES1    0.0000
      4 C3         5.5099    7.6928    1.6834 C.ar      1 RES1    0.0000
      5 H2         6.1342    7.6101    0.9996 H         1 RES1    0.0000
      6 C4         4.3120    6.9852    1.6146 C.ar      1 RES1    0.0000
      7 H3         4.1201    6.4632    0.8689 H         1 RES1    0.0000
      8 C5         3.4324    7.0587    2.6322 C.ar      1 RES1    0.0000
      9 H4         2.6362    6.5794    2.5835 H         1 RES1    0.0000
     10 C6         3.6968    7.8476    3.7693 C.ar      1 RES1    0.0000
     11 C7         2.8795    7.7743    4.9141 C.ar      1 RES1    0.0000
     12 H5         2.0599    7.3377    4.8654 H         1 RES1    0.0000
     13 C8         3.2710    8.3310    6.0803 C.ar      1 RES1    0.0000
     14 H6         2.7621    8.1855    6.8457 H         1 RES1    0.0000
     15 C9         4.4437    9.1350    6.1683 C.ar      1 RES1    0.0000
     16 C10        5.1373    9.4397    4.9997 C.ar      1 RES1    0.0000
     17 C11        6.1552   10.4773    5.0448 C.ar      1 RES1    0.0000
     18 C12        6.7836   10.7560    6.2623 C.ar      1 RES1    0.0000
     19 C13        6.1878   10.2777    7.4975 C.ar      1 RES1    0.0000
     20 C14        4.9505    9.5955    7.4535 C.ar      1 RES1    0.0000
     21 C15        4.3125    9.2910    8.6710 C.ar      1 RES1    0.0000
     22 H7         3.4878    8.8624    8.6530 H         1 RES1    0.0000
     23 C16        4.8677    9.6074    9.8741 C.ar      1 RES1    0.0000
     24 H8         4.4189    9.4071   10.6629 H         1 RES1    0.0000
     25 C17        6.1075   10.2322    9.9165 C.ar      1 RES1    0.0000
     26 H9         6.5051   10.4218   10.7367 H         1 RES1    0.0000
     27 C18        6.7428   10.5687    8.7574 C.ar      1 RES1    0.0000
     28 H10        7.5649   11.0012    8.8007 H         1 RES1    0.0000
     29 C19        7.9653   11.5500    6.2577 C.ar      1 RES1    0.0000
     30 H11        8.4263   11.6835    7.0544 H         1 RES1    0.0000
     31 C20        8.4300   12.1107    5.1281 C.ar      1 RES1    0.0000
     32 H12        9.2616   12.5286    5.1332 H         1 RES1    0.0000
     33 C21        7.6797   12.0784    3.9340 C.ar      1 RES1    0.0000
     34 C22        6.4988   11.2905    3.8988 C.ar      1 RES1    0.0000
     35 C23        5.6474   11.4672    2.7885 C.ar      1 RES1    0.0000
     36 H13        4.8424   11.0026    2.7585 H         1 RES1    0.0000
     37 C24        5.9690   12.3003    1.7544 C.ar      1 RES1    0.0000
     38 H14        5.3774   12.4111    1.0460 H         1 RES1    0.0000
     39 C25        7.1923   12.9865    1.7629 C.ar      1 RES1    0.0000
     40 H15        7.4349   13.5166    1.0376 H         1 RES1    0.0000
     41 C26        8.0145   12.8757    2.8249 C.ar      1 RES1    0.0000
     42 H16        8.8217   13.3376    2.8239 H         1 RES1    0.0000
@<TRIPOS>BOND
     1    1    2 ar
     2    2    3 1
     3    4    2 ar
     4    5    4 1
     5    6    4 ar
     6    7    6 1
     7    8    6 ar
     8    9    8 1
     9   10    1 ar
    10   11   10 ar
    11   12   11 1
    12   13   11 ar
    13   14   13 1
    14   15   13 ar
    15   16    1 ar
    16   17   16 ar
    17   18   17 ar
    18   19   18 ar
    19   20   15 ar
    20   21   20 ar
    21   22   21 1
    22   23   21 ar
    23   24   23 1
    24   25   23 ar
    25   26   25 1
    26   27   19 ar
    27   28   27 1
    28   29   18 ar
    29   30   29 1
    30   31   29 ar
    31   32   31 1
    32   33   31 ar
    33   34   17 ar
    34   35   34 ar
    35   36   35 1
    36   37   35 ar
    37   38   37 1
    38   39   37 ar
    39   40   39 1
    40   41   33 ar
    41   42   41 1
    42    8   10 ar
    43   15   16 ar
    44   19   20 ar
    45   25   27 ar
    46   33   34 ar
    47   39   41 ar
@<TRIPOS>SUBSTRUCTURE
     1 RES1 1

@<TRIPOS>CRYSIN
   5.8492   13.3510   21.1020  90.0000  91.9710  90.0000 231 1

