# MOL2 file generated by ConQuest
# Please check atom types

@<TRIPOS>MOLECULE
EQULOT
   100   110     2
SMALL
NO_CHARGES
****
Generated from CSD

@<TRIPOS>ATOM
      1 C1         5.7618    1.8580    2.8915 C.ar      1 RES1    0.0000
      2 H1         5.5149    0.9688    3.1184 H         1 RES1    0.0000
      3 C2         4.8021    2.8525    2.9411 C.ar      1 RES1    0.0000
      4 C3         5.1967    4.1886    2.6202 C.ar      1 RES1    0.0000
      5 C4         6.5833    4.4753    2.5378 C.ar      1 RES1    0.0000
      6 C5         7.5145    3.4156    2.3617 C.ar      1 RES1    0.0000
      7 C6         7.0716    2.1181    2.5222 C.ar      1 RES1    0.0000
      8 H2         7.6716    1.3949    2.3781 H         1 RES1    0.0000
      9 C7         4.2614    5.2722    2.2300 C.ar      1 RES1    0.0000
     10 C8         2.9355    5.0092    1.8501 C.ar      1 RES1    0.0000
     11 H3         2.5910    4.1297    1.9473 H         1 RES1    0.0000
     12 C9         2.1192    5.9990    1.3374 C.ar      1 RES1    0.0000
     13 H4         1.2201    5.7988    1.1070 H         1 RES1    0.0000
     14 C10        2.6079    7.2847    1.1567 C.ar      1 RES1    0.0000
     15 H5         2.0459    7.9648    0.8043 H         1 RES1    0.0000
     16 C11        3.9024    7.5644    1.4900 C.ar      1 RES1    0.0000
     17 H6         4.2384    8.4421    1.3471 H         1 RES1    0.0000
     18 C12        4.7503    6.5874    2.0388 C.ar      1 RES1    0.0000
     19 C13        6.1239    6.9152    2.4104 C.ar      1 RES1    0.0000
     20 C14        6.5656    8.2408    2.5601 C.ar      1 RES1    0.0000
     21 H7         5.9732    8.9552    2.3555 H         1 RES1    0.0000
     22 C15        7.8347    8.5228    2.9967 C.ar      1 RES1    0.0000
     23 H8         8.1289    9.4236    3.0544 H         1 RES1    0.0000
     24 C16        8.6928    7.4827    3.3570 C.ar      1 RES1    0.0000
     25 H9         9.5529    7.6753    3.7119 H         1 RES1    0.0000
     26 C17        8.2904    6.1853    3.1966 C.ar      1 RES1    0.0000
     27 H10        8.8806    5.4831    3.4412 H         1 RES1    0.0000
     28 C18        7.0216    5.8670    2.6782 C.ar      1 RES1    0.0000
     29 C19        3.4664    2.4302    3.4626 C.ar      1 RES1    0.0000
     30 C20        2.9296    1.1960    3.0972 C.ar      1 RES1    0.0000
     31 H11        3.3540    0.6865    2.4168 H         1 RES1    0.0000
     32 C21        1.7911    0.6989    3.7059 C.ar      1 RES1    0.0000
     33 H12        1.4438   -0.1468    3.4465 H         1 RES1    0.0000
     34 C22        1.1580    1.4333    4.6929 C.ar      1 RES1    0.0000
     35 H13        0.3802    1.0913    5.1177 H         1 RES1    0.0000
     36 C23        1.6623    2.6641    5.0564 C.ar      1 RES1    0.0000
     37 H14        1.2205    3.1747    5.7246 H         1 RES1    0.0000
     38 C24        2.8059    3.1622    4.4580 C.ar      1 RES1    0.0000
     39 H15        3.1465    4.0082    4.7243 H         1 RES1    0.0000
     40 C25        8.8972    3.5998    1.8360 C.ar      1 RES1    0.0000
     41 C26        9.1306    4.4215    0.7273 C.ar      1 RES1    0.0000
     42 H16        8.4343    4.9842    0.4081 H         1 RES1    0.0000
     43 C27       10.3494    4.4278    0.0928 C.ar      1 RES1    0.0000
     44 H17       10.4894    4.9907   -0.6589 H         1 RES1    0.0000
     45 C28       11.3758    3.6137    0.5485 C.ar      1 RES1    0.0000
     46 H18       12.2065    3.5888    0.0880 H         1 RES1    0.0000
     47 C29       11.1823    2.8403    1.6742 C.ar      1 RES1    0.0000
     48 H19       11.8943    2.3099    2.0113 H         1 RES1    0.0000
     49 C30        9.9545    2.8329    2.3149 C.ar      1 RES1    0.0000
     50 H20        9.8335    2.2976    3.0904 H         1 RES1    0.0000
     51 C31        3.1783    9.5253    6.9071 C.ar      2 RES2    0.0000
     52 H21        2.9936    8.9671    7.6533 H         2 RES2    0.0000
     53 C32        2.5219    9.2912    5.7150 C.ar      2 RES2    0.0000
     54 C33        2.8701   10.0996    4.5877 C.ar      2 RES2    0.0000
     55 C34        4.0071   10.9484    4.6772 C.ar      2 RES2    0.0000
     56 C35        4.5223   11.2910    5.9516 C.ar      2 RES2    0.0000
     57 C36        4.0964   10.5502    7.0451 C.ar      2 RES2    0.0000
     58 H22        4.4430   10.7517    7.9067 H         2 RES2    0.0000
     59 C37        2.0422   10.1972    3.3723 C.ar      2 RES2    0.0000
     60 C38        0.6687    9.8862    3.3761 C.ar      2 RES2    0.0000
     61 H23        0.2768    9.5280    4.1641 H         2 RES2    0.0000
     62 C39       -0.1178   10.0879    2.2701 C.ar      2 RES2    0.0000
     63 H24       -1.0380    9.8531    2.2954 H         2 RES2    0.0000
     64 C40        0.4256   10.6348    1.1106 C.ar      2 RES2    0.0000
     65 H25       -0.1177   10.7749    0.3441 H         2 RES2    0.0000
     66 C41        1.7543   10.9685    1.0873 C.ar      2 RES2    0.0000
     67 H26        2.1234   11.3454    0.2974 H         2 RES2    0.0000
     68 C42        2.5817   10.7676    2.1978 C.ar      2 RES2    0.0000
     69 C43        3.9901   11.1636    2.1874 C.ar      2 RES2    0.0000
     70 C44        4.6847   11.3666    0.9838 C.ar      2 RES2    0.0000
     71 H27        4.2318   11.2437    0.1574 H         2 RES2    0.0000
     72 C45        6.0090   11.7397    0.9783 C.ar      2 RES2    0.0000
     73 H28        6.4647   11.8775    0.1561 H         2 RES2    0.0000
     74 C46        6.6746   11.9124    2.1835 C.ar      2 RES2    0.0000
     75 H29        7.5871   12.1778    2.1847 H         2 RES2    0.0000
     76 C47        6.0221   11.7024    3.3757 C.ar      2 RES2    0.0000
     77 H30        6.4966   11.8062    4.1921 H         2 RES2    0.0000
     78 C48        4.6605   11.3357    3.4092 C.ar      2 RES2    0.0000
     79 C49        1.5408    8.1629    5.6747 C.ar      2 RES2    0.0000
     80 C50        0.5766    8.0457    6.6781 C.ar      2 RES2    0.0000
     81 H31        0.5326    8.6984    7.3665 H         2 RES2    0.0000
     82 C51       -0.3151    6.9874    6.6787 C.ar      2 RES2    0.0000
     83 H32       -0.9667    6.9181    7.3665 H         2 RES2    0.0000
     84 C52       -0.2616    6.0325    5.6821 C.ar      2 RES2    0.0000
     85 H33       -0.8810    5.3119    5.6766 H         2 RES2    0.0000
     86 C53        0.7014    6.1311    4.6901 C.ar      2 RES2    0.0000
     87 H34        0.7453    5.4733    4.0067 H         2 RES2    0.0000
     88 C54        1.5982    7.1838    4.6909 C.ar      2 RES2    0.0000
     89 H35        2.2604    7.2377    4.0120 H         2 RES2    0.0000
     90 C55        5.3439   12.5031    6.2433 C.ar      2 RES2    0.0000
     91 C56        4.9857   13.7350    5.6931 C.ar      2 RES2    0.0000
     92 H36        4.2859   13.7706    5.0524 H         2 RES2    0.0000
     93 C57        5.6248   14.9009    6.0581 C.ar      2 RES2    0.0000
     94 H37        5.3657   15.7263    5.6673 H         2 RES2    0.0000
     95 C58        6.6447   14.8677    6.9949 C.ar      2 RES2    0.0000
     96 H38        7.0806   15.6691    7.2585 H         2 RES2    0.0000
     97 C59        7.0223   13.6561    7.5435 C.ar      2 RES2    0.0000
     98 H39        7.7271   13.6266    8.1801 H         2 RES2    0.0000
     99 C60        6.3840   12.4849    7.1731 C.ar      2 RES2    0.0000
    100 H40        6.6576   11.6594    7.5559 H         2 RES2    0.0000
@<TRIPOS>BOND
     1    1    2 1
     2    3    1 ar
     3    4    3 ar
     4    5    4 ar
     5    6    5 ar
     6    7    1 ar
     7    8    7 1
     8    9    4 ar
     9   10    9 ar
    10   11   10 1
    11   12   10 ar
    12   13   12 1
    13   14   12 ar
    14   15   14 1
    15   16   14 ar
    16   17   16 1
    17   18    9 ar
    18   19   18 ar
    19   20   19 ar
    20   21   20 1
    21   22   20 ar
    22   23   22 1
    23   24   22 ar
    24   25   24 1
    25   26   24 ar
    26   27   26 1
    27   28    5 ar
    28   29    3 1
    29   30   29 ar
    30   31   30 1
    31   32   30 ar
    32   33   32 1
    33   34   32 ar
    34   35   34 1
    35   36   34 ar
    36   37   36 1
    37   38   29 ar
    38   39   38 1
    39   40    6 1
    40   41   40 ar
    41   42   41 1
    42   43   41 ar
    43   44   43 1
    44   45   43 ar
    45   46   45 1
    46   47   45 ar
    47   48   47 1
    48   49   40 ar
    49   50   49 1
    50   51   52 1
    51   53   51 ar
    52   54   53 ar
    53   55   54 ar
    54   56   55 ar
    55   57   51 ar
    56   58   57 1
    57   59   54 ar
    58   60   59 ar
    59   61   60 1
    60   62   60 ar
    61   63   62 1
    62   64   62 ar
    63   65   64 1
    64   66   64 ar
    65   67   66 1
    66   68   59 ar
    67   69   68 ar
    68   70   69 ar
    69   71   70 1
    70   72   70 ar
    71   73   72 1
    72   74   72 ar
    73   75   74 1
    74   76   74 ar
    75   77   76 1
    76   78   55 ar
    77   79   53 1
    78   80   79 ar
    79   81   80 1
    80   82   80 ar
    81   83   82 1
    82   84   82 ar
    83   85   84 1
    84   86   84 ar
    85   87   86 1
    86   88   79 ar
    87   89   88 1
    88   90   56 1
    89   91   90 ar
    90   92   91 1
    91   93   91 ar
    92   94   93 1
    93   95   93 ar
    94   96   95 1
    95   97   95 ar
    96   98   97 1
    97   99   90 ar
    98  100   99 1
    99    6    7 ar
   100   16   18 ar
   101   19   28 ar
   102   26   28 ar
   103   36   38 ar
   104   47   49 ar
   105   56   57 ar
   106   66   68 ar
   107   69   78 ar
   108   76   78 ar
   109   86   88 ar
   110   97   99 ar
@<TRIPOS>SUBSTRUCTURE
     1 RES1 1
     2 RES2 51

@<TRIPOS>CRYSIN
  11.5275   13.0003   14.8512 105.1630 106.0950 104.4280   2 1

