# MOL2 file generated by ConQuest
# Please check atom types

@<TRIPOS>MOLECULE
ERASIA01
    96   108     1
SMALL
NO_CHARGES
****
Generated from CSD

@<TRIPOS>ATOM
      1 C1         9.7710    5.2300    5.7396 C.ar      1 RES1    0.0000
      2 H1         8.9770    4.9509    5.3019 H         1 RES1    0.0000
      3 C2         9.7497    6.3591    6.5074 C.ar      1 RES1    0.0000
      4 H2         8.9325    6.8315    6.6138 H         1 RES1    0.0000
      5 C3        10.9233    6.8465    7.1542 C.ar      1 RES1    0.0000
      6 C4        12.0869    6.1226    6.9872 C.ar      1 RES1    0.0000
      7 H3        12.8819    6.4278    7.4097 H         1 RES1    0.0000
      8 C5        12.1382    4.9457    6.2111 C.ar      1 RES1    0.0000
      9 C6        10.9530    4.4680    5.5814 C.ar      1 RES1    0.0000
     10 C7        11.0307    3.2553    4.8508 C.ar      1 RES1    0.0000
     11 H4        10.2569    2.9240    4.4122 H         1 RES1    0.0000
     12 C8        12.1991    2.5560    4.7657 C.ar      1 RES1    0.0000
     13 H5        12.2180    1.7403    4.2790 H         1 RES1    0.0000
     14 C9        13.3970    3.0210    5.3901 C.ar      1 RES1    0.0000
     15 C10       13.3344    4.2136    6.0822 C.ar      1 RES1    0.0000
     16 H6        14.1242    4.5524    6.4851 H         1 RES1    0.0000
     17 C11       15.8611    0.1381    5.3791 C.ar      1 RES1    0.0000
     18 H7        15.8389   -0.8120    5.3897 H         1 RES1    0.0000
     19 C12       14.6865    0.8232    5.3500 C.ar      1 RES1    0.0000
     20 H8        13.8676    0.3433    5.3291 H         1 RES1    0.0000
     21 C13       14.6636    2.2568    5.3514 C.ar      1 RES1    0.0000
     22 C14       15.8823    2.9046    5.3583 C.ar      1 RES1    0.0000
     23 H9        15.8902    3.8546    5.3473 H         1 RES1    0.0000
     24 C15       17.1120    2.2232    5.3798 C.ar      1 RES1    0.0000
     25 C16       17.1120    0.7955    5.3942 C.ar      1 RES1    0.0000
     26 C1B        9.7710    9.6958    9.3914 C.ar      1 RES1    0.0000
     27 C1J       24.4530    5.2300    5.7396 C.ar      1 RES1    0.0000
     28 C1H       24.4530    9.6958    9.3914 C.ar      1 RES1    0.0000
     29 H1B        8.9770    9.9749    9.8291 H         1 RES1    0.0000
     30 H1J       25.2470    4.9509    5.3019 H         1 RES1    0.0000
     31 H1H       25.2470    9.9749    9.8291 H         1 RES1    0.0000
     32 C2B        9.7497    8.5667    8.6236 C.ar      1 RES1    0.0000
     33 C2J       24.4743    6.3591    6.5074 C.ar      1 RES1    0.0000
     34 C2H       24.4743    8.5667    8.6236 C.ar      1 RES1    0.0000
     35 H2B        8.9325    8.0943    8.5172 H         1 RES1    0.0000
     36 H2J       25.2915    6.8315    6.6138 H         1 RES1    0.0000
     37 H2H       25.2915    8.0943    8.5172 H         1 RES1    0.0000
     38 C3B       10.9233    8.0793    7.9768 C.ar      1 RES1    0.0000
     39 C3J       23.3007    6.8465    7.1542 C.ar      1 RES1    0.0000
     40 C3H       23.3007    8.0793    7.9768 C.ar      1 RES1    0.0000
     41 C4B       12.0869    8.8032    8.1438 C.ar      1 RES1    0.0000
     42 C4J       22.1371    6.1226    6.9872 C.ar      1 RES1    0.0000
     43 C4H       22.1371    8.8032    8.1438 C.ar      1 RES1    0.0000
     44 H3B       12.8819    8.4980    7.7213 H         1 RES1    0.0000
     45 H3J       21.3421    6.4278    7.4097 H         1 RES1    0.0000
     46 H3H       21.3421    8.4980    7.7213 H         1 RES1    0.0000
     47 C5B       12.1382    9.9801    8.9199 C.ar      1 RES1    0.0000
     48 C5J       22.0858    4.9457    6.2111 C.ar      1 RES1    0.0000
     49 C5H       22.0858    9.9801    8.9199 C.ar      1 RES1    0.0000
     50 C6B       10.9530   10.4578    9.5496 C.ar      1 RES1    0.0000
     51 C6J       23.2710    4.4680    5.5814 C.ar      1 RES1    0.0000
     52 C6H       23.2710   10.4578    9.5496 C.ar      1 RES1    0.0000
     53 C7B       11.0307   11.6705   10.2802 C.ar      1 RES1    0.0000
     54 C7J       23.1933    3.2553    4.8508 C.ar      1 RES1    0.0000
     55 C7H       23.1933   11.6705   10.2802 C.ar      1 RES1    0.0000
     56 H4B       10.2569   12.0018   10.7188 H         1 RES1    0.0000
     57 H4J       23.9671    2.9240    4.4122 H         1 RES1    0.0000
     58 H4H       23.9671   12.0018   10.7188 H         1 RES1    0.0000
     59 C8B       12.1991   12.3698   10.3653 C.ar      1 RES1    0.0000
     60 C8J       22.0249    2.5560    4.7657 C.ar      1 RES1    0.0000
     61 C8H       22.0249   12.3698   10.3653 C.ar      1 RES1    0.0000
     62 H5B       12.2180   13.1855   10.8520 H         1 RES1    0.0000
     63 H5J       22.0060    1.7403    4.2790 H         1 RES1    0.0000
     64 H5H       22.0060   13.1855   10.8520 H         1 RES1    0.0000
     65 C9B       13.3970   11.9048    9.7409 C.ar      1 RES1    0.0000
     66 C9J       20.8270    3.0210    5.3901 C.ar      1 RES1    0.0000
     67 C9H       20.8270   11.9048    9.7409 C.ar      1 RES1    0.0000
     68 C10B      13.3344   10.7122    9.0488 C.ar      1 RES1    0.0000
     69 C10J      20.8896    4.2136    6.0822 C.ar      1 RES1    0.0000
     70 C10H      20.8896   10.7122    9.0488 C.ar      1 RES1    0.0000
     71 H6B       14.1242   10.3734    8.6459 H         1 RES1    0.0000
     72 H6J       20.0998    4.5524    6.4851 H         1 RES1    0.0000
     73 H6H       20.0998   10.3734    8.6459 H         1 RES1    0.0000
     74 C11B      15.8611   14.7877    9.7519 C.ar      1 RES1    0.0000
     75 C11J      18.3629    0.1381    5.3791 C.ar      1 RES1    0.0000
     76 C11H      18.3629   14.7877    9.7519 C.ar      1 RES1    0.0000
     77 H7B       15.8389   15.7378    9.7413 H         1 RES1    0.0000
     78 H7J       18.3851   -0.8120    5.3897 H         1 RES1    0.0000
     79 H7H       18.3851   15.7378    9.7413 H         1 RES1    0.0000
     80 C12B      14.6865   14.1026    9.7810 C.ar      1 RES1    0.0000
     81 C12J      19.5375    0.8232    5.3500 C.ar      1 RES1    0.0000
     82 C12H      19.5375   14.1026    9.7810 C.ar      1 RES1    0.0000
     83 H8B       13.8676   14.5825    9.8019 H         1 RES1    0.0000
     84 H8J       20.3564    0.3433    5.3291 H         1 RES1    0.0000
     85 H8H       20.3564   14.5825    9.8019 H         1 RES1    0.0000
     86 C13B      14.6636   12.6690    9.7796 C.ar      1 RES1    0.0000
     87 C13J      19.5604    2.2568    5.3514 C.ar      1 RES1    0.0000
     88 C13H      19.5604   12.6690    9.7796 C.ar      1 RES1    0.0000
     89 C14B      15.8823   12.0212    9.7727 C.ar      1 RES1    0.0000
     90 C14J      18.3417    2.9046    5.3583 C.ar      1 RES1    0.0000
     91 C14H      18.3417   12.0212    9.7727 C.ar      1 RES1    0.0000
     92 H9B       15.8902   11.0712    9.7837 H         1 RES1    0.0000
     93 H9J       18.3338    3.8546    5.3473 H         1 RES1    0.0000
     94 H9H       18.3338   11.0712    9.7837 H         1 RES1    0.0000
     95 C15B      17.1120   12.7026    9.7512 C.ar      1 RES1    0.0000
     96 C16B      17.1120   14.1303    9.7368 C.ar      1 RES1    0.0000
@<TRIPOS>BOND
     1    1    2 1
     2    3    1 ar
     3    4    3 1
     4    5    3 ar
     5    6    5 ar
     6    7    6 1
     7    8    6 ar
     8    9    1 ar
     9   10    9 ar
    10   11   10 1
    11   12   10 ar
    12   13   12 1
    13   14   12 ar
    14   15    8 ar
    15   16   15 1
    16   17   18 1
    17   19   17 ar
    18   20   19 1
    19   21   14 1
    20   22   21 ar
    21   23   22 1
    22   24   22 ar
    23   25   17 ar
    24   26   29 1
    25   27   30 1
    26   28   31 1
    27   32   26 ar
    28   33   27 ar
    29   34   28 ar
    30   35   32 1
    31   36   33 1
    32   37   34 1
    33   38    5 1
    34   39   33 ar
    35   40   34 ar
    36   41   38 ar
    37   42   39 ar
    38   43   40 ar
    39   44   41 1
    40   45   42 1
    41   46   43 1
    42   47   41 ar
    43   48   42 ar
    44   49   43 ar
    45   50   26 ar
    46   51   27 ar
    47   52   28 ar
    48   53   50 ar
    49   54   51 ar
    50   55   52 ar
    51   56   53 1
    52   57   54 1
    53   58   55 1
    54   59   53 ar
    55   60   54 ar
    56   61   55 ar
    57   62   59 1
    58   63   60 1
    59   64   61 1
    60   65   59 ar
    61   66   60 ar
    62   67   61 ar
    63   68   47 ar
    64   69   48 ar
    65   70   49 ar
    66   71   68 1
    67   72   69 1
    68   73   70 1
    69   74   77 1
    70   75   25 ar
    71   76   79 1
    72   78   75 1
    73   80   74 ar
    74   81   75 ar
    75   82   76 ar
    76   83   80 1
    77   84   81 1
    78   85   82 1
    79   86   65 1
    80   87   66 1
    81   88   67 1
    82   89   86 ar
    83   90   24 ar
    84   91   88 ar
    85   92   89 1
    86   93   90 1
    87   94   91 1
    88   95   89 ar
    89   96   74 ar
    90    8    9 ar
    91   14   15 ar
    92   19   21 ar
    93   24   25 ar
    94   32   38 ar
    95   39   40 1
    96   47   50 ar
    97   48   51 ar
    98   49   52 ar
    99   65   68 ar
   100   66   69 ar
   101   67   70 ar
   102   76   96 ar
   103   80   86 ar
   104   81   87 ar
   105   82   88 ar
   106   87   90 ar
   107   91   95 ar
   108   95   96 ar
@<TRIPOS>SUBSTRUCTURE
     1 RES1 1

@<TRIPOS>CRYSIN
  34.2240    7.4629   15.1310  90.0000  90.0000  90.0000  64 1

