# MOL2 file generated by ConQuest
# Please check atom types

@<TRIPOS>MOLECULE
ERASIA
   384   432     4
SMALL
NO_CHARGES
****
Generated from CSD

@<TRIPOS>ATOM
      1 C1        -8.1642    4.8493   -5.8498 C.ar      1 RES1    0.0000
      2 H1        -8.5342    4.4066   -6.6051 H         1 RES1    0.0000
      3 C2        -8.8089    4.7975   -4.6517 C.ar      1 RES1    0.0000
      4 H2        -9.6376    4.3351   -4.5968 H         1 RES1    0.0000
      5 C3        -8.2885    5.4029   -3.4948 C.ar      1 RES1    0.0000
      6 C4        -7.0981    6.0738   -3.5738 C.ar      1 RES1    0.0000
      7 H3        -6.7303    6.4738   -2.7945 H         1 RES1    0.0000
      8 C5        -6.4057    6.1772   -4.8165 C.ar      1 RES1    0.0000
      9 C6        -6.9320    5.5672   -5.9769 C.ar      1 RES1    0.0000
     10 C7        -6.2590    5.7178   -7.2059 C.ar      1 RES1    0.0000
     11 H4        -6.6246    5.3056   -7.9817 H         1 RES1    0.0000
     12 C8        -5.0976    6.4358   -7.3295 C.ar      1 RES1    0.0000
     13 H5        -4.6539    6.4997   -8.1671 H         1 RES1    0.0000
     14 C9        -4.5630    7.0929   -6.1691 C.ar      1 RES1    0.0000
     15 C10       -5.2472    6.9514   -4.9264 C.ar      1 RES1    0.0000
     16 H6        -4.9092    7.3925   -4.1574 H         1 RES1    0.0000
     17 C11       -1.7496    9.3776   -7.4530 C.ar      1 RES1    0.0000
     18 H7        -1.5121    9.7989   -8.2701 H         1 RES1    0.0000
     19 C12       -2.8946    8.5912   -7.4221 C.ar      1 RES1    0.0000
     20 H8        -3.4016    8.4862   -8.2186 H         1 RES1    0.0000
     21 C13       -3.3354    7.9341   -6.2309 C.ar      1 RES1    0.0000
     22 C14       -2.5224    8.1196   -5.1529 C.ar      1 RES1    0.0000
     23 H9        -2.7517    7.6724   -4.3462 H         1 RES1    0.0000
     24 C15       -1.3766    8.9197   -5.1495 C.ar      1 RES1    0.0000
     25 C16       -0.9492    9.5753   -6.3408 C.ar      1 RES1    0.0000
     26 C17        0.2055   10.3222   -6.3167 C.ar      1 RES1    0.0000
     27 H10        0.4631   10.7831   -7.1063 H         1 RES1    0.0000
     28 C18        1.0095   10.4363   -5.1941 C.ar      1 RES1    0.0000
     29 H11        1.8240   10.9245   -5.2250 H         1 RES1    0.0000
     30 C19        0.5695    9.7822   -3.9582 C.ar      1 RES1    0.0000
     31 C20       -0.5934    9.0612   -3.9823 C.ar      1 RES1    0.0000
     32 H12       -0.8860    8.6414   -3.1824 H         1 RES1    0.0000
     33 C21        3.6190    9.7837   -0.9544 C.ar      1 RES1    0.0000
     34 H13        4.5683    9.7609   -0.9338 H         1 RES1    0.0000
     35 C22        3.0182    9.8050   -2.1937 C.ar      1 RES1    0.0000
     36 H14        3.5252    9.8187   -2.9970 H         1 RES1    0.0000
     37 C23        1.5530    9.8050   -2.2006 C.ar      1 RES1    0.0000
     38 C24        0.8845    9.8506   -1.0024 C.ar      1 RES1    0.0000
     39 H15       -0.0618    9.9313   -1.0368 H         1 RES1    0.0000
     40 C25        1.4801    9.7883    0.2815 C.ar      1 RES1    0.0000
     41 C26        2.9609    9.7913    0.2746 C.ar      1 RES1    0.0000
     42 C27        3.5051    9.8126    1.5792 C.ar      1 RES1    0.0000
     43 H16        4.4529    9.7837    1.6375 H         1 RES1    0.0000
     44 C28        2.8246    9.8689    2.7773 C.ar      1 RES1    0.0000
     45 H17        3.3011    9.9328    3.5978 H         1 RES1    0.0000
     46 C29       -8.8097    5.3817   -2.7739 C.ar      1 RES1    0.0000
     47 C30       -8.2505    5.3893   -1.4899 C.ar      1 RES1    0.0000
     48 H18       -7.3013    5.3710   -1.4453 H         1 RES1    0.0000
     49 C31        1.9312   13.4055   -7.4633 C.ar      2 RES2    0.0000
     50 H19        2.1516   12.9567   -8.2701 H         2 RES2    0.0000
     51 C32        0.8234   14.2040   -7.4324 C.ar      2 RES2    0.0000
     52 H20        0.3186   14.3257   -8.2289 H         2 RES2    0.0000
     53 C33        0.4244   14.8338   -6.2893 C.ar      2 RES2    0.0000
     54 C34        1.1756   14.6847   -5.1220 C.ar      2 RES2    0.0000
     55 H21        0.8986   15.0954   -4.3118 H         2 RES2    0.0000
     56 C35        2.3817   13.8952   -5.1701 C.ar      2 RES2    0.0000
     57 C36        2.7547   13.2275   -6.3408 C.ar      2 RES2    0.0000
     58 C37        3.9533   12.4837   -6.2961 C.ar      2 RES2    0.0000
     59 H22        4.2422   12.0380   -7.0823 H         2 RES2    0.0000
     60 C38        4.7268   12.3757   -5.1461 C.ar      2 RES2    0.0000
     61 H23        5.5346   11.8767   -5.1598 H         2 RES2    0.0000
     62 C39        4.2965   13.0221   -3.9548 C.ar      2 RES2    0.0000
     63 C40        3.1180   13.7401   -3.9823 C.ar      2 RES2    0.0000
     64 H24        2.7971   14.1371   -3.1824 H         2 RES2    0.0000
     65 C41        7.2321   12.9780   -1.5860 C.ar      2 RES2    0.0000
     66 H25        8.1783   12.9324   -1.6513 H         2 RES2    0.0000
     67 C42        6.5233   12.9872   -2.7739 C.ar      2 RES2    0.0000
     68 H26        6.9737   13.0161   -3.6115 H         2 RES2    0.0000
     69 C43        5.1050   12.9522   -2.7121 C.ar      2 RES2    0.0000
     70 C44        4.5199   12.9841   -1.4934 C.ar      2 RES2    0.0000
     71 H27        3.5706   12.9978   -1.4625 H         2 RES2    0.0000
     72 C45        5.2189   13.0008   -0.2506 C.ar      2 RES2    0.0000
     73 C46        6.6871   13.0313   -0.2884 C.ar      2 RES2    0.0000
     74 C47        7.3609   13.0510    0.9578 C.ar      2 RES2    0.0000
     75 H28        8.3101   13.0951    0.9441 H         2 RES2    0.0000
     76 C48        6.7489   13.0130    2.1834 C.ar      2 RES2    0.0000
     77 H29        7.2537   12.9902    2.9867 H         2 RES2    0.0000
     78 C49        5.2830   13.0069    2.2040 C.ar      2 RES2    0.0000
     79 C50        4.6122   12.9993    0.9750 C.ar      2 RES2    0.0000
     80 H30        3.6622   12.9902    0.9921 H         2 RES2    0.0000
     81 C51        4.4231   12.4913    5.8910 C.ar      2 RES2    0.0000
     82 H31        4.7745   12.0289    6.6463 H         2 RES2    0.0000
     83 C52        5.0805   12.4365    4.6895 C.ar      2 RES2    0.0000
     84 H32        5.9210   11.9954    4.6586 H         2 RES2    0.0000
     85 C53        4.5712   13.0084    3.4811 C.ar      2 RES2    0.0000
     86 C54        3.3577   13.6838    3.5738 C.ar      2 RES2    0.0000
     87 H33        2.9825   14.0717    2.7910 H         2 RES2    0.0000
     88 C55        2.6728   13.8055    4.7959 C.ar      2 RES2    0.0000
     89 C56        3.2408   13.2184    6.0146 C.ar      2 RES2    0.0000
     90 C57        1.9670   13.4252    7.4496 C.ar      2 RES2    0.0000
     91 H34        1.9789   12.8731    8.2220 H         2 RES2    0.0000
     92 C58        1.3550   14.0884    7.3363 C.ar      2 RES2    0.0000
     93 H35        0.9842   14.4124    8.1499 H         2 RES2    0.0000
     94 C59       -0.8435   15.6962   -6.1897 C.ar      2 RES2    0.0000
     95 C60        1.5098   14.5737    4.9195 C.ar      2 RES2    0.0000
     96 H36        1.1525   15.0057    4.1539 H         2 RES2    0.0000
     97 C61        9.4157    9.3669   24.6249 C.ar      3 RES3    0.0000
     98 H37        9.6606    9.7792   25.4454 H         3 RES3    0.0000
     99 C62        8.2684    8.5790   24.5837 C.ar      3 RES3    0.0000
    100 H38        7.7599    8.4771   25.3802 H         3 RES3    0.0000
    101 C63        7.8143    7.9097   23.3856 C.ar      3 RES3    0.0000
    102 C64        8.6146    8.1135   22.3282 C.ar      3 RES3    0.0000
    103 H39        8.3741    7.6922   21.5146 H         3 RES3    0.0000
    104 C65        9.7917    8.9076   22.3248 C.ar      3 RES3    0.0000
    105 C66       10.2123    9.5677   23.5092 C.ar      3 RES3    0.0000
    106 C67       11.4147   10.3207   23.4611 C.ar      3 RES3    0.0000
    107 H40       11.7050   10.7663   24.2473 H         3 RES3    0.0000
    108 C68       12.1830   10.4317   22.3111 C.ar      3 RES3    0.0000
    109 H41       12.9871   10.9367   22.3111 H         3 RES3    0.0000
    110 C69       11.7423    9.7761   21.1404 C.ar      3 RES3    0.0000
    111 C70       10.5697    9.0429   21.1850 C.ar      3 RES3    0.0000
    112 H42       10.2823    8.6079   20.3920 H         3 RES3    0.0000
    113 C71       14.7969    9.7852   18.0988 C.ar      3 RES3    0.0000
    114 H43       15.7469    9.7624   18.0747 H         3 RES3    0.0000
    115 C72       14.1946    9.7944   19.3484 C.ar      3 RES3    0.0000
    116 H44       14.7046    9.7883   20.1517 H         3 RES3    0.0000
    117 C73       12.7347    9.8157   19.3656 C.ar      3 RES3    0.0000
    118 C74       12.0468    9.8309   18.1606 C.ar      3 RES3    0.0000
    119 H45       11.0975    9.8567   18.1880 H         3 RES3    0.0000
    120 C75       12.6706    9.8126   16.9075 C.ar      3 RES3    0.0000
    121 C76       14.1239    9.8050   16.8526 C.ar      3 RES3    0.0000
    122 C77       14.6912    9.8309   15.5652 C.ar      3 RES3    0.0000
    123 H46       15.6390    9.8020   15.5034 H         3 RES3    0.0000
    124 C78       13.9810    9.8963   14.3980 C.ar      3 RES3    0.0000
    125 H47       14.4411    9.9815   13.5706 H         3 RES3    0.0000
    126 C79       12.5500    9.8354   14.4083 C.ar      3 RES3    0.0000
    127 C80       11.9701    9.8096   15.6751 C.ar      3 RES3    0.0000
    128 H48       10.9442    9.9024   15.7918 H         3 RES3    0.0000
    129 C81       11.8621   10.3465   11.2671 C.ar      3 RES3    0.0000
    130 H49       12.2076   10.8059   10.5118 H         3 RES3    0.0000
    131 C82       12.5284   10.3937   12.4858 C.ar      3 RES3    0.0000
    132 H50       13.2744   10.7542   12.7536 H         3 RES3    0.0000
    133 C83       12.0252    9.8035   13.6736 C.ar      3 RES3    0.0000
    134 C84       10.8317    9.1312   13.5981 C.ar      3 RES3    0.0000
    135 H51       10.4669    8.7281   14.3774 H         3 RES3    0.0000
    136 C85       10.1304    9.0292   12.3519 C.ar      3 RES3    0.0000
    137 C86       10.6754    9.6149   11.1744 C.ar      3 RES3    0.0000
    138 C87        9.9815    9.5038    9.9454 C.ar      3 RES3    0.0000
    139 H52       10.3270    9.9526    9.1833 H         3 RES3    0.0000
    140 C88        8.8193    8.7646    9.8184 C.ar      3 RES3    0.0000
    141 H53        8.3734    8.6900    8.9807 H         3 RES3    0.0000
    142 C89        6.5851    7.1035   23.3204 C.ar      3 RES3    0.0000
    143 C90        8.9742    8.2687   12.2661 C.ar      3 RES3    0.0000
    144 H54        8.6243    7.8519   13.0454 H         3 RES3    0.0000
    145 C91        8.6243    1.8725    9.9385 C.ar      4 RES4    0.0000
    146 H55        8.3310    2.3121    8.9945 H         4 RES4    0.0000
    147 C92       10.3634    0.9994    9.7429 C.ar      4 RES4    0.0000
    148 H56       10.8101    0.9735    8.8915 H         4 RES4    0.0000
    149 C93       10.7952    0.3225   10.9513 C.ar      4 RES4    0.0000
    150 C94       10.0076    0.5157   12.0052 C.ar      4 RES4    0.0000
    151 H57       10.2525    0.0882   12.8188 H         4 RES4    0.0000
    152 C95        8.8097    1.3188   12.0121 C.ar      4 RES4    0.0000
    153 C96        8.4136    1.9820   10.8414 C.ar      4 RES4    0.0000
    154 C97        7.2313    2.7471   10.8654 C.ar      4 RES4    0.0000
    155 H58        6.7750    3.1943    9.9557 H         4 RES4    0.0000
    156 C98        6.4481    2.8414   11.9709 C.ar      4 RES4    0.0000
    157 H59        5.5763    3.6050   12.2901 H         4 RES4    0.0000
    158 C99        6.8755    2.1828   13.2033 C.ar      4 RES4    0.0000
    159 C100       8.0257    1.4557   13.1621 C.ar      4 RES4    0.0000
    160 H60        8.3101    1.0176   13.9551 H         4 RES4    0.0000
    161 C101       3.9429    2.2406   15.5687 C.ar      4 RES4    0.0000
    162 H61        2.9959    2.2543   15.4966 H         4 RES4    0.0000
    163 C102       4.6434    2.2588   14.3843 C.ar      4 RES4    0.0000
    164 H62        4.1804    2.2771   13.5535 H         4 RES4    0.0000
    165 C103       6.0602    2.2482   14.4117 C.ar      4 RES4    0.0000
    166 C104       6.6514    2.2315   15.6819 C.ar      4 RES4    0.0000
    167 H63        7.5999    2.2482   15.7266 H         4 RES4    0.0000
    168 C105       5.9352    2.1919   16.9075 C.ar      4 RES4    0.0000
    169 C106       4.4715    2.2026   16.8801 C.ar      4 RES4    0.0000
    170 C107       3.8104    2.1691   18.0919 C.ar      4 RES4    0.0000
    171 H64        2.8641    2.0930   18.0610 H         4 RES4    0.0000
    172 C108       4.4134    2.2391   19.3759 C.ar      4 RES4    0.0000
    173 H65        3.9116    2.2953   20.1826 H         4 RES4    0.0000
    174 C109       5.8801    2.2193   19.3484 C.ar      4 RES4    0.0000
    175 C110       6.5568    2.2102   18.1365 C.ar      4 RES4    0.0000
    176 H66        7.5068    2.2178   18.1571 H         4 RES4    0.0000
    177 C111       6.7273    2.7395   23.0354 C.ar      4 RES4    0.0000
    178 H67        6.3737    3.1958   23.7907 H         4 RES4    0.0000
    179 C112       6.0617    2.8110   21.8339 C.ar      4 RES4    0.0000
    180 H68        5.2376    3.2825   21.7927 H         4 RES4    0.0000
    181 C113       6.5732    2.1904   20.6323 C.ar      4 RES4    0.0000
    182 C114       7.7666    1.5150   20.7319 C.ar      4 RES4    0.0000
    183 H69        8.1165    1.0937   19.9560 H         4 RES4    0.0000
    184 C115       8.5044    1.4161   21.9506 C.ar      4 RES4    0.0000
    185 C116       7.9222    2.0063   23.1693 C.ar      4 RES4    0.0000
    186 C117       8.6317    1.8588   24.4086 C.ar      4 RES4    0.0000
    187 H70        8.2945    2.2817   25.1914 H         4 RES4    0.0000
    188 C118       9.7902    1.1165   24.4910 C.ar      4 RES4    0.0000
    189 H71       10.2421    1.0237   25.3252 H         4 RES4    0.0000
    190 C119      12.0021   -0.4609   11.0577 C.ar      4 RES4    0.0000
    191 C120       9.6450    0.6449   22.0982 C.ar      4 RES4    0.0000
    192 H72        9.9793    0.2084   21.3224 H         4 RES4    0.0000
    193 C1A        0.7192   10.3617    5.8498 C.ar      1 RES1    0.0000
    194 H1A        1.0892   10.8044    6.6051 H         1 RES1    0.0000
    195 C2A        1.3639   10.4135    4.6517 C.ar      1 RES1    0.0000
    196 H2A        2.1926   10.8759    4.5968 H         1 RES1    0.0000
    197 C3A        0.8435    9.8081    3.4948 C.ar      1 RES1    0.0000
    198 C4A       -0.3469    9.1372    3.5738 C.ar      1 RES1    0.0000
    199 H3A       -0.7147    8.7372    2.7945 H         1 RES1    0.0000
    200 C5A       -1.0393    9.0338    4.8165 C.ar      1 RES1    0.0000
    201 C6A       -0.5130    9.6438    5.9769 C.ar      1 RES1    0.0000
    202 C7A       -1.1860    9.4932    7.2059 C.ar      1 RES1    0.0000
    203 H4A       -0.8204    9.9054    7.9817 H         1 RES1    0.0000
    204 C8A       -2.3474    8.7752    7.3295 C.ar      1 RES1    0.0000
    205 H5A       -2.7911    8.7113    8.1671 H         1 RES1    0.0000
    206 C9A       -2.8820    8.1181    6.1691 C.ar      1 RES1    0.0000
    207 C10A      -2.1978    8.2596    4.9264 C.ar      1 RES1    0.0000
    208 H6A       -2.5358    7.8185    4.1574 H         1 RES1    0.0000
    209 C11A      -5.6954    5.8334    7.4530 C.ar      1 RES1    0.0000
    210 H7A       -5.9329    5.4121    8.2701 H         1 RES1    0.0000
    211 C12A      -4.5504    6.6198    7.4221 C.ar      1 RES1    0.0000
    212 H8A       -4.0434    6.7248    8.2186 H         1 RES1    0.0000
    213 C13A      -4.1096    7.2769    6.2309 C.ar      1 RES1    0.0000
    214 C14A      -4.9226    7.0914    5.1529 C.ar      1 RES1    0.0000
    215 H9A       -4.6933    7.5386    4.3462 H         1 RES1    0.0000
    216 C15A      -6.0684    6.2913    5.1495 C.ar      1 RES1    0.0000
    217 C16A      -6.4958    5.6357    6.3408 C.ar      1 RES1    0.0000
    218 C17A      -7.6505    4.8888    6.3167 C.ar      1 RES1    0.0000
    219 H10A      -7.9081    4.4279    7.1063 H         1 RES1    0.0000
    220 C18A      -8.4545    4.7747    5.1941 C.ar      1 RES1    0.0000
    221 H11A      -9.2690    4.2865    5.2250 H         1 RES1    0.0000
    222 C19A      -8.0145    5.4288    3.9582 C.ar      1 RES1    0.0000
    223 C20A      -6.8516    6.1498    3.9823 C.ar      1 RES1    0.0000
    224 H12A      -6.5590    6.5696    3.1824 H         1 RES1    0.0000
    225 C21A     -11.0640    5.4273    0.9544 C.ar      1 RES1    0.0000
    226 H13A     -12.0133    5.4501    0.9338 H         1 RES1    0.0000
    227 C22A     -10.4632    5.4060    2.1937 C.ar      1 RES1    0.0000
    228 H14A     -10.9702    5.3923    2.9970 H         1 RES1    0.0000
    229 C23A      -8.9980    5.4060    2.2006 C.ar      1 RES1    0.0000
    230 C24A      -8.3295    5.3604    1.0024 C.ar      1 RES1    0.0000
    231 H15A      -7.3832    5.2797    1.0368 H         1 RES1    0.0000
    232 C25A      -8.9251    5.4227   -0.2815 C.ar      1 RES1    0.0000
    233 C26A     -10.4059    5.4197   -0.2746 C.ar      1 RES1    0.0000
    234 C27A     -10.9501    5.3984   -1.5792 C.ar      1 RES1    0.0000
    235 H16A     -11.8979    5.4273   -1.6375 H         1 RES1    0.0000
    236 C28A     -10.2696    5.3421   -2.7773 C.ar      1 RES1    0.0000
    237 H17A     -10.7461    5.2782   -3.5978 H         1 RES1    0.0000
    238 C29A       1.3647    9.8293    2.7739 C.ar      1 RES1    0.0000
    239 C30A       0.8055    9.8217    1.4899 C.ar      1 RES1    0.0000
    240 H18A      -0.1437    9.8400    1.4453 H         1 RES1    0.0000
    241 C31A      -1.9312   17.0165    7.4633 C.ar      2 RES2    0.0000
    242 H19A      -2.1516   17.4653    8.2701 H         2 RES2    0.0000
    243 C32A      -0.8234   16.2180    7.4324 C.ar      2 RES2    0.0000
    244 H20A      -0.3186   16.0963    8.2289 H         2 RES2    0.0000
    245 C33A      -0.4244   15.5882    6.2893 C.ar      2 RES2    0.0000
    246 C34A      -1.1756   15.7373    5.1220 C.ar      2 RES2    0.0000
    247 H21A      -0.8986   15.3266    4.3118 H         2 RES2    0.0000
    248 C35A      -2.3817   16.5268    5.1701 C.ar      2 RES2    0.0000
    249 C36A      -2.7546   17.1945    6.3408 C.ar      2 RES2    0.0000
    250 C37A      -3.9533   17.9383    6.2961 C.ar      2 RES2    0.0000
    251 H22A      -4.2422   18.3840    7.0823 H         2 RES2    0.0000
    252 C38A      -4.7268   18.0463    5.1461 C.ar      2 RES2    0.0000
    253 H23A      -5.5346   18.5453    5.1598 H         2 RES2    0.0000
    254 C39A      -4.2965   17.3999    3.9548 C.ar      2 RES2    0.0000
    255 C40A      -3.1180   16.6819    3.9823 C.ar      2 RES2    0.0000
    256 H24A      -2.7971   16.2849    3.1824 H         2 RES2    0.0000
    257 C41A      -7.2321   17.4440    1.5860 C.ar      2 RES2    0.0000
    258 H25A      -8.1783   17.4896    1.6513 H         2 RES2    0.0000
    259 C42A      -6.5233   17.4348    2.7739 C.ar      2 RES2    0.0000
    260 H26A      -6.9737   17.4059    3.6115 H         2 RES2    0.0000
    261 C43A      -5.1050   17.4698    2.7121 C.ar      2 RES2    0.0000
    262 C44A      -4.5199   17.4379    1.4934 C.ar      2 RES2    0.0000
    263 H27A      -3.5706   17.4242    1.4625 H         2 RES2    0.0000
    264 C45A      -5.2189   17.4212    0.2506 C.ar      2 RES2    0.0000
    265 C46A      -6.6871   17.3907    0.2884 C.ar      2 RES2    0.0000
    266 C47A      -7.3609   17.3710   -0.9578 C.ar      2 RES2    0.0000
    267 H28A      -8.3101   17.3269   -0.9441 H         2 RES2    0.0000
    268 C48A      -6.7489   17.4090   -2.1834 C.ar      2 RES2    0.0000
    269 H29A      -7.2537   17.4318   -2.9867 H         2 RES2    0.0000
    270 C49A      -5.2830   17.4151   -2.2040 C.ar      2 RES2    0.0000
    271 C50A      -4.6122   17.4227   -0.9750 C.ar      2 RES2    0.0000
    272 H30A      -3.6622   17.4318   -0.9921 H         2 RES2    0.0000
    273 C51A      -4.4231   17.9307   -5.8910 C.ar      2 RES2    0.0000
    274 H31A      -4.7745   18.3931   -6.6463 H         2 RES2    0.0000
    275 C52A      -5.0805   17.9855   -4.6895 C.ar      2 RES2    0.0000
    276 H32A      -5.9210   18.4266   -4.6586 H         2 RES2    0.0000
    277 C53A      -4.5712   17.4136   -3.4811 C.ar      2 RES2    0.0000
    278 C54A      -3.3577   16.7382   -3.5738 C.ar      2 RES2    0.0000
    279 H33A      -2.9825   16.3503   -2.7910 H         2 RES2    0.0000
    280 C55A      -2.6728   16.6165   -4.7959 C.ar      2 RES2    0.0000
    281 C56A      -3.2408   17.2036   -6.0146 C.ar      2 RES2    0.0000
    282 C57A      -1.9670   16.9968   -7.4496 C.ar      2 RES2    0.0000
    283 H34A      -1.9789   17.5489   -8.2220 H         2 RES2    0.0000
    284 C58A      -1.3550   16.3336   -7.3363 C.ar      2 RES2    0.0000
    285 H35A      -0.9842   16.0096   -8.1499 H         2 RES2    0.0000
    286 C59A       0.8435   14.7258    6.1897 C.ar      2 RES2    0.0000
    287 C60A      -1.5098   15.8483   -4.9195 C.ar      2 RES2    0.0000
    288 H36A      -1.1525   15.4163   -4.1539 H         2 RES2    0.0000
    289 C61A       5.4743    5.8441    9.7051 C.ar      3 RES3    0.0000
    290 H37A       5.2294    5.4318    8.8846 H         3 RES3    0.0000
    291 C62A       6.6216    6.6320    9.7463 C.ar      3 RES3    0.0000
    292 H38A       7.1301    6.7339    8.9498 H         3 RES3    0.0000
    293 C63A       7.0757    7.3013   10.9444 C.ar      3 RES3    0.0000
    294 C64A       6.2754    7.0975   12.0018 C.ar      3 RES3    0.0000
    295 H39A       6.5159    7.5188   12.8154 H         3 RES3    0.0000
    296 C65A       5.0983    6.3034   12.0052 C.ar      3 RES3    0.0000
    297 C66A       4.6777    5.6433   10.8208 C.ar      3 RES3    0.0000
    298 C67A       3.4753    4.8903   10.8689 C.ar      3 RES3    0.0000
    299 H40A       3.1850    4.4447   10.0827 H         3 RES3    0.0000
    300 C68A       2.7070    4.7793   12.0189 C.ar      3 RES3    0.0000
    301 H41A       1.9029    4.2743   12.0189 H         3 RES3    0.0000
    302 C69A       3.1477    5.4349   13.1896 C.ar      3 RES3    0.0000
    303 C70A       4.3203    6.1681   13.1450 C.ar      3 RES3    0.0000
    304 H42A       4.6077    6.6031   13.9380 H         3 RES3    0.0000
    305 C71A       0.0931    5.4258   16.2312 C.ar      3 RES3    0.0000
    306 H43A      -0.8569    5.4486   16.2553 H         3 RES3    0.0000
    307 C72A       0.6954    5.4166   14.9816 C.ar      3 RES3    0.0000
    308 H44A       0.1854    5.4227   14.1783 H         3 RES3    0.0000
    309 C73A       2.1553    5.3953   14.9644 C.ar      3 RES3    0.0000
    310 C74A       2.8432    5.3801   16.1694 C.ar      3 RES3    0.0000
    311 H45A       3.7925    5.3543   16.1420 H         3 RES3    0.0000
    312 C75A       2.2194    5.3984   17.4225 C.ar      3 RES3    0.0000
    313 C76A       0.7661    5.4060   17.4774 C.ar      3 RES3    0.0000
    314 C77A       0.1988    5.3801   18.7648 C.ar      3 RES3    0.0000
    315 H46A      -0.7490    5.4090   18.8266 H         3 RES3    0.0000
    316 C78A       0.9090    5.3147   19.9320 C.ar      3 RES3    0.0000
    317 H47A       0.4489    5.2295   20.7594 H         3 RES3    0.0000
    318 C79A       2.3400    5.3756   19.9217 C.ar      3 RES3    0.0000
    319 C80A       2.9199    5.4014   18.6549 C.ar      3 RES3    0.0000
    320 H48A       3.9459    5.3086   18.5382 H         3 RES3    0.0000
    321 C81A       3.0279    4.8645   23.0629 C.ar      3 RES3    0.0000
    322 H49A       2.6824    4.4051   23.8182 H         3 RES3    0.0000
    323 C82A       2.3616    4.8173   21.8442 C.ar      3 RES3    0.0000
    324 H50A       1.6156    4.4568   21.5764 H         3 RES3    0.0000
    325 C83A       2.8648    5.4075   20.6564 C.ar      3 RES3    0.0000
    326 C84A       4.0583    6.0798   20.7319 C.ar      3 RES3    0.0000
    327 H51A       4.4231    6.4829   19.9526 H         3 RES3    0.0000
    328 C85A       4.7596    6.1818   21.9781 C.ar      3 RES3    0.0000
    329 C86A       4.2146    5.5961   23.1556 C.ar      3 RES3    0.0000
    330 C87A       4.9085    5.7072   24.3846 C.ar      3 RES3    0.0000
    331 H52A       4.5630    5.2584   25.1467 H         3 RES3    0.0000
    332 C88A       6.0707    6.4464   24.5116 C.ar      3 RES3    0.0000
    333 H53A       6.5166    6.5210   25.3493 H         3 RES3    0.0000
    334 C89A       8.3049    8.1075   11.0096 C.ar      3 RES3    0.0000
    335 C90A       5.9158    6.9423   22.0639 C.ar      3 RES3    0.0000
    336 H54A       6.2657    7.3591   21.2846 H         3 RES3    0.0000
    337 C91A      13.7107   -1.8725   24.3915 C.ar      4 RES4    0.0000
    338 H55A      14.0040   -2.3121   25.3355 H         4 RES4    0.0000
    339 C92A      11.9716   -0.9994   24.5871 C.ar      4 RES4    0.0000
    340 H56A      11.5249   -0.9735   25.4385 H         4 RES4    0.0000
    341 C93A      11.5398   -0.3225   23.3787 C.ar      4 RES4    0.0000
    342 C94A      12.3274   -0.5157   22.3248 C.ar      4 RES4    0.0000
    343 H57A      12.0825   -0.0882   21.5112 H         4 RES4    0.0000
    344 C95A      13.5253   -1.3188   22.3179 C.ar      4 RES4    0.0000
    345 C96A      13.9214   -1.9820   23.4886 C.ar      4 RES4    0.0000
    346 C97A      15.1037   -2.7471   23.4646 C.ar      4 RES4    0.0000
    347 H58A      15.5601   -3.1943   24.3743 H         4 RES4    0.0000
    348 C98A      15.8869   -2.8414   22.3591 C.ar      4 RES4    0.0000
    349 H59A      16.7587   -3.6050   22.0399 H         4 RES4    0.0000
    350 C99A      15.4595   -2.1828   21.1267 C.ar      4 RES4    0.0000
    351 C100A     14.3093   -1.4557   21.1679 C.ar      4 RES4    0.0000
    352 H60A      14.0249   -1.0176   20.3749 H         4 RES4    0.0000
    353 C101A     18.3921   -2.2406   18.7613 C.ar      4 RES4    0.0000
    354 H61A      19.3391   -2.2543   18.8334 H         4 RES4    0.0000
    355 C102A     17.6916   -2.2588   19.9457 C.ar      4 RES4    0.0000
    356 H62A      18.1546   -2.2771   20.7765 H         4 RES4    0.0000
    357 C103A     16.2748   -2.2482   19.9183 C.ar      4 RES4    0.0000
    358 C104A     15.6836   -2.2315   18.6481 C.ar      4 RES4    0.0000
    359 H63A      14.7351   -2.2482   18.6034 H         4 RES4    0.0000
    360 C105A     16.3998   -2.1919   17.4225 C.ar      4 RES4    0.0000
    361 C106A     17.8635   -2.2026   17.4499 C.ar      4 RES4    0.0000
    362 C107A     18.5246   -2.1691   16.2381 C.ar      4 RES4    0.0000
    363 H64A      19.4709   -2.0930   16.2690 H         4 RES4    0.0000
    364 C108A     17.9216   -2.2391   14.9541 C.ar      4 RES4    0.0000
    365 H65A      18.4234   -2.2953   14.1474 H         4 RES4    0.0000
    366 C109A     16.4549   -2.2193   14.9816 C.ar      4 RES4    0.0000
    367 C110A     15.7782   -2.2102   16.1935 C.ar      4 RES4    0.0000
    368 H66A      14.8282   -2.2178   16.1729 H         4 RES4    0.0000
    369 C111A     15.6077   -2.7395   11.2946 C.ar      4 RES4    0.0000
    370 H67A      15.9613   -3.1958   10.5393 H         4 RES4    0.0000
    371 C112A     16.2733   -2.8110   12.4961 C.ar      4 RES4    0.0000
    372 H68A      17.0974   -3.2825   12.5373 H         4 RES4    0.0000
    373 C113A     15.7618   -2.1904   13.6977 C.ar      4 RES4    0.0000
    374 C114A     14.5684   -1.5150   13.5981 C.ar      4 RES4    0.0000
    375 H69A      14.2185   -1.0937   14.3740 H         4 RES4    0.0000
    376 C115A     13.8306   -1.4161   12.3794 C.ar      4 RES4    0.0000
    377 C116A     14.4128   -2.0063   11.1607 C.ar      4 RES4    0.0000
    378 C117A     13.7033   -1.8588    9.9214 C.ar      4 RES4    0.0000
    379 H70A      14.0405   -2.2816    9.1386 H         4 RES4    0.0000
    380 C118A     12.5448   -1.1165    9.8390 C.ar      4 RES4    0.0000
    381 H71A      12.0929   -1.0237    9.0048 H         4 RES4    0.0000
    382 C119A     10.3329    0.4609   23.2723 C.ar      4 RES4    0.0000
    383 C120A     12.6900   -0.6449   12.2318 C.ar      4 RES4    0.0000
    384 H72A      12.3557   -0.2084   13.0076 H         4 RES4    0.0000
@<TRIPOS>BOND
     1    1    2 1
     2    3    1 ar
     3    4    3 1
     4    5    3 ar
     5    6    5 ar
     6    7    6 1
     7    8    6 ar
     8    9    1 ar
     9   10    9 ar
    10   11   10 1
    11   12   10 ar
    12   13   12 1
    13   14   12 ar
    14   15    8 ar
    15   16   15 1
    16   17   18 1
    17   19   17 ar
    18   20   19 1
    19   21   14 1
    20   22   21 ar
    21   23   22 1
    22   24   22 ar
    23   25   17 ar
    24   26   25 ar
    25   27   26 1
    26   28   26 ar
    27   29   28 1
    28   30   28 ar
    29   31   24 ar
    30   32   31 1
    31   33   34 1
    32   35   33 ar
    33   36   35 1
    34   37   30 1
    35   38   37 ar
    36   39   38 1
    37   40   38 ar
    38   41   33 ar
    39   42   41 ar
    40   43   42 1
    41   44   42 ar
    42   45   44 1
    43   46    5 1
    44   47   46 ar
    45   48   47 1
    46   49   50 1
    47   51   49 ar
    48   52   51 1
    49   53   51 ar
    50   54   53 ar
    51   55   54 1
    52   56   54 ar
    53   57   49 ar
    54   58   57 ar
    55   59   58 1
    56   60   58 ar
    57   61   60 1
    58   62   60 ar
    59   63   56 ar
    60   64   63 1
    61   65   66 1
    62   67   65 ar
    63   68   67 1
    64   69   62 1
    65   70   69 ar
    66   71   70 1
    67   72   70 ar
    68   73   65 ar
    69   74   73 ar
    70   75   74 1
    71   76   74 ar
    72   77   76 1
    73   78   76 ar
    74   79   72 ar
    75   80   79 1
    76   81   82 1
    77   83   81 ar
    78   84   83 1
    79   85   78 1
    80   86   85 ar
    81   87   86 1
    82   88   86 ar
    83   89   81 ar
    84   90   89 ar
    85   91   90 1
    86   92   90 ar
    87   93   92 1
    88   94   53 1
    89   95   88 ar
    90   96   95 1
    91   97   98 1
    92   99   97 ar
    93  100   99 1
    94  101   99 ar
    95  102  101 ar
    96  103  102 1
    97  104  102 ar
    98  105   97 ar
    99  106  105 ar
   100  107  106 1
   101  108  106 ar
   102  109  108 1
   103  110  108 ar
   104  111  104 ar
   105  112  111 1
   106  113  114 1
   107  115  113 ar
   108  116  115 1
   109  117  110 1
   110  118  117 ar
   111  119  118 1
   112  120  118 ar
   113  121  113 ar
   114  122  121 ar
   115  123  122 1
   116  124  122 ar
   117  125  124 1
   118  126  124 ar
   119  127  120 ar
   120  128  127 1
   121  129  130 1
   122  131  129 ar
   123  132  131 1
   124  133  126 1
   125  134  133 ar
   126  135  134 1
   127  136  134 ar
   128  137  129 ar
   129  138  137 ar
   130  139  138 1
   131  140  138 ar
   132  141  140 1
   133  142  101 1
   134  143  136 ar
   135  144  143 1
   136  145  146 1
   137  147  145 ar
   138  148  147 1
   139  149  147 ar
   140  150  149 ar
   141  151  150 1
   142  152  150 ar
   143  153  145 ar
   144  154  153 ar
   145  155  154 1
   146  156  154 ar
   147  157  156 1
   148  158  156 ar
   149  159  152 ar
   150  160  159 1
   151  161  162 1
   152  163  161 ar
   153  164  163 1
   154  165  158 1
   155  166  165 ar
   156  167  166 1
   157  168  166 ar
   158  169  161 ar
   159  170  169 ar
   160  171  170 1
   161  172  170 ar
   162  173  172 1
   163  174  172 ar
   164  175  168 ar
   165  176  175 1
   166  177  178 1
   167  179  177 ar
   168  180  179 1
   169  181  174 1
   170  182  181 ar
   171  183  182 1
   172  184  182 ar
   173  185  177 ar
   174  186  185 ar
   175  187  186 1
   176  188  186 ar
   177  189  188 1
   178  190  149 1
   179  191  184 ar
   180  192  191 1
   181  193  194 1
   182  195  193 ar
   183  196  195 1
   184  197  195 ar
   185  198  197 ar
   186  199  198 1
   187  200  198 ar
   188  201  193 ar
   189  202  201 ar
   190  203  202 1
   191  204  202 ar
   192  205  204 1
   193  206  204 ar
   194  207  200 ar
   195  208  207 1
   196  209  210 1
   197  211  209 ar
   198  212  211 1
   199  213  206 1
   200  214  213 ar
   201  215  214 1
   202  216  214 ar
   203  217  209 ar
   204  218  217 ar
   205  219  218 1
   206  220  218 ar
   207  221  220 1
   208  222  220 ar
   209  223  216 ar
   210  224  223 1
   211  225  226 1
   212  227  225 ar
   213  228  227 1
   214  229  222 1
   215  230  229 ar
   216  231  230 1
   217  232   47 ar
   218  233  225 ar
   219  234  233 ar
   220  235  234 1
   221  236   46 ar
   222  237  236 1
   223  238   44 ar
   224  239   40 ar
   225  240  239 1
   226  241  242 1
   227  243  241 ar
   228  244  243 1
   229  245  243 ar
   230  246  245 ar
   231  247  246 1
   232  248  246 ar
   233  249  241 ar
   234  250  249 ar
   235  251  250 1
   236  252  250 ar
   237  253  252 1
   238  254  252 ar
   239  255  248 ar
   240  256  255 1
   241  257  258 1
   242  259  257 ar
   243  260  259 1
   244  261  254 1
   245  262  261 ar
   246  263  262 1
   247  264  262 ar
   248  265  257 ar
   249  266  265 ar
   250  267  266 1
   251  268  266 ar
   252  269  268 1
   253  270  268 ar
   254  271  264 ar
   255  272  271 1
   256  273  274 1
   257  275  273 ar
   258  276  275 1
   259  277  270 1
   260  278  277 ar
   261  279  278 1
   262  280  278 ar
   263  281  273 ar
   264  282  281 ar
   265  283  282 1
   266  284   94 ar
   267  285  284 1
   268  286   92 ar
   269  287   94 ar
   270  288  287 1
   271  289  290 1
   272  291  289 ar
   273  292  291 1
   274  293  291 ar
   275  294  293 ar
   276  295  294 1
   277  296  294 ar
   278  297  289 ar
   279  298  297 ar
   280  299  298 1
   281  300  298 ar
   282  301  300 1
   283  302  300 ar
   284  303  296 ar
   285  304  303 1
   286  305  306 1
   287  307  305 ar
   288  308  307 1
   289  309  302 1
   290  310  309 ar
   291  311  310 1
   292  312  310 ar
   293  313  305 ar
   294  314  313 ar
   295  315  314 1
   296  316  314 ar
   297  317  316 1
   298  318  316 ar
   299  319  312 ar
   300  320  319 1
   301  321  322 1
   302  323  321 ar
   303  324  323 1
   304  325  318 1
   305  326  325 ar
   306  327  326 1
   307  328  326 ar
   308  329  321 ar
   309  330  329 ar
   310  331  330 1
   311  332  142 ar
   312  333  332 1
   313  334  140 ar
   314  335  142 ar
   315  336  335 1
   316  337  338 1
   317  339  337 ar
   318  340  339 1
   319  341  339 ar
   320  342  341 ar
   321  343  342 1
   322  344  342 ar
   323  345  337 ar
   324  346  345 ar
   325  347  346 1
   326  348  346 ar
   327  349  348 1
   328  350  348 ar
   329  351  344 ar
   330  352  351 1
   331  353  354 1
   332  355  353 ar
   333  356  355 1
   334  357  350 1
   335  358  357 ar
   336  359  358 1
   337  360  358 ar
   338  361  353 ar
   339  362  361 ar
   340  363  362 1
   341  364  362 ar
   342  365  364 1
   343  366  364 ar
   344  367  360 ar
   345  368  367 1
   346  369  370 1
   347  371  369 ar
   348  372  371 1
   349  373  366 1
   350  374  373 ar
   351  375  374 1
   352  376  374 ar
   353  377  369 ar
   354  378  377 ar
   355  379  378 1
   356  380  190 ar
   357  381  380 1
   358  382  188 ar
   359  383  190 ar
   360  384  383 1
   361    8    9 ar
   362   14   15 ar
   363   19   21 ar
   364   24   25 ar
   365   30   31 ar
   366   35   37 ar
   367   40   41 ar
   368   56   57 ar
   369   62   63 ar
   370   67   69 ar
   371   72   73 ar
   372   78   79 ar
   373   83   85 ar
   374   88   89 ar
   375   95  286 ar
   376  104  105 ar
   377  110  111 ar
   378  115  117 ar
   379  120  121 ar
   380  126  127 ar
   381  131  133 ar
   382  136  137 ar
   383  143  334 ar
   384  152  153 ar
   385  158  159 ar
   386  163  165 ar
   387  168  169 ar
   388  174  175 ar
   389  179  181 ar
   390  184  185 ar
   391  191  382 ar
   392  197  238 1
   393  200  201 ar
   394  206  207 ar
   395  211  213 ar
   396  216  217 ar
   397  222  223 ar
   398  227  229 ar
   399  230  232 ar
   400  232  233 ar
   401  234  236 ar
   402  238  239 ar
   403  245  286 1
   404  248  249 ar
   405  254  255 ar
   406  259  261 ar
   407  264  265 ar
   408  270  271 ar
   409  275  277 ar
   410  280  281 ar
   411  280  287 ar
   412  282  284 ar
   413  293  334 1
   414  296  297 ar
   415  302  303 ar
   416  307  309 ar
   417  312  313 ar
   418  318  319 ar
   419  323  325 ar
   420  328  329 ar
   421  328  335 ar
   422  330  332 ar
   423  341  382 1
   424  344  345 ar
   425  350  351 ar
   426  355  357 ar
   427  360  361 ar
   428  366  367 ar
   429  371  373 ar
   430  376  377 ar
   431  376  383 ar
   432  378  380 ar
@<TRIPOS>SUBSTRUCTURE
     1 RES1 1
     2 RES2 49
     3 RES3 97
     4 RES4 145

@<TRIPOS>CRYSIN
   7.4450   15.2110   34.3300  90.0000  90.0000  90.0000   2 1

