# MOL2 file generated by ConQuest
# Please check atom types

@<TRIPOS>MOLECULE
ETHHEL
    34    41     1
SMALL
NO_CHARGES
****
Generated from CSD

@<TRIPOS>ATOM
      1 C1        -4.1390    5.9792    3.5095 C.ar      1 RES1    0.0000
      2 C2        -3.7737    7.2648    2.9629 C.ar      1 RES1    0.0000
      3 C3        -4.0646    8.3873    3.6350 C.ar      1 RES1    0.0000
      4 C4        -4.9028    8.3052    4.8201 C.ar      1 RES1    0.0000
      5 C5        -5.1910    7.0454    5.2773 C.ar      1 RES1    0.0000
      6 C6        -6.1328    7.2219    6.3755 C.ar      1 RES1    0.0000
      7 C7        -6.4396    5.8971    6.8898 C.ar      1 RES1    0.0000
      8 C8        -5.9242    4.5699    6.4997 C.ar      1 RES1    0.0000
      9 C9        -6.2523    3.4375    7.0128 C.ar      1 RES1    0.0000
     10 C10       -5.6984    2.2537    6.6413 C.ar      1 RES1    0.0000
     11 C11       -4.4073    2.3799    5.8314 C.ar      1 RES1    0.0000
     12 C12       -3.7684    1.0417    5.3990 C.ar      1 RES1    0.0000
     13 C13       -2.6420    1.2169    4.6114 C.ar      1 RES1    0.0000
     14 C14       -2.0177    2.3542    4.3642 C.ar      1 RES1    0.0000
     15 C15       -0.9298    2.3456    3.5480 C.ar      1 RES1    0.0000
     16 C16       -0.3892    3.5000    3.1940 C.ar      1 RES1    0.0000
     17 H1        -4.0779    5.0172    3.1567 H         1 RES1    0.0000
     18 C17       -0.8156    4.8726    3.7480 C.ar      1 RES1    0.0000
     19 C18       -0.1049    6.0099    3.3989 C.ar      1 RES1    0.0000
     20 C19       -0.5340    7.1128    3.8983 C.ar      1 RES1    0.0000
     21 C20       -1.3721    7.2525    5.0102 C.ar      1 RES1    0.0000
     22 C21       -1.9353    8.4474    5.5953 C.ar      1 RES1    0.0000
     23 C22       -2.6008    8.3836    6.7221 C.ar      1 RES1    0.0000
     24 C23       -2.7987    7.1778    7.4004 C.ar      1 RES1    0.0000
     25 C24       -2.5397    5.9792    6.8177 C.ar      1 RES1    0.0000
     26 C25       -1.9553    5.9608    5.5543 C.ar      1 RES1    0.0000
     27 C26       -1.7905    4.7059    4.7456 C.ar      1 RES1    0.0000
     28 C27       -2.6035    3.5625    4.8723 C.ar      1 RES1    0.0000
     29 C28       -3.9995    3.5809    5.3928 C.ar      1 RES1    0.0000
     30 C29       -4.8151    4.7905    5.5419 C.ar      1 RES1    0.0000
     31 C30       -4.7806    5.9094    4.7978 C.ar      1 RES1    0.0000
     32 C31       -3.2836    9.5503    3.5803 C.3       1 RES1    0.0000
     33 C32       -2.0934    9.6876    4.8400 C.3       1 RES1    0.0000
     34 H2        -2.8266    5.2035    7.2675 H         1 RES1    0.0000
@<TRIPOS>BOND
     1    1    2 ar
     2    2    3 ar
     3    3    4 ar
     4    4    5 ar
     5    5    6 ar
     6    6    7 ar
     7    7    8 ar
     8    8    9 ar
     9    9   10 ar
    10   10   11 ar
    11   11   12 ar
    12   12   13 ar
    13   13   14 ar
    14   14   15 ar
    15   15   16 ar
    16   16   18 ar
    17   17    1 1
    18   18   19 ar
    19   19   20 ar
    20   20   21 ar
    21   21   22 ar
    22   22   23 ar
    23   23   24 ar
    24   24   25 ar
    25   25   26 ar
    26   26   21 ar
    27   27   18 ar
    28   28   14 ar
    29   29   11 ar
    30   30    8 ar
    31   31    1 ar
    32   32    3 1
    33   33   22 1
    34   34   25 1
    35    5   31 ar
    36   26   27 ar
    37   27   28 ar
    38   28   29 ar
    39   29   30 ar
    40   30   31 ar
    41   32   33 1
@<TRIPOS>SUBSTRUCTURE
     1 RES1 1

@<TRIPOS>CRYSIN
  13.2830   12.2550   12.4230  90.0000  90.0000  90.0000  33 1

