# MOL2 file generated by ConQuest
# Please check atom types

@<TRIPOS>MOLECULE
EVEHIW
    54    57     1
SMALL
NO_CHARGES
****
Generated from CSD

@<TRIPOS>ATOM
      1 C1         5.7869    8.2672    4.9171 C.ar      1 RES1    0.0000
      2 C2         2.6299   10.3317    2.8166 C.ar      1 RES1    0.0000
      3 C3         9.2503    6.3250    3.2181 C.ar      1 RES1    0.0000
      4 C4         4.7575    8.9791    4.1788 C.ar      1 RES1    0.0000
      5 C5         5.6554    8.1918    6.3123 C.ar      1 RES1    0.0000
      6 C6         3.5366    9.2894    4.8303 C.ar      1 RES1    0.0000
      7 C7         3.8945   10.1511    2.2298 C.ar      1 RES1    0.0000
      8 H1         4.0471   10.4867    1.3763 H         1 RES1    0.0000
      9 C8        10.4810    5.6947    2.5710 C.3       1 RES1    0.0000
     10 C9         2.4919    9.9129    4.1154 C.ar      1 RES1    0.0000
     11 H2         1.6757   10.0446    4.5423 H         1 RES1    0.0000
     12 C10        6.9329    7.6161    4.3064 C.ar      1 RES1    0.0000
     13 C11        8.0105    7.2029    5.1291 C.ar      1 RES1    0.0000
     14 C12        4.9098    9.4969    2.8746 C.ar      1 RES1    0.0000
     15 H3         5.7251    9.3904    2.4402 H         1 RES1    0.0000
     16 C13        8.1156    6.6319    2.4303 C.ar      1 RES1    0.0000
     17 H4         8.1210    6.4029    1.5294 H         1 RES1    0.0000
     18 C14        9.1482    6.6016    4.5531 C.ar      1 RES1    0.0000
     19 H5         9.8630    6.3834    5.1074 H         1 RES1    0.0000
     20 C15        1.4845   10.9622    2.0164 C.3       1 RES1    0.0000
     21 C16        7.0114    7.2522    2.9450 C.ar      1 RES1    0.0000
     22 H6         6.2934    7.4395    2.3840 H         1 RES1    0.0000
     23 C17        4.4410    8.5812    6.9388 C.ar      1 RES1    0.0000
     24 H7         4.3655    8.5166    7.8639 H         1 RES1    0.0000
     25 C18        6.7386    7.7191    7.1045 C.ar      1 RES1    0.0000
     26 H8         6.6496    7.6980    8.0297 H         1 RES1    0.0000
     27 C19        7.8875    7.3022    6.5437 C.ar      1 RES1    0.0000
     28 H9         8.6094    7.0774    7.0858 H         1 RES1    0.0000
     29 C20        3.3982    9.0415    6.2241 C.ar      1 RES1    0.0000
     30 H10        2.5832    9.1980    6.6432 H         1 RES1    0.0000
     31 C21       11.5903    5.4322    3.5884 C.3       1 RES1    0.0000
     32 H11       11.2685    4.8329    4.2655 H         1 RES1    0.0000
     33 H12       11.8541    6.2609    3.9951 H         1 RES1    0.0000
     34 H13       12.3449    5.0390    3.1443 H         1 RES1    0.0000
     35 C22       10.0885    4.3686    1.9117 C.3       1 RES1    0.0000
     36 H14        9.7491    3.7685    2.5792 H         1 RES1    0.0000
     37 H15       10.8591    3.9799    1.4924 H         1 RES1    0.0000
     38 H16        9.4103    4.5287    1.2513 H         1 RES1    0.0000
     39 C23        0.1983   11.0148    2.8320 C.3       1 RES1    0.0000
     40 H17       -0.4997   11.4086    2.3037 H         1 RES1    0.0000
     41 H18        0.3397   11.5427    3.6201 H         1 RES1    0.0000
     42 H19       -0.0564   10.1241    3.0856 H         1 RES1    0.0000
     43 C24       11.0229    6.6400    1.5052 C.3       1 RES1    0.0000
     44 H20       10.3394    6.8119    0.8534 H         1 RES1    0.0000
     45 H21       11.7813    6.2374    1.0753 H         1 RES1    0.0000
     46 H22       11.2886    7.4666    1.9159 H         1 RES1    0.0000
     47 C25        1.8573   12.3839    1.5974 C.3       1 RES1    0.0000
     48 H23        1.1365   12.7679    1.0919 H         1 RES1    0.0000
     49 H24        2.6502   12.3612    1.0574 H         1 RES1    0.0000
     50 H25        2.0183   12.9164    2.3802 H         1 RES1    0.0000
     51 C26        1.2373   10.1129    0.7667 C.3       1 RES1    0.0000
     52 H26        0.5224   10.4986    0.2551 H         1 RES1    0.0000
     53 H27        0.9983    9.2207    1.0281 H         1 RES1    0.0000
     54 H28        2.0346   10.0876    0.2334 H         1 RES1    0.0000
@<TRIPOS>BOND
     1    1    4 ar
     2    2    7 ar
     3    3    9 1
     4    4    6 ar
     5    5    1 ar
     6    6   10 ar
     7    7    8 1
     8    9   31 1
     9   10    2 ar
    10   11   10 1
    11   12    1 ar
    12   13   12 ar
    13   14    4 ar
    14   15   14 1
    15   16    3 ar
    16   17   16 1
    17   18    3 ar
    18   19   18 1
    19   20    2 1
    20   21   12 ar
    21   22   21 1
    22   23    5 ar
    23   24   23 1
    24   25    5 ar
    25   26   25 1
    26   27   13 ar
    27   28   27 1
    28   29    6 ar
    29   30   29 1
    30   31   32 1
    31   33   31 1
    32   34   31 1
    33   35    9 1
    34   36   35 1
    35   37   35 1
    36   38   35 1
    37   39   20 1
    38   40   39 1
    39   41   39 1
    40   42   39 1
    41   43    9 1
    42   44   43 1
    43   45   43 1
    44   46   43 1
    45   47   20 1
    46   48   47 1
    47   49   47 1
    48   50   47 1
    49   51   20 1
    50   52   51 1
    51   53   51 1
    52   54   51 1
    53    7   14 ar
    54   13   18 ar
    55   16   21 ar
    56   23   29 ar
    57   25   27 ar
@<TRIPOS>SUBSTRUCTURE
     1 RES1 1

@<TRIPOS>CRYSIN
   8.2248    9.9887   13.0969  77.5120  81.6720  67.8440   2 1

