# MOL2 file generated by ConQuest
# Please check atom types

@<TRIPOS>MOLECULE
EZOPEO
    68    80     1
SMALL
NO_CHARGES
****
Generated from CSD

@<TRIPOS>ATOM
      1 C1         1.6818    0.8618    4.1913 C.ar      1 RES1    0.0000
      2 C2         0.4210    1.1197    3.7296 C.ar      1 RES1    0.0000
      3 H1        -0.3100    0.5730    3.9922 H         1 RES1    0.0000
      4 C3         0.2216    2.2152    2.8525 C.ar      1 RES1    0.0000
      5 H2        -0.6516    2.3832    2.5191 H         1 RES1    0.0000
      6 C4         1.2465    3.0411    2.4678 C.ar      1 RES1    0.0000
      7 H3         1.0748    3.7649    1.8779 H         1 RES1    0.0000
      8 C5         2.5604    2.8174    2.9469 C.ar      1 RES1    0.0000
      9 C6         3.7156    3.5869    2.6604 C.ar      1 RES1    0.0000
     10 H4         3.6518    4.3427    2.0891 H         1 RES1    0.0000
     11 C7         4.9258    3.2422    3.2065 C.ar      1 RES1    0.0000
     12 H5         5.6866    3.7738    3.0043 H         1 RES1    0.0000
     13 C8         5.0849    2.1217    4.0620 C.ar      1 RES1    0.0000
     14 H6         5.9349    1.9075    4.4271 H         1 RES1    0.0000
     15 C9         3.9886    1.3563    4.3509 C.ar      1 RES1    0.0000
     16 C10        2.7405    1.7075    3.7978 C.ar      1 RES1    0.0000
     17 C11        3.7857    0.1337    5.2220 C.3       1 RES1    0.0000
     18 C12        2.2380   -0.1946    5.1160 C.3       1 RES1    0.0000
     19 C13        1.7443   -0.1931    6.5402 C.ar      1 RES1    0.0000
     20 C14        0.5139   -0.4118    7.1023 C.ar      1 RES1    0.0000
     21 H7        -0.2347   -0.6251    6.5568 H         1 RES1    0.0000
     22 C15        0.3728   -0.3143    8.5111 C.ar      1 RES1    0.0000
     23 H8        -0.4777   -0.4784    8.8997 H         1 RES1    0.0000
     24 C16        1.4226    0.0077    9.3277 C.ar      1 RES1    0.0000
     25 H9         1.2877    0.0742   10.2662 H         1 RES1    0.0000
     26 C17        2.7075    0.2428    8.7827 C.ar      1 RES1    0.0000
     27 C18        3.8873    0.5873    9.4878 C.ar      1 RES1    0.0000
     28 H10        3.8578    0.6922   10.4319 H         1 RES1    0.0000
     29 C19        5.0722    0.7710    8.8191 C.ar      1 RES1    0.0000
     30 H11        5.8492    1.0001    9.3152 H         1 RES1    0.0000
     31 C20        5.1747    0.6299    7.4111 C.ar      1 RES1    0.0000
     32 H12        6.0081    0.7549    6.9714 H         1 RES1    0.0000
     33 C21        4.0500    0.3105    6.6967 C.ar      1 RES1    0.0000
     34 C22        2.8317    0.1187    7.3854 C.ar      1 RES1    0.0000
     35 C12A       4.1281   -1.2896    4.5692 C.3       1 RES1    0.0000
     36 C1A        4.6843   -2.3460    5.4938 C.ar      1 RES1    0.0000
     37 C2A        5.9451   -2.6039    5.9556 C.ar      1 RES1    0.0000
     38 H1A        6.6762   -2.0572    5.6929 H         1 RES1    0.0000
     39 C3A        6.1445   -3.6994    6.8327 C.ar      1 RES1    0.0000
     40 H2A        7.0177   -3.8674    7.1660 H         1 RES1    0.0000
     41 C4A        5.1196   -4.5253    7.2174 C.ar      1 RES1    0.0000
     42 H3A        5.2913   -5.2491    7.8072 H         1 RES1    0.0000
     43 C5A        3.8057   -4.3016    6.7382 C.ar      1 RES1    0.0000
     44 C6A        2.6505   -5.0711    7.0247 C.ar      1 RES1    0.0000
     45 H4A        2.7143   -5.8270    7.5961 H         1 RES1    0.0000
     46 C7A        1.4404   -4.7264    6.4787 C.ar      1 RES1    0.0000
     47 H5A        0.6795   -5.2581    6.6808 H         1 RES1    0.0000
     48 C8A        1.2813   -3.6059    5.6231 C.ar      1 RES1    0.0000
     49 H6A        0.4312   -3.3918    5.2581 H         1 RES1    0.0000
     50 C9A        2.3776   -2.8406    5.3343 C.ar      1 RES1    0.0000
     51 C10A       3.6256   -3.1917    5.8873 C.ar      1 RES1    0.0000
     52 C11A       2.5805   -1.6179    4.4631 C.3       1 RES1    0.0000
     53 C13A       4.6219   -1.2911    3.1450 C.ar      1 RES1    0.0000
     54 C14A       5.8523   -1.0724    2.5828 C.ar      1 RES1    0.0000
     55 H7A        6.6008   -0.8591    3.1283 H         1 RES1    0.0000
     56 C15A       5.9934   -1.1700    1.1740 C.ar      1 RES1    0.0000
     57 H8A        6.8439   -1.0059    0.7855 H         1 RES1    0.0000
     58 C16A       4.9435   -1.4920    0.3575 C.ar      1 RES1    0.0000
     59 H9A        5.0784   -1.5584   -0.5811 H         1 RES1    0.0000
     60 C17A       3.6587   -1.7270    0.9025 C.ar      1 RES1    0.0000
     61 C18A       2.4788   -2.0715    0.1974 C.ar      1 RES1    0.0000
     62 H10A       2.5084   -2.1764   -0.7467 H         1 RES1    0.0000
     63 C19A       1.2939   -2.2552    0.8660 C.ar      1 RES1    0.0000
     64 H11A       0.5169   -2.4843    0.3700 H         1 RES1    0.0000
     65 C20A       1.1915   -2.1142    2.2741 C.ar      1 RES1    0.0000
     66 H12A       0.3580   -2.2391    2.7138 H         1 RES1    0.0000
     67 C21A       2.3162   -1.7947    2.9884 C.ar      1 RES1    0.0000
     68 C22A       3.5345   -1.6029    2.2997 C.ar      1 RES1    0.0000
@<TRIPOS>BOND
     1    1    2 ar
     2    2    3 1
     3    4    2 ar
     4    5    4 1
     5    6    4 ar
     6    7    6 1
     7    8    6 ar
     8    9    8 ar
     9   10    9 1
    10   11    9 ar
    11   12   11 1
    12   13   11 ar
    13   14   13 1
    14   15   13 ar
    15   16    1 ar
    16   17   15 1
    17   18    1 1
    18   19   18 1
    19   20   19 ar
    20   21   20 1
    21   22   20 ar
    22   23   22 1
    23   24   22 ar
    24   25   24 1
    25   26   24 ar
    26   27   26 ar
    27   28   27 1
    28   29   27 ar
    29   30   29 1
    30   31   29 ar
    31   32   31 1
    32   33   17 1
    33   34   19 ar
    34   35   17 1
    35   36   35 1
    36   37   36 ar
    37   38   37 1
    38   39   37 ar
    39   40   39 1
    40   41   39 ar
    41   42   41 1
    42   43   41 ar
    43   44   43 ar
    44   45   44 1
    45   46   44 ar
    46   47   46 1
    47   48   46 ar
    48   49   48 1
    49   50   48 ar
    50   51   36 ar
    51   52   18 1
    52   53   35 1
    53   54   53 ar
    54   55   54 1
    55   56   54 ar
    56   57   56 1
    57   58   56 ar
    58   59   58 1
    59   60   58 ar
    60   61   60 ar
    61   62   61 1
    62   63   61 ar
    63   64   63 1
    64   65   63 ar
    65   66   65 1
    66   67   52 1
    67   68   53 ar
    68    8   16 ar
    69   15   16 ar
    70   17   18 1
    71   26   34 ar
    72   31   33 ar
    73   33   34 ar
    74   35   52 1
    75   43   51 ar
    76   50   51 ar
    77   50   52 1
    78   60   68 ar
    79   65   67 ar
    80   67   68 ar
@<TRIPOS>SUBSTRUCTURE
     1 RES1 1

@<TRIPOS>CRYSIN
   8.5240    8.5650   10.0330  95.1200 102.4200 104.5300   2 1

