# MOL2 file generated by ConQuest
# Please check atom types

@<TRIPOS>MOLECULE
EZUHIR
   172   194     2
SMALL
NO_CHARGES
****
Generated from CSD

@<TRIPOS>ATOM
      1 C1         3.6998    3.4520    1.3609 C.ar      1 RES1    0.0000
      2 C2         2.8191    4.4531    1.7869 C.ar      1 RES1    0.0000
      3 H1         2.0787    4.2088    2.3302 H         1 RES1    0.0000
      4 C3         2.9845    5.7813    1.4506 C.ar      1 RES1    0.0000
      5 C4         2.0901    6.8130    1.9680 C.ar      1 RES1    0.0000
      6 C5         0.8970    6.4792    2.6148 C.ar      1 RES1    0.0000
      7 H2         0.6364    5.5682    2.6769 H         1 RES1    0.0000
      8 C6         0.0931    7.4527    3.1650 C.ar      1 RES1    0.0000
      9 H3        -0.7052    7.2056    3.6169 H         1 RES1    0.0000
     10 C7         0.4475    8.8134    3.0633 C.ar      1 RES1    0.0000
     11 H4        -0.1038    9.4796    3.4565 H         1 RES1    0.0000
     12 C8         1.6077    9.1806    2.3837 C.ar      1 RES1    0.0000
     13 C9         2.0326   10.5568    2.3509 C.ar      1 RES1    0.0000
     14 C10        1.3375   11.5862    3.0029 C.ar      1 RES1    0.0000
     15 H5         0.4805   11.3930    3.3651 H         1 RES1    0.0000
     16 C11        1.8272   12.8388    3.1443 C.ar      1 RES1    0.0000
     17 H6         1.2988   13.5158    3.5514 H         1 RES1    0.0000
     18 C12        3.1137   13.1303    2.6873 C.ar      1 RES1    0.0000
     19 H7         3.5047   13.9790    2.8563 H         1 RES1    0.0000
     20 C13        3.8060   12.1737    1.9922 C.ar      1 RES1    0.0000
     21 H8         4.6848   12.3704    1.6903 H         1 RES1    0.0000
     22 C14        3.2521   10.8986    1.7093 C.ar      1 RES1    0.0000
     23 C15        3.9354    9.8996    0.8866 C.ar      1 RES1    0.0000
     24 C16        3.5793    8.5643    1.0194 C.ar      1 RES1    0.0000
     25 C17        4.3680    7.5260    0.3795 C.ar      1 RES1    0.0000
     26 C18        4.0735    6.1615    0.6158 C.ar      1 RES1    0.0000
     27 C19        4.9164    5.1488    0.0621 C.ar      1 RES1    0.0000
     28 C20        4.7375    3.8446    0.5261 C.ar      1 RES1    0.0000
     29 H9         5.3645    3.1854    0.2535 H         1 RES1    0.0000
     30 C21        2.4346    8.1840    1.8128 C.ar      1 RES1    0.0000
     31 C22        3.5066    2.0133    1.8128 C.3       1 RES1    0.0000
     32 C23        4.0060    1.8589    3.2599 C.3       1 RES1    0.0000
     33 H10        4.9464    2.1295    3.3116 H         1 RES1    0.0000
     34 H11        3.9205    0.9214    3.5376 H         1 RES1    0.0000
     35 H12        3.4699    2.4250    3.8532 H         1 RES1    0.0000
     36 C24        2.0453    1.6201    1.7369 C.3       1 RES1    0.0000
     37 H13        1.5275    2.1624    2.3682 H         1 RES1    0.0000
     38 H14        1.9497    0.6718    1.9663 H         1 RES1    0.0000
     39 H15        1.7128    1.7718    0.8279 H         1 RES1    0.0000
     40 C25        4.2829    1.0250    0.9348 C.3       1 RES1    0.0000
     41 H16        4.0601    1.1777   -0.0069 H         1 RES1    0.0000
     42 H17        4.0399    0.1079    1.1832 H         1 RES1    0.0000
     43 H18        5.2448    1.1538    1.0694 H         1 RES1    0.0000
     44 C26        0.4373    1.4950    7.2666 C.ar      2 RES2    0.0000
     45 C27        1.4538    1.9060    8.0859 C.ar      2 RES2    0.0000
     46 H19        2.1149    1.2730    8.3395 H         2 RES2    0.0000
     47 C28        1.5682    3.2289    8.5689 C.ar      2 RES2    0.0000
     48 C29        2.5956    3.6296    9.5175 C.ar      2 RES2    0.0000
     49 C30        3.3168    2.6532   10.3437 C.ar      2 RES2    0.0000
     50 C31        2.8011    1.3669   10.6093 C.ar      2 RES2    0.0000
     51 H20        1.9263    1.1463   10.3127 H         2 RES2    0.0000
     52 C32        3.5410    0.4239   11.2923 C.ar      2 RES2    0.0000
     53 H21        3.1828   -0.4423   11.4441 H         2 RES2    0.0000
     54 C33        4.8168    0.7457   11.7580 C.ar      2 RES2    0.0000
     55 H22        5.3694    0.0800   12.1513 H         2 RES2    0.0000
     56 C34        5.2608    2.0409   11.6390 C.ar      2 RES2    0.0000
     57 H23        6.0968    2.2774   12.0237 H         2 RES2    0.0000
     58 C35        4.5206    3.0262   10.9664 C.ar      2 RES2    0.0000
     59 C36        4.8987    4.4383   10.9940 C.ar      2 RES2    0.0000
     60 C37        6.0438    4.8288   11.6701 C.ar      2 RES2    0.0000
     61 H24        6.6127    4.1804   12.0685 H         2 RES2    0.0000
     62 C38        6.3517    6.1923   11.7563 C.ar      2 RES2    0.0000
     63 H25        7.1545    6.4674   12.1823 H         2 RES2    0.0000
     64 C39        5.5037    7.1338   11.2320 C.ar      2 RES2    0.0000
     65 H26        5.7216    8.0538   11.3234 H         2 RES2    0.0000
     66 C40        4.3307    6.7773   10.5696 C.ar      2 RES2    0.0000
     67 C41        3.3974    7.7805   10.0591 C.ar      2 RES2    0.0000
     68 C42        2.3349    7.3638    9.2243 C.ar      2 RES2    0.0000
     69 C43        2.0775    5.9731    8.9966 C.ar      2 RES2    0.0000
     70 C44        2.8841    4.9700    9.6382 C.ar      2 RES2    0.0000
     71 C45        4.0335    5.3848   10.4196 C.ar      2 RES2    0.0000
     72 C46        3.5240    9.1253   10.3954 C.ar      2 RES2    0.0000
     73 H27        4.2645    9.4009   10.9232 H         2 RES2    0.0000
     74 C47        0.3395    0.0383    6.7958 C.3       2 RES2    0.0000
     75 C48        1.0003   -0.9179    7.7944 C.3       2 RES2    0.0000
     76 H28        1.9723   -0.7954    7.7703 H         2 RES2    0.0000
     77 H29        0.7810   -1.8438    7.5564 H         2 RES2    0.0000
     78 H30        0.6696   -0.7277    8.6982 H         2 RES2    0.0000
     79 C49       -1.1252   -0.3903    6.6440 C.3       2 RES2    0.0000
     80 H31       -1.5924   -0.2657    7.4960 H         2 RES2    0.0000
     81 H32       -1.1642   -1.3347    6.3853 H         2 RES2    0.0000
     82 H33       -1.5555    0.1569    5.9523 H         2 RES2    0.0000
     83 C50        1.0321   -0.0932    5.4280 C.3       2 RES2    0.0000
     84 H34        0.6071    0.5153    4.7864 H         2 RES2    0.0000
     85 H35        0.9493   -1.0160    5.1072 H         2 RES2    0.0000
     86 H36        1.9798    0.1381    5.5177 H         2 RES2    0.0000
     87 C1A        6.1691   11.9634   -1.3609 C.ar      1 RES1    0.0000
     88 C2A        7.0498   10.9623   -1.7869 C.ar      1 RES1    0.0000
     89 H1A        7.7902   11.2066   -2.3302 H         1 RES1    0.0000
     90 C3A        6.8844    9.6341   -1.4506 C.ar      1 RES1    0.0000
     91 C4A        7.7788    8.6024   -1.9680 C.ar      1 RES1    0.0000
     92 C5A        8.9719    8.9361   -2.6148 C.ar      1 RES1    0.0000
     93 H2A        9.2325    9.8471   -2.6769 H         1 RES1    0.0000
     94 C6A        9.7758    7.9627   -3.1650 C.ar      1 RES1    0.0000
     95 H3A       10.5741    8.2098   -3.6169 H         1 RES1    0.0000
     96 C7A        9.4214    6.6020   -3.0633 C.ar      1 RES1    0.0000
     97 H4A        9.9727    5.9358   -3.4565 H         1 RES1    0.0000
     98 C8A        8.2612    6.2347   -2.3837 C.ar      1 RES1    0.0000
     99 C9A        7.8363    4.8586   -2.3509 C.ar      1 RES1    0.0000
    100 C10A       8.5314    3.8292   -3.0029 C.ar      1 RES1    0.0000
    101 H5A        9.3884    4.0224   -3.3651 H         1 RES1    0.0000
    102 C11A       8.0417    2.5766   -3.1443 C.ar      1 RES1    0.0000
    103 H6A        8.5701    1.8996   -3.5514 H         1 RES1    0.0000
    104 C12A       6.7552    2.2851   -2.6873 C.ar      1 RES1    0.0000
    105 H7A        6.3642    1.4364   -2.8563 H         1 RES1    0.0000
    106 C13A       6.0629    3.2417   -1.9922 C.ar      1 RES1    0.0000
    107 H8A        5.1841    3.0450   -1.6903 H         1 RES1    0.0000
    108 C14A       6.6168    4.5168   -1.7093 C.ar      1 RES1    0.0000
    109 C15A       5.9335    5.5158   -0.8866 C.ar      1 RES1    0.0000
    110 C16A       6.2896    6.8511   -1.0194 C.ar      1 RES1    0.0000
    111 C17A       5.5009    7.8893   -0.3795 C.ar      1 RES1    0.0000
    112 C18A       5.7954    9.2538   -0.6158 C.ar      1 RES1    0.0000
    113 C19A       4.9525   10.2666   -0.0621 C.ar      1 RES1    0.0000
    114 C20A       5.1314   11.5708   -0.5261 C.ar      1 RES1    0.0000
    115 H9A        4.5044   12.2300   -0.2535 H         1 RES1    0.0000
    116 C21A       7.4344    7.2313   -1.8128 C.ar      1 RES1    0.0000
    117 C22A       6.3624   13.4021   -1.8128 C.3       1 RES1    0.0000
    118 C23A       5.8629   13.5565   -3.2599 C.3       1 RES1    0.0000
    119 H10A       4.9225   13.2859   -3.3116 H         1 RES1    0.0000
    120 H11A       5.9485   14.4939   -3.5376 H         1 RES1    0.0000
    121 H12A       6.3990   12.9903   -3.8532 H         1 RES1    0.0000
    122 C24A       7.8236   13.7952   -1.7369 C.3       1 RES1    0.0000
    123 H13A       8.3414   13.2530   -2.3682 H         1 RES1    0.0000
    124 H14A       7.9192   14.7435   -1.9663 H         1 RES1    0.0000
    125 H15A       8.1561   13.6436   -0.8279 H         1 RES1    0.0000
    126 C25A       5.5860   14.3904   -0.9348 C.3       1 RES1    0.0000
    127 H16A       5.8088   14.2376    0.0069 H         1 RES1    0.0000
    128 H17A       5.8291   15.3075   -1.1832 H         1 RES1    0.0000
    129 H18A       4.6241   14.2616   -1.0694 H         1 RES1    0.0000
    130 C26A       2.5934   10.0777    9.9815 C.ar      2 RES2    0.0000
    131 C27A       1.5768    9.6668    9.1622 C.ar      2 RES2    0.0000
    132 H19A       0.9158   10.2998    8.9087 H         2 RES2    0.0000
    133 C28A       1.4624    8.3438    8.6793 C.ar      2 RES2    0.0000
    134 C29A       0.4350    7.9432    7.7306 C.ar      2 RES2    0.0000
    135 C30A      -0.2862    8.9196    6.9044 C.ar      2 RES2    0.0000
    136 C31A       0.2296   10.2058    6.6388 C.ar      2 RES2    0.0000
    137 H20A       1.1043   10.4265    6.9355 H         2 RES2    0.0000
    138 C32A      -0.5103   11.1488    5.9558 C.ar      2 RES2    0.0000
    139 H21A      -0.1521   12.0151    5.8040 H         2 RES2    0.0000
    140 C33A      -1.7861   10.8271    5.4901 C.ar      2 RES2    0.0000
    141 H22A      -2.3387   11.4928    5.0968 H         2 RES2    0.0000
    142 C34A      -2.2302    9.5319    5.6091 C.ar      2 RES2    0.0000
    143 H23A      -3.0661    9.2954    5.2245 H         2 RES2    0.0000
    144 C35A      -1.4899    8.5465    6.2818 C.ar      2 RES2    0.0000
    145 C36A      -1.8681    7.1345    6.2542 C.ar      2 RES2    0.0000
    146 C37A      -3.0131    6.7440    5.5780 C.ar      2 RES2    0.0000
    147 H24A      -3.5820    7.3923    5.1796 H         2 RES2    0.0000
    148 C38A      -3.3211    5.3805    5.4918 C.ar      2 RES2    0.0000
    149 H25A      -4.1238    5.1054    5.0658 H         2 RES2    0.0000
    150 C39A      -2.4731    4.4389    6.0161 C.ar      2 RES2    0.0000
    151 H26A      -2.6909    3.5189    5.9247 H         2 RES2    0.0000
    152 C40A      -1.3001    4.7954    6.6785 C.ar      2 RES2    0.0000
    153 C41A      -0.3668    3.7922    7.1890 C.ar      2 RES2    0.0000
    154 C42A       0.6957    4.2090    8.0238 C.ar      2 RES2    0.0000
    155 C43A       0.9531    5.5996    8.2515 C.ar      2 RES2    0.0000
    156 C44A       0.1465    6.6027    7.6099 C.ar      2 RES2    0.0000
    157 C45A      -1.0028    6.1879    6.8285 C.ar      2 RES2    0.0000
    158 C46A      -0.4933    2.4474    6.8527 C.ar      2 RES2    0.0000
    159 H27A      -1.2339    2.1719    6.3249 H         2 RES2    0.0000
    160 C47A       2.6911   11.5344   10.4524 C.3       2 RES2    0.0000
    161 C48A       2.0303   12.4907    9.4537 C.3       2 RES2    0.0000
    162 H28A       1.0583   12.3681    9.4778 H         2 RES2    0.0000
    163 H29A       2.2497   13.4165    9.6917 H         2 RES2    0.0000
    164 H30A       2.3611   12.3005    8.5499 H         2 RES2    0.0000
    165 C49A       4.1559   11.9631   10.6041 C.3       2 RES2    0.0000
    166 H31A       4.6231   11.8384    9.7521 H         2 RES2    0.0000
    167 H32A       4.1948   12.9074   10.8629 H         2 RES2    0.0000
    168 H33A       4.5861   11.4159   11.2958 H         2 RES2    0.0000
    169 C50A       1.9986   11.6660   11.8201 C.3       2 RES2    0.0000
    170 H34A       2.4236   11.0575   12.4618 H         2 RES2    0.0000
    171 H35A       2.0814   12.5888   12.1410 H         2 RES2    0.0000
    172 H36A       1.0509   11.4347   11.7304 H         2 RES2    0.0000
@<TRIPOS>BOND
     1    1    2 ar
     2    2    3 1
     3    4    2 ar
     4    5    4 ar
     5    6    5 ar
     6    7    6 1
     7    8    6 ar
     8    9    8 1
     9   10    8 ar
    10   11   10 1
    11   12   10 ar
    12   13   12 ar
    13   14   13 ar
    14   15   14 1
    15   16   14 ar
    16   17   16 1
    17   18   16 ar
    18   19   18 1
    19   20   18 ar
    20   21   20 1
    21   22   13 ar
    22   23   22 ar
    23   24   23 ar
    24   25   24 ar
    25   26    4 ar
    26   27   26 ar
    27   28    1 ar
    28   29   28 1
    29   30    5 ar
    30   31    1 1
    31   32   31 1
    32   33   32 1
    33   34   32 1
    34   35   32 1
    35   36   31 1
    36   37   36 1
    37   38   36 1
    38   39   36 1
    39   40   31 1
    40   41   40 1
    41   42   40 1
    42   43   40 1
    43   44   45 ar
    44   45   46 1
    45   47   45 ar
    46   48   47 ar
    47   49   48 ar
    48   50   49 ar
    49   51   50 1
    50   52   50 ar
    51   53   52 1
    52   54   52 ar
    53   55   54 1
    54   56   54 ar
    55   57   56 1
    56   58   49 ar
    57   59   58 ar
    58   60   59 ar
    59   61   60 1
    60   62   60 ar
    61   63   62 1
    62   64   62 ar
    63   65   64 1
    64   66   64 ar
    65   67   66 ar
    66   68   67 ar
    67   69   68 ar
    68   70   48 ar
    69   71   59 ar
    70   72   67 ar
    71   73   72 1
    72   74   44 1
    73   75   74 1
    74   76   75 1
    75   77   75 1
    76   78   75 1
    77   79   74 1
    78   80   79 1
    79   81   79 1
    80   82   79 1
    81   83   74 1
    82   84   83 1
    83   85   83 1
    84   86   83 1
    85   87   88 ar
    86   88   89 1
    87   90   88 ar
    88   91   90 ar
    89   92   91 ar
    90   93   92 1
    91   94   92 ar
    92   95   94 1
    93   96   94 ar
    94   97   96 1
    95   98   96 ar
    96   99   98 ar
    97  100   99 ar
    98  101  100 1
    99  102  100 ar
   100  103  102 1
   101  104  102 ar
   102  105  104 1
   103  106  104 ar
   104  107  106 1
   105  108   99 ar
   106  109   27 ar
   107  110  109 ar
   108  111   25 ar
   109  112   90 ar
   110  113   23 ar
   111  114   87 ar
   112  115  114 1
   113  116   91 ar
   114  117   87 1
   115  118  117 1
   116  119  118 1
   117  120  118 1
   118  121  118 1
   119  122  117 1
   120  123  122 1
   121  124  122 1
   122  125  122 1
   123  126  117 1
   124  127  126 1
   125  128  126 1
   126  129  126 1
   127  130   72 ar
   128  131  130 ar
   129  132  131 1
   130  133   68 ar
   131  134  133 ar
   132  135  134 ar
   133  136  135 ar
   134  137  136 1
   135  138  136 ar
   136  139  138 1
   137  140  138 ar
   138  141  140 1
   139  142  140 ar
   140  143  142 1
   141  144  135 ar
   142  145  144 ar
   143  146  145 ar
   144  147  146 1
   145  148  146 ar
   146  149  148 1
   147  150  148 ar
   148  151  150 1
   149  152  150 ar
   150  153  152 ar
   151  154   47 ar
   152  155   69 ar
   153  156  134 ar
   154  157  145 ar
   155  158   44 ar
   156  159  158 1
   157  160  130 1
   158  161  160 1
   159  162  161 1
   160  163  161 1
   161  164  161 1
   162  165  160 1
   163  166  165 1
   164  167  165 1
   165  168  165 1
   166  169  160 1
   167  170  169 1
   168  171  169 1
   169  172  169 1
   170   12   30 ar
   171   20   22 ar
   172   24   30 ar
   173   25   26 ar
   174   27   28 ar
   175   56   58 ar
   176   66   71 ar
   177   69   70 ar
   178   70   71 ar
   179   98  116 ar
   180  106  108 ar
   181  108  109 ar
   182  110  111 ar
   183  110  116 ar
   184  111  112 ar
   185  112  113 ar
   186  113  114 ar
   187  131  133 ar
   188  142  144 ar
   189  152  157 ar
   190  153  154 ar
   191  153  158 ar
   192  154  155 ar
   193  155  156 ar
   194  156  157 ar
@<TRIPOS>SUBSTRUCTURE
     1 RES1 1
     2 RES2 44

@<TRIPOS>CRYSIN
   5.9165   15.5400   17.6950 102.0540  92.9860  97.2610   2 1

