# MOL2 file generated by ConQuest
# Please check atom types

@<TRIPOS>MOLECULE
FACPEE
    68    76     1
SMALL
NO_CHARGES
****
Generated from CSD

@<TRIPOS>ATOM
      1 C1         6.2669    7.8463    0.2087 C.ar      1 RES1    0.0000
      2 C2         4.8975    8.1098    0.4558 C.ar      1 RES1    0.0000
      3 C3         4.3168    7.5797    1.6456 C.ar      1 RES1    0.0000
      4 C4         5.1584    7.3314    2.7494 C.ar      1 RES1    0.0000
      5 C5         6.5561    7.3831    2.5663 C.ar      1 RES1    0.0000
      6 C6         7.0813    7.3476    1.2520 C.ar      1 RES1    0.0000
      7 C7         4.0218    8.9217   -0.4155 C.ar      1 RES1    0.0000
      8 C8         4.5264    9.8937   -1.3051 C.ar      1 RES1    0.0000
      9 C9         3.6813   10.7127   -2.0282 C.ar      1 RES1    0.0000
     10 C10        2.3111   10.6175   -1.8781 C.ar      1 RES1    0.0000
     11 C11        1.7853    9.6890   -1.0104 C.ar      1 RES1    0.0000
     12 C12        2.6173    8.8335   -0.2764 C.ar      1 RES1    0.0000
     13 C13        2.0541    7.8220    0.6187 C.ar      1 RES1    0.0000
     14 C14        0.7140    7.4043    0.5070 C.ar      1 RES1    0.0000
     15 C15        0.2025    6.4120    1.3015 C.ar      1 RES1    0.0000
     16 C16        1.0309    5.7856    2.2222 C.ar      1 RES1    0.0000
     17 C17        2.3335    6.1921    2.3760 C.ar      1 RES1    0.0000
     18 C18        2.8775    7.2351    1.5962 C.ar      1 RES1    0.0000
     19 C19        7.5182    7.5017    3.6811 C.ar      1 RES1    0.0000
     20 C20        7.1650    8.1402    4.8819 C.ar      1 RES1    0.0000
     21 C21        8.0688    8.3247    5.8960 C.ar      1 RES1    0.0000
     22 C22        9.3651    7.8564    5.7422 C.ar      1 RES1    0.0000
     23 C23        9.7515    7.2756    4.5762 C.ar      1 RES1    0.0000
     24 C24        8.8501    7.1155    3.5017 C.ar      1 RES1    0.0000
     25 C25        9.2745    6.5985    2.1984 C.ar      1 RES1    0.0000
     26 C26       10.5369    5.9853    2.0300 C.ar      1 RES1    0.0000
     27 C27       10.9475    5.5160    0.8072 C.ar      1 RES1    0.0000
     28 C28       10.0882    5.6012   -0.2709 C.ar      1 RES1    0.0000
     29 C29        8.8534    6.2053   -0.1483 C.ar      1 RES1    0.0000
     30 C30        8.4329    6.7526    1.0818 C.ar      1 RES1    0.0000
     31 C31        6.8306    8.0338   -1.1697 C.ar      1 RES1    0.0000
     32 C32        6.3585    7.2320   -2.2057 C.ar      1 RES1    0.0000
     33 C33        6.9081    7.3192   -3.4742 C.ar      1 RES1    0.0000
     34 C34        7.9200    8.2264   -3.7250 C.ar      1 RES1    0.0000
     35 C35        8.4019    9.0251   -2.6963 C.ar      1 RES1    0.0000
     36 C36        7.8667    8.9197   -1.4241 C.ar      1 RES1    0.0000
     37 C37        4.6186    6.9837    4.1003 C.ar      1 RES1    0.0000
     38 C38        5.0579    5.8312    4.7629 C.ar      1 RES1    0.0000
     39 C39        4.6186    5.5363    6.0406 C.ar      1 RES1    0.0000
     40 C40        3.7170    6.3816    6.6757 C.ar      1 RES1    0.0000
     41 C41        3.2617    7.5047    6.0241 C.ar      1 RES1    0.0000
     42 C42        3.7052    7.8067    4.7482 C.ar      1 RES1    0.0000
     43 H1         5.5496   10.0134   -1.4204 H         1 RES1    0.0000
     44 H2         4.0487   11.3543   -2.6414 H         1 RES1    0.0000
     45 H3         1.7272   11.1962   -2.3668 H         1 RES1    0.0000
     46 H4         0.8334    9.6272   -0.9079 H         1 RES1    0.0000
     47 H5         0.1456    7.8250   -0.1428 H         1 RES1    0.0000
     48 H6        -0.7181    6.1536    1.2228 H         1 RES1    0.0000
     49 H7         0.6904    5.0629    2.7567 H         1 RES1    0.0000
     50 H8         2.8697    5.7106    3.0093 H         1 RES1    0.0000
     51 H9         6.2335    8.5528    5.0137 H         1 RES1    0.0000
     52 H10        7.8066    8.7727    6.7050 H         1 RES1    0.0000
     53 H11        9.9922    7.9436    6.4634 H         1 RES1    0.0000
     54 H12       10.6551    6.9685    4.4792 H         1 RES1    0.0000
     55 H13       11.1196    5.8941    2.7878 H         1 RES1    0.0000
     56 H14       11.8226    5.1339    0.7011 H         1 RES1    0.0000
     57 H15       10.3548    5.2363   -1.1184 H         1 RES1    0.0000
     58 H16        8.2092    6.1698   -0.9537 H         1 RES1    0.0000
     59 H17        5.6444    6.6107   -2.0391 H         1 RES1    0.0000
     60 H18        6.5849    6.7516   -4.1771 H         1 RES1    0.0000
     61 H19        8.2901    8.3034   -4.6073 H         1 RES1    0.0000
     62 H20        9.1093    9.6525   -2.8684 H         1 RES1    0.0000
     63 H21        8.2144    9.4650   -0.7139 H         1 RES1    0.0000
     64 H22        5.6739    5.2373    4.3254 H         1 RES1    0.0000
     65 H23        4.9356    4.7477    6.4872 H         1 RES1    0.0000
     66 H24        3.4131    6.1819    7.5635 H         1 RES1    0.0000
     67 H25        2.6312    8.0855    6.4579 H         1 RES1    0.0000
     68 H26        3.3773    8.5943    4.3053 H         1 RES1    0.0000
@<TRIPOS>BOND
     1    1    2 ar
     2    2    3 ar
     3    3    4 ar
     4    4    5 ar
     5    5    6 ar
     6    6    1 ar
     7    7    2 ar
     8    8    7 ar
     9    9    8 ar
    10   10    9 ar
    11   11   10 ar
    12   12    7 ar
    13   13   12 ar
    14   14   13 ar
    15   15   14 ar
    16   16   15 ar
    17   17   16 ar
    18   18    3 ar
    19   19    5 ar
    20   20   19 ar
    21   21   20 ar
    22   22   21 ar
    23   23   22 ar
    24   24   19 ar
    25   25   24 ar
    26   26   25 ar
    27   27   26 ar
    28   28   27 ar
    29   29   28 ar
    30   30    6 ar
    31   31    1 1
    32   32   31 ar
    33   33   32 ar
    34   34   33 ar
    35   35   34 ar
    36   36   31 ar
    37   37    4 1
    38   38   37 ar
    39   39   38 ar
    40   40   39 ar
    41   41   40 ar
    42   42   37 ar
    43   43    8 1
    44   44    9 1
    45   45   10 1
    46   46   11 1
    47   47   14 1
    48   48   15 1
    49   49   16 1
    50   50   17 1
    51   51   20 1
    52   52   21 1
    53   53   22 1
    54   54   23 1
    55   55   26 1
    56   56   27 1
    57   57   28 1
    58   58   29 1
    59   59   32 1
    60   60   33 1
    61   61   34 1
    62   62   35 1
    63   63   36 1
    64   64   38 1
    65   65   39 1
    66   66   40 1
    67   67   41 1
    68   68   42 1
    69   11   12 ar
    70   13   18 ar
    71   17   18 ar
    72   23   24 ar
    73   25   30 ar
    74   29   30 ar
    75   35   36 ar
    76   41   42 ar
@<TRIPOS>SUBSTRUCTURE
     1 RES1 1

@<TRIPOS>CRYSIN
  14.8510   10.1360   18.4250  90.0000  96.5500  90.0000 231 1

