# MOL2 file generated by ConQuest
# Please check atom types

@<TRIPOS>MOLECULE
FADFOF
    66    72     2
SMALL
NO_CHARGES
****
Generated from CSD

@<TRIPOS>ATOM
      1 C1        14.8266    4.2967    1.8052 C.ar      1 RES1    0.0000
      2 C2        13.4363    4.2406    1.7501 C.ar      1 RES1    0.0000
      3 C3        12.7805    3.1330    2.2902 C.ar      1 RES1    0.0000
      4 C4        13.4582    2.0926    2.8458 C.ar      1 RES1    0.0000
      5 C5        15.5834    1.0352    3.4887 C.ar      1 RES1    0.0000
      6 C6        16.9232    1.0626    3.5963 C.ar      1 RES1    0.0000
      7 C7        19.0675    2.2420    3.3399 C.ar      1 RES1    0.0000
      8 C8        21.2584    3.4123    3.1368 C.ar      1 RES1    0.0000
      9 C9        21.9268    4.4821    2.6502 C.ar      1 RES1    0.0000
     10 C10       21.2731    5.5316    1.9696 C.ar      1 RES1    0.0000
     11 C11       19.9262    5.5029    1.7920 C.ar      1 RES1    0.0000
     12 C12       17.7761    4.3411    2.0723 C.ar      1 RES1    0.0000
     13 C13       15.5514    3.2452    2.4028 C.ar      1 RES1    0.0000
     14 C14       14.8628    2.1382    2.9100 C.ar      1 RES1    0.0000
     15 C15       17.6778    2.1924    3.1409 C.ar      1 RES1    0.0000
     16 C16       19.8351    3.3255    2.9256 C.ar      1 RES1    0.0000
     17 C17       19.1761    4.3959    2.2564 C.ar      1 RES1    0.0000
     18 C18       17.0218    3.2883    2.5203 C.ar      1 RES1    0.0000
     19 C19       21.9680    2.3301    3.8791 C.3       1 RES1    0.0000
     20 C20        8.2530    1.3165    0.6354 C.ar      2 RES2    0.0000
     21 C21        9.6458    1.2897    0.6231 C.ar      2 RES2    0.0000
     22 C22       10.3146    0.2219    1.1615 C.ar      2 RES2    0.0000
     23 C23        9.6301   -0.8315    1.6893 C.ar      2 RES2    0.0000
     24 C24        7.4877   -1.9450    2.2811 C.ar      2 RES2    0.0000
     25 C25        6.1462   -1.9340    2.3460 C.ar      2 RES2    0.0000
     26 C26        3.9930   -0.8093    1.9359 C.ar      2 RES2    0.0000
     27 C27        1.7840    0.2232    1.4583 C.ar      2 RES2    0.0000
     28 C28        1.1170    1.2395    0.8746 C.ar      2 RES2    0.0000
     29 C29        1.7703    2.3236    0.2737 C.ar      2 RES2    0.0000
     30 C30        3.1387    2.3837    0.2672 C.ar      2 RES2    0.0000
     31 C31        5.3028    1.3315    0.7752 C.ar      2 RES2    0.0000
     32 C32        7.5241    0.2624    1.1837 C.ar      2 RES2    0.0000
     33 C33        8.2126   -0.8335    1.7098 C.ar      2 RES2    0.0000
     34 C34        5.3840   -0.8191    1.8421 C.ar      2 RES2    0.0000
     35 C35        3.2213    0.2265    1.4254 C.ar      2 RES2    0.0000
     36 C36        3.8841    1.3322    0.8294 C.ar      2 RES2    0.0000
     37 C37        6.0563    0.2807    1.2536 C.ar      2 RES2    0.0000
     38 C38        1.0453   -0.8942    2.1389 C.3       2 RES2    0.0000
     39 H1        15.2567    5.2131    1.4640 H         1 RES1    0.0000
     40 H2        12.9341    5.0669    1.2988 H         1 RES1    0.0000
     41 H3        11.8522    2.9881    2.2038 H         1 RES1    0.0000
     42 H4        13.0973    1.0959    3.2848 H         1 RES1    0.0000
     43 H5        15.0372    0.1697    3.8224 H         1 RES1    0.0000
     44 H6        17.4616    0.2343    3.9884 H         1 RES1    0.0000
     45 H7        19.5464    1.4033    3.7657 H         1 RES1    0.0000
     46 H8        22.8995    4.5350    2.8434 H         1 RES1    0.0000
     47 H9        21.7638    6.3710    1.6917 H         1 RES1    0.0000
     48 H10       19.4380    6.2411    1.3539 H         1 RES1    0.0000
     49 H11       17.3892    5.1668    1.6514 H         1 RES1    0.0000
     50 H12       22.9174    2.4000    3.9178 H         1 RES1    0.0000
     51 H13       21.6421    2.3014    4.8064 H         1 RES1    0.0000
     52 H14       21.8569    1.4046    3.6054 H         1 RES1    0.0000
     53 H15        7.7887    2.1833    0.2071 H         2 RES2    0.0000
     54 H16       10.0987    2.1879    0.1915 H         2 RES2    0.0000
     55 H17       11.2387    0.1416    1.2273 H         2 RES2    0.0000
     56 H18       10.0477   -1.7075    2.0674 H         2 RES2    0.0000
     57 H19        8.0039   -2.6826    2.6190 H         2 RES2    0.0000
     58 H20        5.6559   -2.6813    2.7423 H         2 RES2    0.0000
     59 H21        3.5502   -1.6154    2.3576 H         2 RES2    0.0000
     60 H22        0.1414    1.2382    0.8870 H         2 RES2    0.0000
     61 H23        1.2484    3.1166   -0.1702 H         2 RES2    0.0000
     62 H24        3.6170    3.1682   -0.0690 H         2 RES2    0.0000
     63 H25        5.6672    2.1578    0.3732 H         2 RES2    0.0000
     64 H26        0.1355   -0.7643    1.9474 H         2 RES2    0.0000
     65 H27        1.2986   -1.7616    1.7221 H         2 RES2    0.0000
     66 H28        1.2712   -1.0802    3.0998 H         2 RES2    0.0000
@<TRIPOS>BOND
     1    1    2 ar
     2    2    3 ar
     3    3    4 ar
     4    4   14 ar
     5    5    6 ar
     6    6   15 ar
     7    7   15 ar
     8    8    9 ar
     9    9   10 ar
    10   10   11 ar
    11   11   17 ar
    12   12   17 ar
    13   13    1 ar
    14   14    5 ar
    15   15   18 ar
    16   16    7 ar
    17   17   16 ar
    18   18   12 ar
    19   19    8 1
    20   20   21 ar
    21   21   22 ar
    22   22   23 ar
    23   23   33 ar
    24   24   25 ar
    25   25   34 ar
    26   26   34 ar
    27   27   28 ar
    28   28   29 ar
    29   29   30 ar
    30   30   36 ar
    31   31   36 ar
    32   32   20 ar
    33   33   24 ar
    34   34   37 ar
    35   35   26 ar
    36   36   35 ar
    37   37   31 ar
    38   38   27 1
    39   39    1 1
    40   40    2 1
    41   41    3 1
    42   42    4 1
    43   43    5 1
    44   44    6 1
    45   45    7 1
    46   46    9 1
    47   47   10 1
    48   48   11 1
    49   49   12 1
    50   50   19 1
    51   51   19 1
    52   52   19 1
    53   53   20 1
    54   54   21 1
    55   55   22 1
    56   56   23 1
    57   57   24 1
    58   58   25 1
    59   59   26 1
    60   60   28 1
    61   61   29 1
    62   62   30 1
    63   63   31 1
    64   64   38 1
    65   65   38 1
    66   66   38 1
    67    8   16 ar
    68   13   14 ar
    69   13   18 ar
    70   27   35 ar
    71   32   33 ar
    72   32   37 ar
@<TRIPOS>SUBSTRUCTURE
     1 RES1 1
     2 RES2 20

@<TRIPOS>CRYSIN
  48.5160    6.5270    8.2260  90.0000  92.1500  90.0000  13 2

