# MOL2 file generated by ConQuest
# Please check atom types

@<TRIPOS>MOLECULE
FALHIK
    50    55     1
SMALL
NO_CHARGES
****
Generated from CSD

@<TRIPOS>ATOM
      1 C1         2.5405    4.7486    3.4447 C.3       1 RES1    0.0000
      2 C2         4.0801    4.5126    3.3495 C.3       1 RES1    0.0000
      3 C3         4.5307    3.6976    4.5303 C.3       1 RES1    0.0000
      4 C4         3.3369    3.3463    5.4667 C.3       1 RES1    0.0000
      5 C5         2.3446    2.6079    4.6020 C.2       1 RES1    0.0000
      6 C6         1.9209    3.3690    3.5264 C.2       1 RES1    0.0000
      7 C7         1.7271    6.6913    4.9474 C.ar      1 RES1    0.0000
      8 C8         2.3006    5.4530    4.7648 C.ar      1 RES1    0.0000
      9 C9         2.7145    4.6689    5.8748 C.ar      1 RES1    0.0000
     10 C10        2.5658    5.1138    7.1524 C.ar      1 RES1    0.0000
     11 C11        1.9458    6.3790    7.3859 C.ar      1 RES1    0.0000
     12 C12        1.5349    7.1812    6.2755 C.ar      1 RES1    0.0000
     13 C13        0.9768    8.4603    6.5315 C.ar      1 RES1    0.0000
     14 C14        0.7799    8.8882    7.7956 C.ar      1 RES1    0.0000
     15 C15        1.1542    8.1052    8.9083 C.ar      1 RES1    0.0000
     16 C16        1.7160    6.8803    8.6980 C.ar      1 RES1    0.0000
     17 C17        1.3410    7.5313    3.7842 C.ar      1 RES1    0.0000
     18 C18        2.2952    8.0674    2.9397 C.ar      1 RES1    0.0000
     19 C19        1.9478    8.8716    1.8689 C.ar      1 RES1    0.0000
     20 C20        0.6333    9.1357    1.6005 C.ar      1 RES1    0.0000
     21 C21       -0.3428    8.6053    2.4162 C.ar      1 RES1    0.0000
     22 C22       -0.0100    7.8021    3.5032 C.ar      1 RES1    0.0000
     23 C23        3.0219    4.3009    8.3274 C.ar      1 RES1    0.0000
     24 C24        4.2773    4.5232    8.9022 C.ar      1 RES1    0.0000
     25 C25        4.6830    3.7761    9.9903 C.ar      1 RES1    0.0000
     26 C26        3.8776    2.8085   10.5319 C.ar      1 RES1    0.0000
     27 C27        2.6342    2.5812    9.9699 C.ar      1 RES1    0.0000
     28 C28        2.2195    3.3223    8.8679 C.ar      1 RES1    0.0000
     29 H1         2.1284    5.3399    2.5731 H         1 RES1    0.0000
     30 H2         4.6098    5.4735    3.3051 H         1 RES1    0.0000
     31 H3         4.3271    3.9902    2.3939 H         1 RES1    0.0000
     32 H4         5.0236    2.7625    4.1759 H         1 RES1    0.0000
     33 H5         5.3067    4.2459    5.0869 H         1 RES1    0.0000
     34 H6         3.6813    2.7437    6.3359 H         1 RES1    0.0000
     35 H7         2.0201    1.6636    4.7903 H         1 RES1    0.0000
     36 H8         1.2582    3.0240    2.8312 H         1 RES1    0.0000
     37 H9         0.6617    9.0379    5.7459 H         1 RES1    0.0000
     38 H10        0.3747    9.8052    7.9561 H         1 RES1    0.0000
     39 H11        1.0202    8.4717    9.8397 H         1 RES1    0.0000
     40 H12        1.9645    6.3022    9.4994 H         1 RES1    0.0000
     41 H13        3.2591    7.8419    3.0647 H         1 RES1    0.0000
     42 H14        2.6818    9.3084    1.3012 H         1 RES1    0.0000
     43 H15        0.3691    9.7121    0.8142 H         1 RES1    0.0000
     44 H16       -1.3353    8.7952    2.1917 H         1 RES1    0.0000
     45 H17       -0.7451    7.4646    4.1189 H         1 RES1    0.0000
     46 H18        4.8951    5.2347    8.5076 H         1 RES1    0.0000
     47 H19        5.5837    3.9444   10.4335 H         1 RES1    0.0000
     48 H20        4.1864    2.2374   11.2814 H         1 RES1    0.0000
     49 H21        1.9893    1.9057   10.3986 H         1 RES1    0.0000
     50 H22        1.3191    3.1179    8.4262 H         1 RES1    0.0000
@<TRIPOS>BOND
     1    1    2 1
     2    2    3 1
     3    3    4 1
     4    4    5 1
     5    5    6 2
     6    6    1 1
     7    7    8 ar
     8    8    1 1
     9    9    4 1
    10   10    9 ar
    11   11   10 ar
    12   12    7 ar
    13   13   12 ar
    14   14   13 ar
    15   15   14 ar
    16   16   11 ar
    17   17    7 1
    18   18   17 ar
    19   19   18 ar
    20   20   19 ar
    21   21   20 ar
    22   22   17 ar
    23   23   10 1
    24   24   23 ar
    25   25   24 ar
    26   26   25 ar
    27   27   26 ar
    28   28   23 ar
    29   29    1 1
    30   30    2 1
    31   31    2 1
    32   32    3 1
    33   33    3 1
    34   34    4 1
    35   35    5 1
    36   36    6 1
    37   37   13 1
    38   38   14 1
    39   39   15 1
    40   40   16 1
    41   41   18 1
    42   42   19 1
    43   43   20 1
    44   44   21 1
    45   45   22 1
    46   46   24 1
    47   47   25 1
    48   48   26 1
    49   49   27 1
    50   50   28 1
    51    8    9 ar
    52   11   12 ar
    53   15   16 ar
    54   21   22 ar
    55   27   28 ar
@<TRIPOS>SUBSTRUCTURE
     1 RES1 1

@<TRIPOS>CRYSIN
  10.7910   17.1042   21.0340  90.0000  90.0000  90.0000  61 1

