# MOL2 file generated by ConQuest
# Please check atom types

@<TRIPOS>MOLECULE
FAQYEB
    83    89     1
SMALL
NO_CHARGES
****
Generated from CSD

@<TRIPOS>ATOM
      1 C1         4.2182    3.4579    7.6970 C.ar      1 RES1    0.0000
      2 C2         4.0303    2.3354    6.9061 C.ar      1 RES1    0.0000
      3 H1         4.6625    2.1304    6.2551 H         1 RES1    0.0000
      4 C3         2.9154    1.4980    7.0585 C.ar      1 RES1    0.0000
      5 C4         2.6299    0.2904    6.3785 C.ar      1 RES1    0.0000
      6 H2         3.2071   -0.0134    5.7148 H         1 RES1    0.0000
      7 C5         1.5130   -0.4346    6.6858 C.ar      1 RES1    0.0000
      8 H3         1.3534   -1.2346    6.2400 H         1 RES1    0.0000
      9 C6         0.6014   -0.0011    7.6580 C.ar      1 RES1    0.0000
     10 H4        -0.1566   -0.5050    7.8443 H         1 RES1    0.0000
     11 C7         0.8308    1.1617    8.3279 C.ar      1 RES1    0.0000
     12 C8         0.1408    1.9016    9.3895 C.ar      1 RES1    0.0000
     13 C9        -1.0472    1.6433   10.0268 C.ar      1 RES1    0.0000
     14 H5        -1.5496    0.8974    9.7913 H         1 RES1    0.0000
     15 C10       -1.4902    2.4898   11.0103 C.ar      1 RES1    0.0000
     16 H6        -2.2994    2.3257   11.4372 H         1 RES1    0.0000
     17 C11       -0.7297    3.5882   11.3654 C.ar      1 RES1    0.0000
     18 H7        -1.0336    4.1537   12.0379 H         1 RES1    0.0000
     19 C12        0.4722    3.8610   10.7446 C.ar      1 RES1    0.0000
     20 H8         0.9798    4.5943   11.0103 H         1 RES1    0.0000
     21 C13        0.9165    3.0389    9.7258 C.ar      1 RES1    0.0000
     22 C14        2.1304    3.0493    8.8543 C.ar      1 RES1    0.0000
     23 C15        3.2582    3.8522    8.6856 C.ar      1 RES1    0.0000
     24 C16        1.9968    1.8906    8.0332 C.ar      1 RES1    0.0000
     25 C17        3.5571    5.1255    9.4852 C.3       1 RES1    0.0000
     26 H9         4.2433    5.5925    8.9639 H         1 RES1    0.0000
     27 C18        2.3913    6.1064    9.5608 C.ar      1 RES1    0.0000
     28 C19        2.1625    6.9022   10.6715 C.ar      1 RES1    0.0000
     29 H10        2.7387    6.8456   11.3982 H         1 RES1    0.0000
     30 C20        1.0954    7.7789   10.7206 C.ar      1 RES1    0.0000
     31 H11        0.9595    8.2781   11.4939 H         1 RES1    0.0000
     32 C21        0.2181    7.9404    9.6553 C.ar      1 RES1    0.0000
     33 C22        0.4922    7.1796    8.5345 C.ar      1 RES1    0.0000
     34 H12       -0.0513    7.2722    7.7852 H         1 RES1    0.0000
     35 C23        1.5454    6.2846    8.4891 C.ar      1 RES1    0.0000
     36 H13        1.6866    5.7889    7.7134 H         1 RES1    0.0000
     37 C24        4.2219    4.8360   10.8327 C.ar      1 RES1    0.0000
     38 C25        3.8985    3.7566   11.6122 C.ar      1 RES1    0.0000
     39 H14        3.2609    3.1522   11.3087 H         1 RES1    0.0000
     40 C26        4.5015    3.5455   12.8451 C.ar      1 RES1    0.0000
     41 H15        4.2398    2.8125   13.3539 H         1 RES1    0.0000
     42 C27        5.4724    4.3838   13.3388 C.ar      1 RES1    0.0000
     43 C28        5.7998    5.4563   12.5441 C.ar      1 RES1    0.0000
     44 H16        6.4486    6.0536   12.8401 H         1 RES1    0.0000
     45 C29        5.2002    5.6797   11.3201 C.ar      1 RES1    0.0000
     46 H17        5.4609    6.4142   10.8138 H         1 RES1    0.0000
     47 C30        5.4769    4.2221    7.4665 C.ar      1 RES1    0.0000
     48 C31        5.6347    4.9831    6.3243 C.ar      1 RES1    0.0000
     49 H18        4.9227    5.0696    5.7312 H         1 RES1    0.0000
     50 C32        6.8187    5.6130    6.0460 C.ar      1 RES1    0.0000
     51 H19        6.9028    6.1271    5.2753 H         1 RES1    0.0000
     52 C33        7.8615    5.4873    6.8923 C.ar      1 RES1    0.0000
     53 H20        8.6657    5.9079    6.6883 H         1 RES1    0.0000
     54 C34        7.7605    4.7558    8.0408 C.ar      1 RES1    0.0000
     55 H21        8.4852    4.6863    8.6201 H         1 RES1    0.0000
     56 C35        6.5493    4.1104    8.3355 C.ar      1 RES1    0.0000
     57 H22        6.4665    3.6084    9.1137 H         1 RES1    0.0000
     58 C36       -1.0156    8.8354    9.7623 C.3       1 RES1    0.0000
     59 C37       -1.5190    9.2591    8.3796 C.3       1 RES1    0.0000
     60 H23       -0.7890    9.6175    7.8683 H         1 RES1    0.0000
     61 H24       -2.2006    9.9272    8.4778 H         1 RES1    0.0000
     62 H25       -1.8830    8.4953    7.9237 H         1 RES1    0.0000
     63 C38       -2.1176    8.0338   10.4663 C.3       1 RES1    0.0000
     64 H26       -2.3541    7.2739    9.9298 H         1 RES1    0.0000
     65 H27       -2.8895    8.5914   10.5897 H         1 RES1    0.0000
     66 H28       -1.7988    7.7345   11.3213 H         1 RES1    0.0000
     67 C39       -0.7095   10.0976   10.5733 C.3       1 RES1    0.0000
     68 H29        0.0161   10.5730   10.1628 H         1 RES1    0.0000
     69 H30       -0.4643    9.8506   11.4687 H         1 RES1    0.0000
     70 H31       -1.4873   10.6581   10.5972 H         1 RES1    0.0000
     71 C40        6.1634    4.1122   14.6699 C.3       1 RES1    0.0000
     72 C41        5.3326    3.2652   15.5854 C.3       1 RES1    0.0000
     73 H32        5.2822    2.3721   15.2366 H         1 RES1    0.0000
     74 H33        4.4486    3.6346   15.6484 H         1 RES1    0.0000
     75 H34        5.7348    3.2460   16.4569 H         1 RES1    0.0000
     76 C42        7.4347    3.4290   14.4571 C.3       1 RES1    0.0000
     77 H35        7.2850    2.6268   13.9521 H         1 RES1    0.0000
     78 H36        7.8236    3.2051   15.3058 H         1 RES1    0.0000
     79 H37        8.0307    4.0054   13.9735 H         1 RES1    0.0000
     80 C43        6.3881    5.3764   15.4356 C.3       1 RES1    0.0000
     81 H38        7.1410    5.8433   15.0678 H         1 RES1    0.0000
     82 H39        6.5594    5.1674   16.3561 H         1 RES1    0.0000
     83 H40        5.6065    5.9316   15.3738 H         1 RES1    0.0000
@<TRIPOS>BOND
     1    1    2 ar
     2    2    3 1
     3    4    2 ar
     4    5    4 ar
     5    6    5 1
     6    7    5 ar
     7    8    7 1
     8    9    7 ar
     9   10    9 1
    10   11    9 ar
    11   12   11 1
    12   13   12 ar
    13   14   13 1
    14   15   13 ar
    15   16   15 1
    16   17   15 ar
    17   18   17 1
    18   19   17 ar
    19   20   19 1
    20   21   12 ar
    21   22   21 1
    22   23    1 ar
    23   24    4 ar
    24   25   23 1
    25   26   25 1
    26   27   25 1
    27   28   27 ar
    28   29   28 1
    29   30   28 ar
    30   31   30 1
    31   32   30 ar
    32   33   32 ar
    33   34   33 1
    34   35   27 ar
    35   36   35 1
    36   37   25 1
    37   38   37 ar
    38   39   38 1
    39   40   38 ar
    40   41   40 1
    41   42   40 ar
    42   43   42 ar
    43   44   43 1
    44   45   37 ar
    45   46   45 1
    46   47    1 1
    47   48   47 ar
    48   49   48 1
    49   50   48 ar
    50   51   50 1
    51   52   50 ar
    52   53   52 1
    53   54   52 ar
    54   55   54 1
    55   56   47 ar
    56   57   56 1
    57   58   32 1
    58   59   58 1
    59   60   59 1
    60   61   59 1
    61   62   59 1
    62   63   58 1
    63   64   63 1
    64   65   63 1
    65   66   63 1
    66   67   58 1
    67   68   67 1
    68   69   67 1
    69   70   67 1
    70   71   42 1
    71   72   71 1
    72   73   72 1
    73   74   72 1
    74   75   72 1
    75   76   71 1
    76   77   76 1
    77   78   76 1
    78   79   76 1
    79   80   71 1
    80   81   80 1
    81   82   80 1
    82   83   80 1
    83   11   24 ar
    84   19   21 ar
    85   22   23 ar
    86   22   24 ar
    87   33   35 ar
    88   43   45 ar
    89   54   56 ar
@<TRIPOS>SUBSTRUCTURE
     1 RES1 1

@<TRIPOS>CRYSIN
  10.4010   12.4770   12.6860  83.0800  89.4600  88.9300   2 1

