# MOL2 file generated by ConQuest
# Please check atom types

@<TRIPOS>MOLECULE
FAQYOL
    59    65     1
SMALL
NO_CHARGES
****
Generated from CSD

@<TRIPOS>ATOM
      1 C1         4.6608    1.0960   15.6835 C.ar      1 RES1    0.0000
      2 C2         4.1271    1.9902   16.5694 C.ar      1 RES1    0.0000
      3 C3         3.1417    3.0933   16.3943 C.ar      1 RES1    0.0000
      4 C4         2.3995    3.5175   15.3001 C.ar      1 RES1    0.0000
      5 H1         2.4967    3.0966   14.4766 H         1 RES1    0.0000
      6 C5         1.5173    4.5654   15.4435 C.ar      1 RES1    0.0000
      7 H2         1.0162    4.8417   14.7104 H         1 RES1    0.0000
      8 C6         1.3629    5.2139   16.6527 C.ar      1 RES1    0.0000
      9 H3         0.7799    5.9364   16.7261 H         1 RES1    0.0000
     10 C7         2.0775    4.7827   17.7522 C.ar      1 RES1    0.0000
     11 H4         1.9712    5.2068   18.5733 H         1 RES1    0.0000
     12 C8         2.9454    3.7243   17.6296 C.ar      1 RES1    0.0000
     13 C9         3.7912    3.0992   18.7153 C.3       1 RES1    0.0000
     14 H5         4.4753    3.7386   19.0035 H         1 RES1    0.0000
     15 C10        4.4575    1.9468   17.9647 C.ar      1 RES1    0.0000
     16 C11        5.2834    0.9786   18.4777 C.ar      1 RES1    0.0000
     17 C12        5.7982   -0.0182   17.5922 C.ar      1 RES1    0.0000
     18 C13        6.6088   -1.0765   18.0532 C.ar      1 RES1    0.0000
     19 H6         6.7905   -1.1478   18.9623 H         1 RES1    0.0000
     20 C14        7.1333   -1.9961   17.1951 C.ar      1 RES1    0.0000
     21 H7         7.6575   -2.6926   17.5188 H         1 RES1    0.0000
     22 C15        6.8787   -1.8878   15.8278 C.ar      1 RES1    0.0000
     23 H8         7.2468   -2.5058   15.2391 H         1 RES1    0.0000
     24 C16        6.0958   -0.8884   15.3512 C.ar      1 RES1    0.0000
     25 H9         5.9435   -0.8372   14.4350 H         1 RES1    0.0000
     26 C17        5.5041    0.0785   16.1960 C.ar      1 RES1    0.0000
     27 C18        4.4127    1.2237   14.2068 C.ar      1 RES1    0.0000
     28 C19        3.6497    0.3003   13.5367 C.ar      1 RES1    0.0000
     29 H10        3.2764   -0.4131   14.0010 H         1 RES1    0.0000
     30 C20        3.4333    0.4235   12.1665 C.ar      1 RES1    0.0000
     31 H11        2.9221   -0.2153   11.7226 H         1 RES1    0.0000
     32 C21        3.9564    1.4630   11.4746 C.ar      1 RES1    0.0000
     33 H12        3.7941    1.5467   10.5626 H         1 RES1    0.0000
     34 C22        4.7300    2.3943   12.1273 C.ar      1 RES1    0.0000
     35 H13        5.1092    3.1011   11.6559 H         1 RES1    0.0000
     36 C23        4.9405    2.2730   13.4856 C.ar      1 RES1    0.0000
     37 H14        5.4493    2.9150   13.9248 H         1 RES1    0.0000
     38 C24        2.9885    2.6297   19.9344 C.ar      1 RES1    0.0000
     39 C25        3.2722    3.1271   21.1891 C.ar      1 RES1    0.0000
     40 H15        3.9450    3.7607   21.2923 H         1 RES1    0.0000
     41 C26        2.5587    2.6906   22.3032 C.ar      1 RES1    0.0000
     42 H16        2.7488    3.0246   23.1504 H         1 RES1    0.0000
     43 C27        1.5662    1.7529   22.1233 C.ar      1 RES1    0.0000
     44 H17        1.0928    1.4384   22.8583 H         1 RES1    0.0000
     45 C28        1.2729    1.2821   20.8796 C.ar      1 RES1    0.0000
     46 H18        0.5918    0.6582   20.7693 H         1 RES1    0.0000
     47 C29        1.9799    1.7250   19.7863 C.ar      1 RES1    0.0000
     48 H19        1.7678    1.4053   18.9391 H         1 RES1    0.0000
     49 C30        5.6539    0.9734   19.9273 C.ar      1 RES1    0.0000
     50 C31        6.6052    1.8528   20.4039 C.ar      1 RES1    0.0000
     51 H20        7.0291    2.4390   19.8209 H         1 RES1    0.0000
     52 C32        6.9288    1.8618   21.7731 C.ar      1 RES1    0.0000
     53 H21        7.5704    2.4513   22.1006 H         1 RES1    0.0000
     54 C33        6.2959    1.0006   22.6099 C.ar      1 RES1    0.0000
     55 H22        6.4967    1.0123   23.5181 H         1 RES1    0.0000
     56 C34        5.3686    0.1161   22.1314 C.ar      1 RES1    0.0000
     57 H23        4.9597   -0.4877   22.7093 H         1 RES1    0.0000
     58 C35        5.0447    0.1187   20.8128 C.ar      1 RES1    0.0000
     59 H24        4.3972   -0.4708   20.5028 H         1 RES1    0.0000
@<TRIPOS>BOND
     1    1    2 ar
     2    2    3 1
     3    3    4 ar
     4    4    5 1
     5    6    4 ar
     6    7    6 1
     7    8    6 ar
     8    9    8 1
     9   10    8 ar
    10   11   10 1
    11   12    3 ar
    12   13   12 1
    13   14   13 1
    14   15    2 ar
    15   16   15 ar
    16   17   16 ar
    17   18   17 ar
    18   19   18 1
    19   20   18 ar
    20   21   20 1
    21   22   20 ar
    22   23   22 1
    23   24   22 ar
    24   25   24 1
    25   26    1 ar
    26   27    1 1
    27   28   27 ar
    28   29   28 1
    29   30   28 ar
    30   31   30 1
    31   32   30 ar
    32   33   32 1
    33   34   32 ar
    34   35   34 1
    35   36   27 ar
    36   37   36 1
    37   38   13 1
    38   39   38 ar
    39   40   39 1
    40   41   39 ar
    41   42   41 1
    42   43   41 ar
    43   44   43 1
    44   45   43 ar
    45   46   45 1
    46   47   38 ar
    47   48   47 1
    48   49   16 1
    49   50   49 ar
    50   51   50 1
    51   52   50 ar
    52   53   52 1
    53   54   52 ar
    54   55   54 1
    55   56   54 ar
    56   57   56 1
    57   58   49 ar
    58   59   58 1
    59   10   12 ar
    60   13   15 1
    61   17   26 ar
    62   24   26 ar
    63   34   36 ar
    64   45   47 ar
    65   56   58 ar
@<TRIPOS>SUBSTRUCTURE
     1 RES1 1

