# MOL2 file generated by ConQuest
# Please check atom types

@<TRIPOS>MOLECULE
FAQYIF
   107   113     1
SMALL
NO_CHARGES
****
Generated from CSD

@<TRIPOS>ATOM
      1 C1         0.4247   -4.6549    3.7275 C.ar      1 RES1    0.0000
      2 C2         1.3218   -4.3804    4.7435 C.ar      1 RES1    0.0000
      3 C3         1.9529   -5.2461    5.7391 C.ar      1 RES1    0.0000
      4 C4         1.8028   -6.5799    6.0555 C.ar      1 RES1    0.0000
      5 H1         1.1913   -7.1038    5.5921 H         1 RES1    0.0000
      6 C5         2.5611   -7.1317    7.0623 C.ar      1 RES1    0.0000
      7 H2         2.4546   -8.0312    7.2744 H         1 RES1    0.0000
      8 C6         3.4744   -6.3744    7.7620 C.ar      1 RES1    0.0000
      9 H3         3.9889   -6.7703    8.4282 H         1 RES1    0.0000
     10 C7         3.6317   -5.0265    7.4773 C.ar      1 RES1    0.0000
     11 H4         4.2451   -4.5111    7.9499 H         1 RES1    0.0000
     12 C8         2.8615   -4.4644    6.4817 C.ar      1 RES1    0.0000
     13 C9         2.8528   -3.0220    6.0071 C.3       1 RES1    0.0000
     14 H5         3.7285   -2.8047    5.6219 H         1 RES1    0.0000
     15 C10        1.8189   -3.0398    4.9017 C.ar      1 RES1    0.0000
     16 C11        1.4439   -2.0038    4.1145 C.ar      1 RES1    0.0000
     17 C12        0.5163   -2.2828    3.0761 C.ar      1 RES1    0.0000
     18 C13        0.1010   -1.2688    2.1661 C.ar      1 RES1    0.0000
     19 H6         0.4295   -0.4041    2.2741 H         1 RES1    0.0000
     20 C14       -0.7672   -1.5276    1.1408 C.ar      1 RES1    0.0000
     21 H7        -1.0041   -0.8363    0.5657 H         1 RES1    0.0000
     22 C15       -1.3180   -2.8233    0.9249 C.ar      1 RES1    0.0000
     23 C16       -0.9352   -3.7954    1.7828 C.ar      1 RES1    0.0000
     24 H8        -1.2946   -4.6453    1.6674 H         1 RES1    0.0000
     25 C17       -0.0115   -3.5954    2.8547 C.ar      1 RES1    0.0000
     26 C18       -0.0853   -6.0230    3.4707 C.ar      1 RES1    0.0000
     27 C19        0.5635   -6.9115    2.6667 C.ar      1 RES1    0.0000
     28 H9         1.3686   -6.6685    2.2703 H         1 RES1    0.0000
     29 C20        0.0360   -8.1821    2.4341 C.ar      1 RES1    0.0000
     30 H10        0.5015   -8.7532    1.8647 H         1 RES1    0.0000
     31 C21       -1.1153   -8.6339    2.9868 C.ar      1 RES1    0.0000
     32 C22       -1.7778   -7.7292    3.7907 C.ar      1 RES1    0.0000
     33 H11       -2.5876   -7.9736    4.1759 H         1 RES1    0.0000
     34 C23       -1.2734   -6.4700    4.0382 C.ar      1 RES1    0.0000
     35 H12       -1.7434   -5.8997    4.6058 H         1 RES1    0.0000
     36 C24       -1.6838  -10.0233    2.6742 C.3       1 RES1    0.0000
     37 C25       -2.8398  -10.4109    3.5786 C.3       1 RES1    0.0000
     38 H13       -3.5852   -9.8295    3.4111 H         1 RES1    0.0000
     39 H14       -2.5693  -10.3266    4.4960 H         1 RES1    0.0000
     40 H15       -3.0953  -11.3188    3.4018 H         1 RES1    0.0000
     41 C26       -0.6462  -11.0530    2.9347 C.3       1 RES1    0.0000
     42 H16        0.0402  -10.9922    2.2666 H         1 RES1    0.0000
     43 H17       -1.0459  -11.9237    2.9068 H         1 RES1    0.0000
     44 H18       -0.2615  -10.9061    3.8019 H         1 RES1    0.0000
     45 C27       -2.2040  -10.0510    1.2822 C.3       1 RES1    0.0000
     46 H19       -2.7559   -9.2787    1.1296 H         1 RES1    0.0000
     47 H20       -2.7280  -10.8470    1.1501 H         1 RES1    0.0000
     48 H21       -1.4684  -10.0456    0.6644 H         1 RES1    0.0000
     49 C28        2.5527   -2.0553    7.1293 C.ar      1 RES1    0.0000
     50 C29        1.3093   -2.0705    7.7657 C.ar      1 RES1    0.0000
     51 H22        0.6697   -2.6980    7.5126 H         1 RES1    0.0000
     52 C30        1.0219   -1.1587    8.7725 C.ar      1 RES1    0.0000
     53 H23        0.1799   -1.1803    9.1670 H         1 RES1    0.0000
     54 C31        1.9449   -0.2076    9.2172 C.ar      1 RES1    0.0000
     55 C32        3.1652   -0.2087    8.5845 C.ar      1 RES1    0.0000
     56 H24        3.8103    0.4094    8.8450 H         1 RES1    0.0000
     57 C33        3.4635   -1.1135    7.5610 C.ar      1 RES1    0.0000
     58 H25        4.3015   -1.0790    7.1590 H         1 RES1    0.0000
     59 C34        1.5665    0.8242   10.2947 C.3       1 RES1    0.0000
     60 C35        0.7837    0.1858   11.4076 C.3       1 RES1    0.0000
     61 H26       -0.0452   -0.1559   11.0614 H         1 RES1    0.0000
     62 H27        0.6002    0.8383   12.0868 H         1 RES1    0.0000
     63 H28        1.2933   -0.5361   11.7835 H         1 RES1    0.0000
     64 C36        2.7746    1.4756   10.9107 C.3       1 RES1    0.0000
     65 H29        3.4259    0.8036   11.1266 H         1 RES1    0.0000
     66 H30        2.5151    1.9368   11.7128 H         1 RES1    0.0000
     67 H31        3.1533    2.1010   10.2891 H         1 RES1    0.0000
     68 C37        0.7330    1.8979    9.6453 C.3       1 RES1    0.0000
     69 H32        0.0049    1.4920    9.1670 H         1 RES1    0.0000
     70 H33        1.2772    2.3992    9.0330 H         1 RES1    0.0000
     71 H34        0.3857    2.4855   10.3208 H         1 RES1    0.0000
     72 C38        2.0080   -0.6171    4.3360 C.ar      1 RES1    0.0000
     73 C39        1.3023    0.2966    5.0990 C.ar      1 RES1    0.0000
     74 H35        0.4491    0.0951    5.4098 H         1 RES1    0.0000
     75 C40        1.8838    1.5151    5.3930 C.ar      1 RES1    0.0000
     76 H36        1.4106    2.1139    5.9234 H         1 RES1    0.0000
     77 C41        3.1266    1.8878    4.9389 C.ar      1 RES1    0.0000
     78 C42        3.7977    0.9674    4.1648 C.ar      1 RES1    0.0000
     79 H37        4.6354    1.1828    3.8242 H         1 RES1    0.0000
     80 C43        3.2463   -0.2919    3.8763 C.ar      1 RES1    0.0000
     81 H38        3.7297   -0.9036    3.3702 H         1 RES1    0.0000
     82 C44        3.7715    3.2035    5.3502 C.3       1 RES1    0.0000
     83 C45        4.3876    3.0201    6.7385 C.3       1 RES1    0.0000
     84 H39        3.6907    2.8547    7.3786 H         1 RES1    0.0000
     85 H40        4.8654    3.8141    6.9841 H         1 RES1    0.0000
     86 H41        4.9916    2.2726    6.7236 H         1 RES1    0.0000
     87 C46        4.8709    3.6509    4.4011 C.3       1 RES1    0.0000
     88 H42        4.4951    3.8238    3.5339 H         1 RES1    0.0000
     89 H43        5.5340    2.9599    4.3304 H         1 RES1    0.0000
     90 H44        5.2788    4.4528    4.7380 H         1 RES1    0.0000
     91 C47        2.7578    4.3388    5.4042 C.3       1 RES1    0.0000
     92 H45        2.3218    4.4171    4.5519 H         1 RES1    0.0000
     93 H46        3.2081    5.1605    5.6107 H         1 RES1    0.0000
     94 H47        2.1042    4.1519    6.0816 H         1 RES1    0.0000
     95 C48       -2.2425   -3.0981   -0.2587 C.3       1 RES1    0.0000
     96 C49       -3.3114   -2.0205   -0.3424 C.3       1 RES1    0.0000
     97 H48       -3.7620   -1.9522    0.5025 H         1 RES1    0.0000
     98 H49       -3.9456   -2.2499   -1.0254 H         1 RES1    0.0000
     99 H50       -2.9013   -1.1788   -0.5546 H         1 RES1    0.0000
    100 C50       -1.4196   -3.0170   -1.5316 C.3       1 RES1    0.0000
    101 H51       -0.7666   -3.7223   -1.5371 H         1 RES1    0.0000
    102 H52       -0.9751   -2.1679   -1.5725 H         1 RES1    0.0000
    103 H53       -1.9977   -3.1131   -2.2927 H         1 RES1    0.0000
    104 C51       -2.9309   -4.4438   -0.1600 C.3       1 RES1    0.0000
    105 H54       -3.4222   -4.4938    0.6625 H         1 RES1    0.0000
    106 H55       -2.2727   -5.1440   -0.1824 H         1 RES1    0.0000
    107 H56       -3.5347   -4.5507   -0.9007 H         1 RES1    0.0000
@<TRIPOS>BOND
     1    1    2 ar
     2    2    3 1
     3    3    4 ar
     4    4    5 1
     5    6    4 ar
     6    7    6 1
     7    8    6 ar
     8    9    8 1
     9   10    8 ar
    10   11   10 1
    11   12    3 ar
    12   13   12 1
    13   14   13 1
    14   15    2 ar
    15   16   15 ar
    16   17   16 ar
    17   18   17 ar
    18   19   18 1
    19   20   18 ar
    20   21   20 1
    21   22   20 ar
    22   23   22 ar
    23   24   23 1
    24   25    1 ar
    25   26    1 1
    26   27   26 ar
    27   28   27 1
    28   29   27 ar
    29   30   29 1
    30   31   29 ar
    31   32   31 ar
    32   33   32 1
    33   34   26 ar
    34   35   34 1
    35   36   31 1
    36   37   36 1
    37   38   37 1
    38   39   37 1
    39   40   37 1
    40   41   36 1
    41   42   41 1
    42   43   41 1
    43   44   41 1
    44   45   36 1
    45   46   45 1
    46   47   45 1
    47   48   45 1
    48   49   13 1
    49   50   49 ar
    50   51   50 1
    51   52   50 ar
    52   53   52 1
    53   54   52 ar
    54   55   54 ar
    55   56   55 1
    56   57   49 ar
    57   58   57 1
    58   59   54 1
    59   60   59 1
    60   61   60 1
    61   62   60 1
    62   63   60 1
    63   64   59 1
    64   65   64 1
    65   66   64 1
    66   67   64 1
    67   68   59 1
    68   69   68 1
    69   70   68 1
    70   71   68 1
    71   72   16 1
    72   73   72 ar
    73   74   73 1
    74   75   73 ar
    75   76   75 1
    76   77   75 ar
    77   78   77 ar
    78   79   78 1
    79   80   72 ar
    80   81   80 1
    81   82   77 1
    82   83   82 1
    83   84   83 1
    84   85   83 1
    85   86   83 1
    86   87   82 1
    87   88   87 1
    88   89   87 1
    89   90   87 1
    90   91   82 1
    91   92   91 1
    92   93   91 1
    93   94   91 1
    94   95   22 1
    95   96   95 1
    96   97   96 1
    97   98   96 1
    98   99   96 1
    99  100   95 1
   100  101  100 1
   101  102  100 1
   102  103  100 1
   103  104   95 1
   104  105  104 1
   105  106  104 1
   106  107  104 1
   107   10   12 ar
   108   13   15 1
   109   17   25 ar
   110   23   25 ar
   111   32   34 ar
   112   55   57 ar
   113   78   80 ar
@<TRIPOS>SUBSTRUCTURE
     1 RES1 1

@<TRIPOS>CRYSIN
   6.1720   18.1180   20.4700  65.7700  84.1800  85.7800   2 1

