# MOL2 file generated by ConQuest
# Please check atom types

@<TRIPOS>MOLECULE
FAWKIZ
    38    45     1
SMALL
NO_CHARGES
****
Generated from CSD

@<TRIPOS>ATOM
      1 C1        15.1802    8.8319    1.0396 C.ar      1 RES1    0.0000
      2 C2        14.3164    6.5349    0.6820 C.ar      1 RES1    0.0000
      3 C3        13.0216    7.1266    0.7850 C.ar      1 RES1    0.0000
      4 H1        12.2715    6.5851    0.6935 H         1 RES1    0.0000
      5 C4        16.1071    4.9192    0.9611 C.ar      1 RES1    0.0000
      6 C5        17.4379    8.2685    1.3632 C.ar      1 RES1    0.0000
      7 C6        17.0917    5.9061    0.9879 C.ar      1 RES1    0.0000
      8 C7        14.7294    5.1266    0.8271 C.ar      1 RES1    0.0000
      9 C8        14.5364    2.7969    1.5546 C.ar      1 RES1    0.0000
     10 H2        13.9864    2.0611    1.6902 H         1 RES1    0.0000
     11 C9        13.9251    9.3843    1.2173 C.ar      1 RES1    0.0000
     12 C10       15.1044   11.3122    2.0218 C.ar      1 RES1    0.0000
     13 H3        15.0846   12.1921    2.3239 H         1 RES1    0.0000
     14 C11       16.6913    3.7773    1.5098 C.ar      1 RES1    0.0000
     15 C12       18.0330    4.0240    1.9084 C.ar      1 RES1    0.0000
     16 C13       15.9267    2.6572    1.8112 C.ar      1 RES1    0.0000
     17 C14       16.7166    7.2030    0.8550 C.ar      1 RES1    0.0000
     18 C15       16.4335    9.3952    1.4382 C.ar      1 RES1    0.0000
     19 C16       15.3335    7.4956    0.7072 C.ar      1 RES1    0.0000
     20 C17       12.8413    8.4891    1.0185 C.ar      1 RES1    0.0000
     21 H4        11.9757    8.8253    1.0434 H         1 RES1    0.0000
     22 C18       18.6569    7.9214    1.9146 C.ar      1 RES1    0.0000
     23 H5        19.2250    8.5939    2.2148 H         1 RES1    0.0000
     24 C19       13.9539    3.9782    1.1066 C.ar      1 RES1    0.0000
     25 H6        13.0324    4.0153    0.9914 H         1 RES1    0.0000
     26 C20       18.2656    5.4956    1.6251 C.ar      1 RES1    0.0000
     27 C21       19.0753    6.5349    2.0371 C.ar      1 RES1    0.0000
     28 H7        19.9084    6.3450    2.4024 H         1 RES1    0.0000
     29 C22       16.3613   10.6659    1.9299 C.ar      1 RES1    0.0000
     30 H8        17.1332   11.1070    2.2040 H         1 RES1    0.0000
     31 C23       18.6533    3.0262    2.5425 C.ar      1 RES1    0.0000
     32 H9        19.5333    3.1266    2.8286 H         1 RES1    0.0000
     33 C24       13.9215   10.7183    1.6925 C.ar      1 RES1    0.0000
     34 H10       13.1208   11.1834    1.7779 H         1 RES1    0.0000
     35 C25       16.6499    1.6135    2.4506 C.ar      1 RES1    0.0000
     36 H11       16.2369    0.8057    2.6436 H         1 RES1    0.0000
     37 C26       17.9555    1.8144    2.7723 C.ar      1 RES1    0.0000
     38 H12       18.4207    1.1114    3.1651 H         1 RES1    0.0000
@<TRIPOS>BOND
     1    1   11 ar
     2    2    3 ar
     3    3    4 1
     4    5    7 ar
     5    6   17 ar
     6    7   17 ar
     7    8    2 ar
     8    9   10 1
     9   11   20 ar
    10   12   13 1
    11   14    5 ar
    12   15   14 ar
    13   16    9 ar
    14   17   19 ar
    15   18    1 ar
    16   19    1 ar
    17   20    3 ar
    18   21   20 1
    19   22    6 ar
    20   23   22 1
    21   24    8 ar
    22   25   24 1
    23   26    7 ar
    24   27   22 ar
    25   28   27 1
    26   29   12 ar
    27   30   29 1
    28   31   15 ar
    29   32   31 1
    30   33   11 ar
    31   34   33 1
    32   35   16 ar
    33   36   35 1
    34   37   31 ar
    35   38   37 1
    36    2   19 ar
    37    5    8 ar
    38    6   18 1
    39    9   24 ar
    40   12   33 ar
    41   14   16 ar
    42   15   26 1
    43   18   29 ar
    44   26   27 ar
    45   35   37 ar
@<TRIPOS>SUBSTRUCTURE
     1 RES1 1

@<TRIPOS>CRYSIN
  18.0330   21.8340    3.8291  90.0000  90.0000  90.0000  33 1

