# MOL2 file generated by ConQuest
# Please check atom types

@<TRIPOS>MOLECULE
FAYSAB
    40    44     1
SMALL
NO_CHARGES
****
Generated from CSD

@<TRIPOS>ATOM
      1 C1         3.7191   -2.4519    3.6393 C.ar      1 RES1    0.0000
      2 H1         4.4263   -3.0552    3.6032 H         1 RES1    0.0000
      3 C2         2.8373   -2.4681    4.6924 C.ar      1 RES1    0.0000
      4 H2         2.9416   -3.0948    5.3724 H         1 RES1    0.0000
      5 C3         1.7741   -1.5430    4.7521 C.ar      1 RES1    0.0000
      6 H3         1.1852   -1.5650    5.4718 H         1 RES1    0.0000
      7 C4         1.5981   -0.6071    3.7536 C.ar      1 RES1    0.0000
      8 H4         0.9015    0.0076    3.7916 H         1 RES1    0.0000
      9 C5         2.4987   -0.6084    2.6815 C.ar      1 RES1    0.0000
     10 C6         2.5532    0.2486    1.4283 C.3       1 RES1    0.0000
     11 H5         1.7338    0.7230    1.1723 H         1 RES1    0.0000
     12 C7         3.8425    1.0677    1.5047 C.ar      1 RES1    0.0000
     13 C8         4.0726    2.4069    1.5531 C.ar      1 RES1    0.0000
     14 H6         3.3637    3.0079    1.5848 H         1 RES1    0.0000
     15 C9         5.4192    2.8758    1.5544 C.ar      1 RES1    0.0000
     16 C10        5.7311    4.2591    1.5792 C.ar      1 RES1    0.0000
     17 H7         5.0431    4.8840    1.5874 H         1 RES1    0.0000
     18 C11        7.0312    4.6874    1.5910 C.ar      1 RES1    0.0000
     19 H8         7.2156    5.5994    1.6179 H         1 RES1    0.0000
     20 C12        8.0900    3.7666    1.5629 C.ar      1 RES1    0.0000
     21 H9         8.9704    4.0680    1.5729 H         1 RES1    0.0000
     22 C13        7.8252    2.4211    1.5207 C.ar      1 RES1    0.0000
     23 H10        8.5310    1.8166    1.4933 H         1 RES1    0.0000
     24 C14        6.4928    1.9376    1.5181 C.ar      1 RES1    0.0000
     25 C15        6.2108    0.5418    1.4611 C.ar      1 RES1    0.0000
     26 H11        6.9031   -0.0793    1.4296 H         1 RES1    0.0000
     27 C16        4.9137    0.1339    1.4522 C.ar      1 RES1    0.0000
     28 C17        4.2791   -1.2527    1.3341 C.3       1 RES1    0.0000
     29 H12        4.8532   -1.9753    1.0026 H         1 RES1    0.0000
     30 C18        3.5324   -1.5123    2.6232 C.ar      1 RES1    0.0000
     31 C19        3.0645   -0.8738    0.4639 C.2       1 RES1    0.0000
     32 C20        2.5652   -1.3548   -0.6624 C.2       1 RES1    0.0000
     33 C21        1.3231   -0.8336   -1.3050 C.3       1 RES1    0.0000
     34 H13        0.9733   -0.1083   -0.7825 H         1 RES1    0.0000
     35 H14        0.6695   -1.5360   -1.3554 H         1 RES1    0.0000
     36 H15        1.5266   -0.5217   -2.1895 H         1 RES1    0.0000
     37 C22        3.1928   -2.5012   -1.3877 C.3       1 RES1    0.0000
     38 H16        3.9849   -2.7791   -0.9217 H         1 RES1    0.0000
     39 H17        3.4248   -2.2285   -2.2784 H         1 RES1    0.0000
     40 H18        2.5709   -3.2321   -1.4283 H         1 RES1    0.0000
@<TRIPOS>BOND
     1    1    2 1
     2    3    1 ar
     3    4    3 1
     4    5    3 ar
     5    6    5 1
     6    7    5 ar
     7    8    7 1
     8    9    7 ar
     9   10    9 1
    10   11   10 1
    11   12   10 1
    12   13   12 ar
    13   14   13 1
    14   15   13 ar
    15   16   15 ar
    16   17   16 1
    17   18   16 ar
    18   19   18 1
    19   20   18 ar
    20   21   20 1
    21   22   20 ar
    22   23   22 1
    23   24   15 ar
    24   25   24 ar
    25   26   25 1
    26   27   12 ar
    27   28   27 1
    28   29   28 1
    29   30    1 ar
    30   31   10 1
    31   32   31 2
    32   33   32 1
    33   34   33 1
    34   35   33 1
    35   36   33 1
    36   37   32 1
    37   38   37 1
    38   39   37 1
    39   40   37 1
    40    9   30 ar
    41   22   24 ar
    42   25   27 ar
    43   28   30 1
    44   28   31 1
@<TRIPOS>SUBSTRUCTURE
     1 RES1 1

@<TRIPOS>CRYSIN
  14.9138   15.2530   15.1360  90.0000 118.8150  90.0000  15 1

