# MOL2 file generated by ConQuest
# Please check atom types

@<TRIPOS>MOLECULE
FAZJIZ
    52    58     1
SMALL
NO_CHARGES
****
Generated from CSD

@<TRIPOS>ATOM
      1 C1         0.9519   -0.4803   10.5777 C.ar      1 RES1    0.0000
      2 C2         0.8610   -1.2007    9.4091 C.ar      1 RES1    0.0000
      3 C3         1.3756   -0.6787    8.2335 C.ar      1 RES1    0.0000
      4 C4         2.0073    0.5592    8.2495 C.ar      1 RES1    0.0000
      5 C5         2.1302    1.2884    9.4355 C.ar      1 RES1    0.0000
      6 C6         2.8763    2.5965    9.3864 C.ar      1 RES1    0.0000
      7 C7         4.1594    2.5866    8.7759 C.ar      1 RES1    0.0000
      8 C8         4.8480    1.3454    8.6075 C.ar      1 RES1    0.0000
      9 C9         6.0968    1.3004    8.0782 C.ar      1 RES1    0.0000
     10 C10        6.7328    2.4814    7.6863 C.ar      1 RES1    0.0000
     11 C11        6.1435    3.7095    7.7839 C.ar      1 RES1    0.0000
     12 C12        4.8034    3.8016    8.3351 C.ar      1 RES1    0.0000
     13 C13        7.0010    4.8882    7.3877 C.3       1 RES1    0.0000
     14 C14        6.7728    6.1908    8.1477 C.3       1 RES1    0.0000
     15 C15        5.5670    6.8827    7.6082 C.ar      1 RES1    0.0000
     16 C16        5.6702    8.1031    6.9444 C.ar      1 RES1    0.0000
     17 C17        4.5836    8.6678    6.3021 C.ar      1 RES1    0.0000
     18 C18        3.3796    8.0012    6.2840 C.ar      1 RES1    0.0000
     19 C19        3.2466    6.8049    6.9652 C.ar      1 RES1    0.0000
     20 C20        4.3245    6.2369    7.6645 C.ar      1 RES1    0.0000
     21 C21        4.0684    5.0022    8.4594 C.ar      1 RES1    0.0000
     22 C22        2.9567    5.0384    9.3430 C.ar      1 RES1    0.0000
     23 C23        2.4850    6.3049    9.8084 C.ar      1 RES1    0.0000
     24 C24        1.5215    6.3893   10.7527 C.ar      1 RES1    0.0000
     25 C25        0.9381    5.2150   11.2568 C.ar      1 RES1    0.0000
     26 C26        1.2922    3.9682   10.8362 C.ar      1 RES1    0.0000
     27 C27        2.3594    3.8257    9.8577 C.ar      1 RES1    0.0000
     28 C28        0.6182    2.8180   11.5307 C.3       1 RES1    0.0000
     29 C29        1.5092    1.6119   11.8360 C.3       1 RES1    0.0000
     30 C30        1.5756    0.7654   10.6085 C.ar      1 RES1    0.0000
     31 H1         0.5003   -0.8553   11.5469 H         1 RES1    0.0000
     32 H2         0.3788   -2.1491    9.3905 H         1 RES1    0.0000
     33 H3         1.2675   -1.1733    7.2806 H         1 RES1    0.0000
     34 H4         2.4109    0.9649    7.3038 H         1 RES1    0.0000
     35 H5         4.3856    0.4276    8.9500 H         1 RES1    0.0000
     36 H6         6.5975    0.3618    7.9530 H         1 RES1    0.0000
     37 H7         7.6543    2.4891    7.3269 H         1 RES1    0.0000
     38 H8         6.9094    5.1536    6.3531 H         1 RES1    0.0000
     39 H9         7.9496    4.6382    7.4197 H         1 RES1    0.0000
     40 H10        7.5952    6.8531    8.0689 H         1 RES1    0.0000
     41 H11        6.5885    5.9869    9.0891 H         1 RES1    0.0000
     42 H12        6.6281    8.4979    6.8400 H         1 RES1    0.0000
     43 H13        4.6674    9.6382    5.7734 H         1 RES1    0.0000
     44 H14        2.5616    8.4650    5.7966 H         1 RES1    0.0000
     45 H15        2.2583    6.3597    7.0487 H         1 RES1    0.0000
     46 H16        2.9469    7.1711    9.5065 H         1 RES1    0.0000
     47 H17        1.2532    7.3466   11.1759 H         1 RES1    0.0000
     48 H18        0.1326    5.2961   11.9411 H         1 RES1    0.0000
     49 H19       -0.2070    2.4342   11.0368 H         1 RES1    0.0000
     50 H20        0.1888    3.0812   12.3584 H         1 RES1    0.0000
     51 H21        1.1118    1.0965   12.6598 H         1 RES1    0.0000
     52 H22        2.4545    1.9189   12.1497 H         1 RES1    0.0000
@<TRIPOS>BOND
     1    1    2 ar
     2    2    3 ar
     3    3    4 ar
     4    4    5 ar
     5    5    6 1
     6    6    7 ar
     7    7    8 ar
     8    8    9 ar
     9    9   10 ar
    10   10   11 ar
    11   11   12 ar
    12   12    7 ar
    13   13   11 1
    14   14   13 1
    15   15   14 1
    16   16   15 ar
    17   17   16 ar
    18   18   17 ar
    19   19   18 ar
    20   20   15 ar
    21   21   12 ar
    22   22   21 ar
    23   23   22 ar
    24   24   23 ar
    25   25   24 ar
    26   26   25 ar
    27   27    6 ar
    28   28   26 1
    29   29   28 1
    30   30    1 ar
    31   31    1 1
    32   32    2 1
    33   33    3 1
    34   34    4 1
    35   35    8 1
    36   36    9 1
    37   37   10 1
    38   38   13 1
    39   39   13 1
    40   40   14 1
    41   41   14 1
    42   42   16 1
    43   43   17 1
    44   44   18 1
    45   45   19 1
    46   46   23 1
    47   47   24 1
    48   48   25 1
    49   49   28 1
    50   50   28 1
    51   51   29 1
    52   52   29 1
    53    5   30 ar
    54   19   20 ar
    55   20   21 1
    56   22   27 ar
    57   26   27 ar
    58   29   30 1
@<TRIPOS>SUBSTRUCTURE
     1 RES1 1

@<TRIPOS>CRYSIN
   7.7360   10.9650   23.2420  90.0000  93.9600  90.0000  14 1

