# MOL2 file generated by ConQuest
# Please check atom types

@<TRIPOS>MOLECULE
FEKVEY
    58    61     1
SMALL
NO_CHARGES
****
Generated from CSD

@<TRIPOS>ATOM
      1 C1        10.3065    2.7971   10.5499 C.ar      1 RES1    0.0000
      2 C2        10.3886    2.2463    9.3014 C.ar      1 RES1    0.0000
      3 H1         9.7725    1.5612    9.0641 H         1 RES1    0.0000
      4 C3        11.3622    2.6566    8.3361 C.ar      1 RES1    0.0000
      5 C4        11.4153    2.1036    7.0359 C.ar      1 RES1    0.0000
      6 C5        12.3450    2.5811    6.0924 C.ar      1 RES1    0.0000
      7 C6        12.4292    2.0442    4.7650 C.ar      1 RES1    0.0000
      8 H2        11.8463    1.3363    4.5202 H         1 RES1    0.0000
      9 C7        13.3178    2.5133    3.8375 C.ar      1 RES1    0.0000
     10 C8        14.1781    3.5981    4.2143 C.ar      1 RES1    0.0000
     11 H3        14.7882    3.9488    3.5771 H         1 RES1    0.0000
     12 C9        14.1394    4.1344    5.4604 C.ar      1 RES1    0.0000
     13 H4        14.7228    4.8510    5.6756 H         1 RES1    0.0000
     14 C10       13.2401    3.6441    6.4555 C.ar      1 RES1    0.0000
     15 C11       13.1949    4.1687    7.7474 C.ar      1 RES1    0.0000
     16 H5        13.7945    4.8666    7.9852 H         1 RES1    0.0000
     17 C12       12.2911    3.6959    8.6962 C.ar      1 RES1    0.0000
     18 C13       12.2121    4.2231   10.0234 C.ar      1 RES1    0.0000
     19 H6        12.8348    4.8876   10.2960 H         1 RES1    0.0000
     20 C14       11.2723    3.7971   10.9026 C.ar      1 RES1    0.0000
     21 H7        11.2526    4.1710   11.7759 H         1 RES1    0.0000
     22 C15        9.2322    2.4032   11.5712 C.3       1 RES1    0.0000
     23 C16        8.2864    1.3256   11.0355 C.3       1 RES1    0.0000
     24 H8         7.6203    1.1062   11.7192 H         1 RES1    0.0000
     25 H9         8.7997    0.5204   10.8118 H         1 RES1    0.0000
     26 H10        7.8347    1.6580   10.2327 H         1 RES1    0.0000
     27 C17        9.9119    1.8564   12.8346 C.3       1 RES1    0.0000
     28 H11        9.2286    1.6030   13.4893 H         1 RES1    0.0000
     29 H12       10.4917    2.5471   13.2176 H         1 RES1    0.0000
     30 H13       10.4498    1.0696   12.6029 H         1 RES1    0.0000
     31 C18        8.4022    3.6431   11.9406 C.3       1 RES1    0.0000
     32 H14        7.7145    3.3944   12.5924 H         1 RES1    0.0000
     33 H15        7.9733    4.0011   11.1349 H         1 RES1    0.0000
     34 H16        8.9880    4.3253   12.3299 H         1 RES1    0.0000
     35 C19       13.4409    1.9372    2.4246 C.3       1 RES1    0.0000
     36 C20       13.1219    3.0439    1.4053 C.3       1 RES1    0.0000
     37 H17       13.1983    2.6831    0.4973 H         1 RES1    0.0000
     38 H18       13.7553    3.7840    1.5168 H         1 RES1    0.0000
     39 H19       12.2098    3.3708    1.5525 H         1 RES1    0.0000
     40 C21       14.8803    1.4519    2.2039 C.3       1 RES1    0.0000
     41 H20       14.9660    1.0826    1.3005 H         1 RES1    0.0000
     42 H21       15.0968    0.7584    2.8622 H         1 RES1    0.0000
     43 H22       15.4995    2.2045    2.3082 H         1 RES1    0.0000
     44 C22       12.4901    0.7636    2.1937 C.3       1 RES1    0.0000
     45 H23       12.6020    0.4289    1.2794 H         1 RES1    0.0000
     46 H24       11.5665    1.0617    2.3214 H         1 RES1    0.0000
     47 H25       12.6935    0.0471    2.8319 H         1 RES1    0.0000
     48 C23       10.4537    1.0149    6.6546 C.ar      1 RES1    0.0000
     49 C24       10.7558   -0.3175    6.8854 C.ar      1 RES1    0.0000
     50 H26       11.5900   -0.5518    7.2742 H         1 RES1    0.0000
     51 C25        9.8481   -1.3138    6.5522 C.ar      1 RES1    0.0000
     52 H27       10.0706   -2.2228    6.7137 H         1 RES1    0.0000
     53 C26        8.6373   -1.0016    5.9930 C.ar      1 RES1    0.0000
     54 H28        8.0178   -1.6893    5.7772 H         1 RES1    0.0000
     55 C27        8.3256    0.3196    5.7449 C.ar      1 RES1    0.0000
     56 H29        7.4896    0.5465    5.3538 H         1 RES1    0.0000
     57 C28        9.2359    1.3188    6.0685 C.ar      1 RES1    0.0000
     58 H30        9.0194    2.2254    5.8840 H         1 RES1    0.0000
@<TRIPOS>BOND
     1    1    2 ar
     2    2    3 1
     3    4    2 ar
     4    5    4 ar
     5    6    5 ar
     6    7    6 ar
     7    8    7 1
     8    9    7 ar
     9   10    9 ar
    10   11   10 1
    11   12   10 ar
    12   13   12 1
    13   14    6 ar
    14   15   14 ar
    15   16   15 1
    16   17    4 ar
    17   18   17 ar
    18   19   18 1
    19   20    1 ar
    20   21   20 1
    21   22    1 1
    22   23   22 1
    23   24   23 1
    24   25   23 1
    25   26   23 1
    26   27   22 1
    27   28   27 1
    28   29   27 1
    29   30   27 1
    30   31   22 1
    31   32   31 1
    32   33   31 1
    33   34   31 1
    34   35    9 1
    35   36   35 1
    36   37   36 1
    37   38   36 1
    38   39   36 1
    39   40   35 1
    40   41   40 1
    41   42   40 1
    42   43   40 1
    43   44   35 1
    44   45   44 1
    45   46   44 1
    46   47   44 1
    47   48    5 1
    48   49   48 ar
    49   50   49 1
    50   51   49 ar
    51   52   51 1
    52   53   51 ar
    53   54   53 1
    54   55   53 ar
    55   56   55 1
    56   57   48 ar
    57   58   57 1
    58   12   14 ar
    59   15   17 ar
    60   18   20 ar
    61   55   57 ar
@<TRIPOS>SUBSTRUCTURE
     1 RES1 1

@<TRIPOS>CRYSIN
  26.1507   26.1507   13.1899  90.0000  90.0000  90.0000  88 1

