# MOL2 file generated by ConQuest
# Please check atom types

@<TRIPOS>MOLECULE
FETZOW
    48    52     1
SMALL
NO_CHARGES
****
Generated from CSD

@<TRIPOS>ATOM
      1 C1         2.8472    5.2785   34.0134 C.ar      1 RES1    0.0000
      2 H1         2.0380    5.7374   34.0001 H         1 RES1    0.0000
      3 C2         3.4161    4.9488   35.2059 C.ar      1 RES1    0.0000
      4 H2         2.9878    5.1741   35.9984 H         1 RES1    0.0000
      5 C3         4.6557    4.2646   35.2462 C.ar      1 RES1    0.0000
      6 H3         5.0402    4.0574   36.0668 H         1 RES1    0.0000
      7 C4         5.2891    3.9094   34.0990 C.ar      1 RES1    0.0000
      8 H4         6.1019    3.4604   34.1456 H         1 RES1    0.0000
      9 C5         4.7248    4.2136   32.8209 C.ar      1 RES1    0.0000
     10 C6         5.3355    3.8403   31.6194 C.ar      1 RES1    0.0000
     11 H5         6.1407    3.3748   31.6425 H         1 RES1    0.0000
     12 C7         4.7649    4.1503   30.3823 C.ar      1 RES1    0.0000
     13 C8         5.3418    3.7334   29.1393 C.ar      1 RES1    0.0000
     14 H6         6.1307    3.2416   29.1479 H         1 RES1    0.0000
     15 C9         4.7645    4.0393   27.9493 C.ar      1 RES1    0.0000
     16 H7         5.1621    3.7441   27.1625 H         1 RES1    0.0000
     17 C10        3.5513    4.8106   27.8783 C.ar      1 RES1    0.0000
     18 C11        2.9617    5.1897   29.0593 C.ar      1 RES1    0.0000
     19 H8         2.1622    5.6642   29.0281 H         1 RES1    0.0000
     20 C12        3.5293    4.8830   30.3335 C.ar      1 RES1    0.0000
     21 C13        2.9200    5.2547   31.5368 C.ar      1 RES1    0.0000
     22 H9         2.1223    5.7325   31.5098 H         1 RES1    0.0000
     23 C14        3.4763    4.9282   32.7815 C.ar      1 RES1    0.0000
     24 C15        2.8808    5.1396   26.6096 C.2       1 RES1    0.0000
     25 H10        1.9627    5.2785   26.6661 H         1 RES1    0.0000
     26 C16        3.4147    5.2695   25.3705 C.2       1 RES1    0.0000
     27 C17        2.5457    5.4627   24.1736 C.ar      1 RES1    0.0000
     28 C18        1.2261    4.9932   24.1240 C.ar      1 RES1    0.0000
     29 H11        0.8666    4.5615   24.8647 H         1 RES1    0.0000
     30 C19        0.4455    5.1626   22.9854 C.ar      1 RES1    0.0000
     31 H12       -0.4256    4.8394   22.9734 H         1 RES1    0.0000
     32 C20        0.9575    5.8073   21.8733 C.ar      1 RES1    0.0000
     33 H13        0.4333    5.9224   21.1121 H         1 RES1    0.0000
     34 C21        2.2519    6.2760   21.9050 C.ar      1 RES1    0.0000
     35 H14        2.6021    6.7119   21.1634 H         1 RES1    0.0000
     36 C22        3.0367    6.1058   23.0320 C.ar      1 RES1    0.0000
     37 H15        3.9098    6.4257   23.0290 H         1 RES1    0.0000
     38 C23        4.8896    5.2761   25.1437 C.ar      1 RES1    0.0000
     39 C24        5.6945    6.1732   25.8347 C.ar      1 RES1    0.0000
     40 H16        5.3040    6.7711   26.4308 H         1 RES1    0.0000
     41 C25        7.0672    6.1921   25.6524 C.ar      1 RES1    0.0000
     42 H17        7.5914    6.8048   26.1184 H         1 RES1    0.0000
     43 C26        7.6523    5.3007   24.7800 C.ar      1 RES1    0.0000
     44 H18        8.5755    5.3040   24.6636 H         1 RES1    0.0000
     45 C27        6.8699    4.4028   24.0791 C.ar      1 RES1    0.0000
     46 H19        7.2700    3.7975   23.4954 H         1 RES1    0.0000
     47 C28        5.4937    4.3970   24.2400 C.ar      1 RES1    0.0000
     48 H20        4.9715    3.8074   23.7479 H         1 RES1    0.0000
@<TRIPOS>BOND
     1    1    2 1
     2    3    1 ar
     3    4    3 1
     4    5    3 ar
     5    6    5 1
     6    7    5 ar
     7    8    7 1
     8    9    7 ar
     9   10    9 ar
    10   11   10 1
    11   12   10 ar
    12   13   12 ar
    13   14   13 1
    14   15   13 ar
    15   16   15 1
    16   17   15 ar
    17   18   17 ar
    18   19   18 1
    19   20   12 ar
    20   21   20 ar
    21   22   21 1
    22   23    1 ar
    23   24   17 1
    24   25   24 1
    25   26   24 2
    26   27   26 1
    27   28   27 ar
    28   29   28 1
    29   30   28 ar
    30   31   30 1
    31   32   30 ar
    32   33   32 1
    33   34   32 ar
    34   35   34 1
    35   36   27 ar
    36   37   36 1
    37   38   26 1
    38   39   38 ar
    39   40   39 1
    40   41   39 ar
    41   42   41 1
    42   43   41 ar
    43   44   43 1
    44   45   43 ar
    45   46   45 1
    46   47   38 ar
    47   48   47 1
    48    9   23 ar
    49   18   20 ar
    50   21   23 ar
    51   34   36 ar
    52   45   47 ar
@<TRIPOS>SUBSTRUCTURE
     1 RES1 1

@<TRIPOS>CRYSIN
  11.0823    8.2233   42.7890  90.0000  90.0000  90.0000  61 1

