# MOL2 file generated by ConQuest
# Please check atom types

@<TRIPOS>MOLECULE
FEWHIZ
   146   147     1
SMALL
NO_CHARGES
****
Generated from CSD

@<TRIPOS>ATOM
      1 C1         5.5477    1.5969    3.1606 C.ar      1 RES1    0.0000
      2 C2         5.7067    2.5991    2.0816 C.2       1 RES1    0.0000
      3 H1         5.2495    2.4415    1.2636 H         1 RES1    0.0000
      4 C3         6.4381    3.6955    2.1736 C.2       1 RES1    0.0000
      5 H2         6.9365    3.8013    2.9758 H         1 RES1    0.0000
      6 C4         6.5754    4.7980    1.1555 C.3       1 RES1    0.0000
      7 C5         5.7682    4.5133   -0.1008 C.3       1 RES1    0.0000
      8 H3         6.0822    3.6792   -0.5091 H         1 RES1    0.0000
      9 H4         5.8813    5.2512   -0.7360 H         1 RES1    0.0000
     10 H5         4.8212    4.4248    0.1324 H         1 RES1    0.0000
     11 C6         8.0598    4.9413    0.8051 C.3       1 RES1    0.0000
     12 H6         8.3611    4.1393    0.3275 H         1 RES1    0.0000
     13 H7         8.5811    5.0465    1.6280 H         1 RES1    0.0000
     14 H8         8.1868    5.7282    0.2351 H         1 RES1    0.0000
     15 C7         6.0899    6.1106    1.7822 C.3       1 RES1    0.0000
     16 H9         5.1425    6.0287    2.0171 H         1 RES1    0.0000
     17 H10        6.2059    6.8419    1.1404 H         1 RES1    0.0000
     18 H11        6.6119    6.2991    2.5899 H         1 RES1    0.0000
     19 C8         6.6294    1.0283    3.8157 C.ar      1 RES1    0.0000
     20 C9         7.9835    1.1796    3.1956 C.2       1 RES1    0.0000
     21 H12        8.5746    1.8499    3.5168 H         1 RES1    0.0000
     22 C10        8.3668    0.3910    2.2065 C.2       1 RES1    0.0000
     23 H13        7.7687   -0.3136    1.9832 H         1 RES1    0.0000
     24 C11        9.6348    0.4650    1.3843 C.3       1 RES1    0.0000
     25 C12        9.2292    0.6930   -0.0800 C.3       1 RES1    0.0000
     26 H14        8.7626    1.5513   -0.1601 H         1 RES1    0.0000
     27 H15        8.6356   -0.0300   -0.3706 H         1 RES1    0.0000
     28 H16       10.0305    0.7043   -0.6426 H         1 RES1    0.0000
     29 C13       10.3692   -0.8750    1.5005 C.3       1 RES1    0.0000
     30 H17       10.6222   -1.0292    2.4348 H         1 RES1    0.0000
     31 H18       11.1747   -0.8564    0.9423 H         1 RES1    0.0000
     32 H19        9.7793   -1.5983    1.1989 H         1 RES1    0.0000
     33 C14       10.5479    1.5990    1.8345 C.3       1 RES1    0.0000
     34 H20       10.0709    2.4509    1.7604 H         1 RES1    0.0000
     35 H21       11.3459    1.6208    1.2657 H         1 RES1    0.0000
     36 H22       10.8151    1.4536    2.7664 H         1 RES1    0.0000
     37 C15        6.4106    0.1925    4.9594 C.ar      1 RES1    0.0000
     38 C16        7.4947   -0.2785    5.7713 C.ar      1 RES1    0.0000
     39 C17        8.8669    0.3076    5.7039 C.2       1 RES1    0.0000
     40 H23        9.5266   -0.1071    5.1623 H         1 RES1    0.0000
     41 C18        9.1759    1.3960    6.3878 C.2       1 RES1    0.0000
     42 H24        8.4546    1.8218    6.8354 H         1 RES1    0.0000
     43 C19       10.5293    2.0484    6.5482 C.3       1 RES1    0.0000
     44 C20       10.5380    3.3811    5.7897 C.3       1 RES1    0.0000
     45 H25       10.3909    3.2153    4.8348 H         1 RES1    0.0000
     46 H26       11.4038    3.8219    5.9157 H         1 RES1    0.0000
     47 H27        9.8241    3.9572    6.1343 H         1 RES1    0.0000
     48 C21       11.6534    1.1616    6.0274 C.3       1 RES1    0.0000
     49 H28       11.6450    0.3080    6.5080 H         1 RES1    0.0000
     50 H29       12.5144    1.6077    6.1703 H         1 RES1    0.0000
     51 H30       11.5242    0.9991    5.0699 H         1 RES1    0.0000
     52 C22       10.7460    2.3095    8.0441 C.3       1 RES1    0.0000
     53 H31       10.7111    1.4612    8.5322 H         1 RES1    0.0000
     54 H32       10.0444    2.9073    8.3762 H         1 RES1    0.0000
     55 H33       11.6218    2.7270    8.1791 H         1 RES1    0.0000
     56 C23        4.2210    1.2059    3.5022 C.ar      1 RES1    0.0000
     57 C24        3.0936    1.7968    2.7265 C.2       1 RES1    0.0000
     58 H34        2.9897    1.5363    1.8190 H         1 RES1    0.0000
     59 C25        2.2312    2.6613    3.2264 C.2       1 RES1    0.0000
     60 H35        2.3145    2.8434    4.1553 H         1 RES1    0.0000
     61 C26        1.1281    3.3949    2.5041 C.3       1 RES1    0.0000
     62 C27        1.5435    4.8693    2.4086 C.3       1 RES1    0.0000
     63 H36        2.3780    4.9413    1.9011 H         1 RES1    0.0000
     64 H37        0.8401    5.3789    1.9544 H         1 RES1    0.0000
     65 H38        1.6771    5.2305    3.3094 H         1 RES1    0.0000
     66 C28       -0.1576    3.2861    3.3301 C.3       1 RES1    0.0000
     67 H39       -0.0008    3.6473    4.2271 H         1 RES1    0.0000
     68 H40       -0.8718    3.7956    2.8927 H         1 RES1    0.0000
     69 H41       -0.4226    2.3457    3.3987 H         1 RES1    0.0000
     70 C29        0.8806    2.8431    1.1071 C.3       1 RES1    0.0000
     71 H42        0.6475    1.8931    1.1682 H         1 RES1    0.0000
     72 H43        0.1436    3.3336    0.6878 H         1 RES1    0.0000
     73 H44        1.6919    2.9467    0.5666 H         1 RES1    0.0000
     74 C1B        5.9336   -1.5969    7.1044 C.ar      1 RES1    0.0000
     75 C2B        5.7746   -2.5991    8.1833 C.2       1 RES1    0.0000
     76 H1B        6.2318   -2.4415    9.0013 H         1 RES1    0.0000
     77 C3B        5.0431   -3.6955    8.0914 C.2       1 RES1    0.0000
     78 H2B        4.5447   -3.8013    7.2892 H         1 RES1    0.0000
     79 C4B        4.9058   -4.7980    9.1094 C.3       1 RES1    0.0000
     80 C5B        5.7130   -4.5133   10.3658 C.3       1 RES1    0.0000
     81 H3B        5.3990   -3.6792   10.7741 H         1 RES1    0.0000
     82 H4B        5.5999   -5.2512   11.0010 H         1 RES1    0.0000
     83 H5B        6.6600   -4.4248   10.1325 H         1 RES1    0.0000
     84 C6B        3.4215   -4.9413    9.4599 C.3       1 RES1    0.0000
     85 H6B        3.1202   -4.1393    9.9375 H         1 RES1    0.0000
     86 H7B        2.9002   -5.0465    8.6369 H         1 RES1    0.0000
     87 H8B        3.2944   -5.7282   10.0299 H         1 RES1    0.0000
     88 C7B        5.3913   -6.1106    8.4828 C.3       1 RES1    0.0000
     89 H9B        6.3387   -6.0287    8.2479 H         1 RES1    0.0000
     90 H10B       5.2753   -6.8419    9.1245 H         1 RES1    0.0000
     91 H11B       4.8694   -6.2991    7.6751 H         1 RES1    0.0000
     92 C8B        4.8518   -1.0283    6.4493 C.ar      1 RES1    0.0000
     93 C9B        3.4978   -1.1796    7.0694 C.2       1 RES1    0.0000
     94 H12B       2.9066   -1.8499    6.7482 H         1 RES1    0.0000
     95 C10B       3.1144   -0.3910    8.0585 C.2       1 RES1    0.0000
     96 H13B       3.7126    0.3136    8.2818 H         1 RES1    0.0000
     97 C11B       1.8465   -0.4650    8.8806 C.3       1 RES1    0.0000
     98 C12B       2.2521   -0.6930   10.3449 C.3       1 RES1    0.0000
     99 H14B       2.7187   -1.5513   10.4251 H         1 RES1    0.0000
    100 H15B       2.8456    0.0300   10.6355 H         1 RES1    0.0000
    101 H16B       1.4508   -0.7043   10.9076 H         1 RES1    0.0000
    102 C13B       1.1121    0.8750    8.7644 C.3       1 RES1    0.0000
    103 H17B       0.8590    1.0292    7.8301 H         1 RES1    0.0000
    104 H18B       0.3065    0.8564    9.3226 H         1 RES1    0.0000
    105 H19B       1.7019    1.5983    9.0660 H         1 RES1    0.0000
    106 C14B       0.9334   -1.5990    8.4305 C.3       1 RES1    0.0000
    107 H20B       1.4104   -2.4509    8.5045 H         1 RES1    0.0000
    108 H21B       0.1354   -1.6208    8.9993 H         1 RES1    0.0000
    109 H22B       0.6662   -1.4536    7.4986 H         1 RES1    0.0000
    110 C15B       5.0706   -0.1925    5.3055 C.ar      1 RES1    0.0000
    111 C16B       3.9865    0.2785    4.4937 C.ar      1 RES1    0.0000
    112 C17B       2.6143   -0.3076    4.5610 C.2       1 RES1    0.0000
    113 H23B       1.9546    0.1071    5.1027 H         1 RES1    0.0000
    114 C18B       2.3053   -1.3960    3.8772 C.2       1 RES1    0.0000
    115 H24B       3.0267   -1.8218    3.4295 H         1 RES1    0.0000
    116 C19B       0.9520   -2.0484    3.7167 C.3       1 RES1    0.0000
    117 C20B       0.9433   -3.3811    4.4752 C.3       1 RES1    0.0000
    118 H25B       1.0904   -3.2153    5.4302 H         1 RES1    0.0000
    119 H26B       0.0775   -3.8219    4.3493 H         1 RES1    0.0000
    120 H27B       1.6571   -3.9572    4.1306 H         1 RES1    0.0000
    121 C21B      -0.1722   -1.1616    4.2376 C.3       1 RES1    0.0000
    122 H28B      -0.1637   -0.3080    3.7570 H         1 RES1    0.0000
    123 H29B      -1.0332   -1.6077    4.0947 H         1 RES1    0.0000
    124 H30B      -0.0429   -0.9991    5.1951 H         1 RES1    0.0000
    125 C22B       0.7353   -2.3095    2.2208 C.3       1 RES1    0.0000
    126 H31B       0.7701   -1.4612    1.7327 H         1 RES1    0.0000
    127 H32B       1.4368   -2.9073    1.8888 H         1 RES1    0.0000
    128 H33B      -0.1405   -2.7270    2.0858 H         1 RES1    0.0000
    129 C23B       7.2603   -1.2059    6.7628 C.ar      1 RES1    0.0000
    130 C24B       8.3876   -1.7968    7.5385 C.2       1 RES1    0.0000
    131 H34B       8.4916   -1.5363    8.4460 H         1 RES1    0.0000
    132 C25B       9.2500   -2.6613    7.0386 C.2       1 RES1    0.0000
    133 H35B       9.1667   -2.8434    6.1097 H         1 RES1    0.0000
    134 C26B      10.3532   -3.3949    7.7608 C.3       1 RES1    0.0000
    135 C27B       9.9377   -4.8693    7.8564 C.3       1 RES1    0.0000
    136 H36B       9.1033   -4.9413    8.3639 H         1 RES1    0.0000
    137 H37B      10.6411   -5.3789    8.3105 H         1 RES1    0.0000
    138 H38B       9.8041   -5.2305    6.9555 H         1 RES1    0.0000
    139 C28B      11.6389   -3.2861    6.9349 C.3       1 RES1    0.0000
    140 H39B      11.4820   -3.6473    6.0379 H         1 RES1    0.0000
    141 H40B      12.3531   -3.7956    7.3723 H         1 RES1    0.0000
    142 H41B      11.9038   -2.3457    6.8662 H         1 RES1    0.0000
    143 C29B      10.6006   -2.8431    9.1579 C.3       1 RES1    0.0000
    144 H42B      10.8337   -1.8931    9.0968 H         1 RES1    0.0000
    145 H43B      11.3377   -3.3336    9.5772 H         1 RES1    0.0000
    146 H44B       9.7894   -2.9467    9.6983 H         1 RES1    0.0000
@<TRIPOS>BOND
     1    1    2 1
     2    2    3 1
     3    4    2 2
     4    5    4 1
     5    6    4 1
     6    7    6 1
     7    8    7 1
     8    9    7 1
     9   10    7 1
    10   11    6 1
    11   12   11 1
    12   13   11 1
    13   14   11 1
    14   15    6 1
    15   16   15 1
    16   17   15 1
    17   18   15 1
    18   19    1 ar
    19   20   19 1
    20   21   20 1
    21   22   20 2
    22   23   22 1
    23   24   22 1
    24   25   24 1
    25   26   25 1
    26   27   25 1
    27   28   25 1
    28   29   24 1
    29   30   29 1
    30   31   29 1
    31   32   29 1
    32   33   24 1
    33   34   33 1
    34   35   33 1
    35   36   33 1
    36   37   19 ar
    37   38   37 ar
    38   39   38 1
    39   40   39 1
    40   41   39 2
    41   42   41 1
    42   43   41 1
    43   44   43 1
    44   45   44 1
    45   46   44 1
    46   47   44 1
    47   48   43 1
    48   49   48 1
    49   50   48 1
    50   51   48 1
    51   52   43 1
    52   53   52 1
    53   54   52 1
    54   55   52 1
    55   56    1 ar
    56   57   56 1
    57   58   57 1
    58   59   57 2
    59   60   59 1
    60   61   59 1
    61   62   61 1
    62   63   62 1
    63   64   62 1
    64   65   62 1
    65   66   61 1
    66   67   66 1
    67   68   66 1
    68   69   66 1
    69   70   61 1
    70   71   70 1
    71   72   70 1
    72   73   70 1
    73   74   75 1
    74   75   76 1
    75   77   75 2
    76   78   77 1
    77   79   77 1
    78   80   79 1
    79   81   80 1
    80   82   80 1
    81   83   80 1
    82   84   79 1
    83   85   84 1
    84   86   84 1
    85   87   84 1
    86   88   79 1
    87   89   88 1
    88   90   88 1
    89   91   88 1
    90   92   74 ar
    91   93   92 1
    92   94   93 1
    93   95   93 2
    94   96   95 1
    95   97   95 1
    96   98   97 1
    97   99   98 1
    98  100   98 1
    99  101   98 1
   100  102   97 1
   101  103  102 1
   102  104  102 1
   103  105  102 1
   104  106   97 1
   105  107  106 1
   106  108  106 1
   107  109  106 1
   108  110   37 ar
   109  111   56 ar
   110  112  111 1
   111  113  112 1
   112  114  112 2
   113  115  114 1
   114  116  114 1
   115  117  116 1
   116  118  117 1
   117  119  117 1
   118  120  117 1
   119  121  116 1
   120  122  121 1
   121  123  121 1
   122  124  121 1
   123  125  116 1
   124  126  125 1
   125  127  125 1
   126  128  125 1
   127  129   38 ar
   128  130  129 1
   129  131  130 1
   130  132  130 2
   131  133  132 1
   132  134  132 1
   133  135  134 1
   134  136  135 1
   135  137  135 1
   136  138  135 1
   137  139  134 1
   138  140  139 1
   139  141  139 1
   140  142  139 1
   141  143  134 1
   142  144  143 1
   143  145  143 1
   144  146  143 1
   145   74  129 ar
   146   92  110 ar
   147  110  111 ar
@<TRIPOS>SUBSTRUCTURE
     1 RES1 1

@<TRIPOS>CRYSIN
  13.9040   18.7810   10.5470  90.0000 103.2800  90.0000  14 1

