# MOL2 file generated by ConQuest
# Please check atom types

@<TRIPOS>MOLECULE
FEWWEJ
    30    32     1
SMALL
NO_CHARGES
****
Generated from CSD

@<TRIPOS>ATOM
      1 C1         7.8484    3.7143    4.2860 C.ar      1 RES1    0.0000
      2 C2         9.1187    3.3874    4.5677 C.ar      1 RES1    0.0000
      3 C3         9.8094    2.4770    3.7700 C.ar      1 RES1    0.0000
      4 C4         9.2342    1.9537    2.6189 C.ar      1 RES1    0.0000
      5 C5         7.9564    2.4366    2.2063 C.ar      1 RES1    0.0000
      6 C6         7.3316    2.1105    0.9260 C.ar      1 RES1    0.0000
      7 C7         8.0053    1.8563   -0.2901 C.ar      1 RES1    0.0000
      8 C8         7.2905    1.4164   -1.3761 C.ar      1 RES1    0.0000
      9 C9         5.9183    1.2785   -1.3503 C.ar      1 RES1    0.0000
     10 C10        5.2202    1.6995   -0.2567 C.ar      1 RES1    0.0000
     11 C11        5.9208    2.1601    0.8794 C.ar      1 RES1    0.0000
     12 C12        5.1678    2.7998    1.9363 C.ar      1 RES1    0.0000
     13 C13        5.8315    3.4015    2.9423 C.ar      1 RES1    0.0000
     14 C14        7.2477    3.2141    3.1315 C.ar      1 RES1    0.0000
     15 C15        9.9096    0.7594    2.0188 C.3       1 RES1    0.0000
     16 C16        9.4462    2.2013   -0.5426 C.3       1 RES1    0.0000
     17 H1         7.1434    4.3746    5.0345 H         1 RES1    0.0000
     18 H2         9.3633    3.7886    5.3595 H         1 RES1    0.0000
     19 H3        10.6880    1.9149    4.1259 H         1 RES1    0.0000
     20 H4         7.6372    1.2876   -2.1005 H         1 RES1    0.0000
     21 H5         5.1978    0.8254   -2.0755 H         1 RES1    0.0000
     22 H6         4.2982    1.6508   -0.2667 H         1 RES1    0.0000
     23 H7         4.0463    2.8559    1.7837 H         1 RES1    0.0000
     24 H8         5.2270    3.9289    3.6758 H         1 RES1    0.0000
     25 H9         9.2578    0.3302    1.3420 H         1 RES1    0.0000
     26 H10       10.6583    0.9327    1.6254 H         1 RES1    0.0000
     27 H11       10.2928    0.1568    2.7756 H         1 RES1    0.0000
     28 H12       10.0136    2.6825    0.1167 H         1 RES1    0.0000
     29 H13       10.1358    1.3702   -0.7918 H         1 RES1    0.0000
     30 H14        9.4741    2.6991   -1.4087 H         1 RES1    0.0000
@<TRIPOS>BOND
     1    1    2 ar
     2    2    3 ar
     3    3    4 ar
     4    4    5 ar
     5    5    6 ar
     6    6    7 ar
     7    7    8 ar
     8    8    9 ar
     9    9   10 ar
    10   10   11 ar
    11   11    6 ar
    12   12   11 ar
    13   13   12 ar
    14   14    1 ar
    15   15    4 1
    16   16    7 1
    17   17    1 1
    18   18    2 1
    19   19    3 1
    20   20    8 1
    21   21    9 1
    22   22   10 1
    23   23   12 1
    24   24   13 1
    25   25   15 1
    26   26   15 1
    27   27   15 1
    28   28   16 1
    29   29   16 1
    30   30   16 1
    31    5   14 ar
    32   13   14 ar
@<TRIPOS>SUBSTRUCTURE
     1 RES1 1

@<TRIPOS>CRYSIN
   8.3270    8.2540    8.7460  90.0000 107.6300  90.0000   4 1

