# MOL2 file generated by ConQuest
# Please check atom types

@<TRIPOS>MOLECULE
FEWWEJ03
    30    32     1
SMALL
NO_CHARGES
****
Generated from CSD

@<TRIPOS>ATOM
      1 C1         9.2160    5.5511    2.5910 C.ar      1 RES1    0.0000
      2 C2         9.8041    6.0782    3.7396 C.ar      1 RES1    0.0000
      3 H1        10.6852    5.8091    3.9696 H         1 RES1    0.0000
      4 C3         9.1376    6.9924    4.5647 C.ar      1 RES1    0.0000
      5 H2         9.5840    7.3907    5.3024 H         1 RES1    0.0000
      6 C4         7.8246    7.3051    4.2903 C.ar      1 RES1    0.0000
      7 H3         7.3396    7.8659    4.8840 H         1 RES1    0.0000
      8 C5         7.1963    6.7999    3.1356 C.ar      1 RES1    0.0000
      9 C6         5.7780    6.9789    2.9695 C.ar      1 RES1    0.0000
     10 H4         5.2987    7.5265    3.5801 H         1 RES1    0.0000
     11 C7         5.1226    6.3769    1.9555 C.ar      1 RES1    0.0000
     12 H5         4.1730    6.3789    1.9447 H         1 RES1    0.0000
     13 C8         5.8445    5.7311    0.8892 C.ar      1 RES1    0.0000
     14 C9         5.1388    5.2736   -0.2409 C.ar      1 RES1    0.0000
     15 H6         4.1895    5.2539   -0.2299 H         1 RES1    0.0000
     16 C10        5.8199    4.8548   -1.3614 C.ar      1 RES1    0.0000
     17 H7         5.3505    4.4813   -2.0976 H         1 RES1    0.0000
     18 C11        7.2110    4.9860   -1.4026 C.ar      1 RES1    0.0000
     19 H8         7.6689    4.7714   -2.2068 H         1 RES1    0.0000
     20 C12        7.9484    5.4208   -0.3039 C.ar      1 RES1    0.0000
     21 C13        7.2719    5.6832    0.9223 C.ar      1 RES1    0.0000
     22 C14        7.9329    6.0220    2.1917 C.ar      1 RES1    0.0000
     23 C15        9.8992    4.3560    1.9655 C.3       1 RES1    0.0000
     24 H9        10.1050    3.6966    2.6607 H         1 RES1    0.0000
     25 H10       10.7298    4.6446    1.5329 H         1 RES1    0.0000
     26 H11        9.3057    3.9528    1.2981 H         1 RES1    0.0000
     27 C16        9.3989    5.7598   -0.5726 C.3       1 RES1    0.0000
     28 H12        9.9138    4.9323   -0.6796 H         1 RES1    0.0000
     29 H13        9.7594    6.2738    0.1802 H         1 RES1    0.0000
     30 H14        9.4630    6.2924   -1.3924 H         1 RES1    0.0000
@<TRIPOS>BOND
     1    1    2 ar
     2    2    3 1
     3    4    2 ar
     4    5    4 1
     5    6    4 ar
     6    7    6 1
     7    8    6 ar
     8    9    8 ar
     9   10    9 1
    10   11    9 ar
    11   12   11 1
    12   13   11 ar
    13   14   13 ar
    14   15   14 1
    15   16   14 ar
    16   17   16 1
    17   18   16 ar
    18   19   18 1
    19   20   18 ar
    20   21   13 ar
    21   22    1 ar
    22   23    1 1
    23   24   23 1
    24   25   23 1
    25   26   23 1
    26   27   20 1
    27   28   27 1
    28   29   27 1
    29   30   27 1
    30    8   22 ar
    31   20   21 ar
    32   21   22 ar
@<TRIPOS>SUBSTRUCTURE
     1 RES1 1

@<TRIPOS>CRYSIN
   8.3090    8.0817    8.7050  90.0000 108.2270  90.0000   4 1

