# MOL2 file generated by ConQuest
# Please check atom types

@<TRIPOS>MOLECULE
FEWWIN
    72    76     2
SMALL
NO_CHARGES
****
Generated from CSD

@<TRIPOS>ATOM
      1 C1         3.0981    2.7319    6.7023 C.ar      1 RES1    0.0000
      2 C2         3.2822    3.8774    7.4095 C.ar      1 RES1    0.0000
      3 C3         2.5726    5.0398    7.0947 C.ar      1 RES1    0.0000
      4 C4         1.7554    5.0629    5.9667 C.ar      1 RES1    0.0000
      5 C5         1.7192    3.9344    5.0998 C.ar      1 RES1    0.0000
      6 C6         1.0523    3.9113    3.7883 C.ar      1 RES1    0.0000
      7 C7         0.9498    5.0306    2.9125 C.ar      1 RES1    0.0000
      8 C8         0.1349    4.9489    1.7845 C.ar      1 RES1    0.0000
      9 C9        -0.5003    3.7494    1.4756 C.ar      1 RES1    0.0000
     10 C10       -0.2464    2.6193    2.1888 C.ar      1 RES1    0.0000
     11 C11        0.5661    2.6641    3.3303 C.ar      1 RES1    0.0000
     12 C12        1.0137    1.4600    3.9629 C.ar      1 RES1    0.0000
     13 C13        1.9170    1.4954    4.9432 C.ar      1 RES1    0.0000
     14 C14        2.2798    2.7257    5.5669 C.ar      1 RES1    0.0000
     15 C15        0.7931    6.2161    5.8280 C.3       1 RES1    0.0000
     16 C16        1.8551    6.2254    3.0468 C.3       1 RES1    0.0000
     17 C17        2.6900    6.2285    8.0019 C.3       1 RES1    0.0000
     18 C18       -0.0102    6.1283    0.8564 C.3       1 RES1    0.0000
     19 C19       -6.1380    5.3266    2.5872 C.ar      2 RES2    0.0000
     20 C20       -6.4333    4.2027    3.3019 C.ar      2 RES2    0.0000
     21 C21       -5.7865    3.0001    3.0139 C.ar      2 RES2    0.0000
     22 C22       -4.9355    2.9046    1.9143 C.ar      2 RES2    0.0000
     23 C23       -4.7936    4.0130    1.0355 C.ar      2 RES2    0.0000
     24 C24       -4.0924    3.9760   -0.2507 C.ar      2 RES2    0.0000
     25 C25       -4.0415    2.8352   -1.1056 C.ar      2 RES2    0.0000
     26 C26       -3.1649    2.8244   -2.1963 C.ar      2 RES2    0.0000
     27 C27       -2.4285    3.9699   -2.4843 C.ar      2 RES2    0.0000
     28 C28       -2.6292    5.1231   -1.8128 C.ar      2 RES2    0.0000
     29 C29       -3.4861    5.1739   -0.7028 C.ar      2 RES2    0.0000
     30 C30       -3.8585    6.4119   -0.1000 C.ar      2 RES2    0.0000
     31 C31       -4.7992    6.4628    0.8579 C.ar      2 RES2    0.0000
     32 C32       -5.2764    5.2664    1.4727 C.ar      2 RES2    0.0000
     33 C33       -4.0655    1.6820    1.8084 C.3       2 RES2    0.0000
     34 C34       -5.0557    1.7221   -1.0012 C.3       2 RES2    0.0000
     35 C35       -6.0031    1.8238    3.9345 C.3       2 RES2    0.0000
     36 C36       -3.0346    1.6157   -3.0841 C.3       2 RES2    0.0000
     37 H1         3.5171    1.8038    6.9828 H         1 RES1    0.0000
     38 H2         3.9264    3.8851    8.2063 H         1 RES1    0.0000
     39 H3        -1.0873    3.7001    0.6714 H         1 RES1    0.0000
     40 H4        -0.6439    1.6650    1.9844 H         1 RES1    0.0000
     41 H5         0.7631    0.6321    3.5809 H         1 RES1    0.0000
     42 H6         2.3316    0.7246    5.3416 H         1 RES1    0.0000
     43 H7         0.1576    6.0589    5.1177 H         1 RES1    0.0000
     44 H8         0.3082    6.3364    6.6844 H         1 RES1    0.0000
     45 H9         1.2359    7.1535    5.5952 H         1 RES1    0.0000
     46 H10        2.5298    6.1205    3.8047 H         1 RES1    0.0000
     47 H11        1.3591    7.1072    3.2378 H         1 RES1    0.0000
     48 H12        2.4260    6.3210    2.2082 H         1 RES1    0.0000
     49 H13        3.3760    6.1051    8.6539 H         1 RES1    0.0000
     50 H14        1.8767    6.5214    8.4450 H         1 RES1    0.0000
     51 H15        3.0246    7.0764    7.4752 H         1 RES1    0.0000
     52 H16       -0.6534    5.9047    0.2387 H         1 RES1    0.0000
     53 H17       -0.3825    6.8606    1.2981 H         1 RES1    0.0000
     54 H18        0.8460    6.3981    0.4327 H         1 RES1    0.0000
     55 H19       -6.4330    6.2439    2.8200 H         2 RES2    0.0000
     56 H20       -7.0596    4.3013    4.0882 H         2 RES2    0.0000
     57 H21       -1.9055    3.9159   -3.2974 H         2 RES2    0.0000
     58 H22       -2.2294    5.9664   -2.0590 H         2 RES2    0.0000
     59 H23       -3.4746    7.2152   -0.5371 H         2 RES2    0.0000
     60 H24       -5.1638    7.3077    1.2086 H         2 RES2    0.0000
     61 H25       -3.3713    1.8038    1.1190 H         2 RES2    0.0000
     62 H26       -4.5738    0.8634    1.6413 H         2 RES2    0.0000
     63 H27       -3.5818    1.4954    2.7305 H         2 RES2    0.0000
     64 H28       -5.7457    1.8963   -0.2536 H         2 RES2    0.0000
     65 H29       -4.6477    0.8017   -0.8057 H         2 RES2    0.0000
     66 H30       -5.5464    1.6034   -1.9247 H         2 RES2    0.0000
     67 H31       -6.6334    2.0659    4.6254 H         2 RES2    0.0000
     68 H32       -6.1122    0.9713    3.4466 H         2 RES2    0.0000
     69 H33       -5.1890    1.5571    4.4165 H         2 RES2    0.0000
     70 H34       -2.3331    1.7730   -3.6705 H         2 RES2    0.0000
     71 H35       -2.8537    0.8634   -2.5663 H         2 RES2    0.0000
     72 H36       -3.8690    1.4954   -3.6555 H         2 RES2    0.0000
@<TRIPOS>BOND
     1    1    2 ar
     2    2    3 ar
     3    3    4 ar
     4    4    5 ar
     5    5    6 ar
     6    6    7 ar
     7    7    8 ar
     8    8    9 ar
     9    9   10 ar
    10   10   11 ar
    11   11    6 ar
    12   12   11 ar
    13   13   12 ar
    14   14    1 ar
    15   15    4 1
    16   16    7 1
    17   17    3 1
    18   18    8 1
    19   19   20 ar
    20   20   21 ar
    21   21   22 ar
    22   22   23 ar
    23   23   24 ar
    24   24   25 ar
    25   25   26 ar
    26   26   27 ar
    27   27   28 ar
    28   28   29 ar
    29   29   24 ar
    30   30   29 ar
    31   31   30 ar
    32   32   19 ar
    33   33   22 1
    34   34   25 1
    35   35   21 1
    36   36   26 1
    37   37    1 1
    38   38    2 1
    39   39    9 1
    40   40   10 1
    41   41   12 1
    42   42   13 1
    43   43   15 1
    44   44   15 1
    45   45   15 1
    46   46   16 1
    47   47   16 1
    48   48   16 1
    49   49   17 1
    50   50   17 1
    51   51   17 1
    52   52   18 1
    53   53   18 1
    54   54   18 1
    55   55   19 1
    56   56   20 1
    57   57   27 1
    58   58   28 1
    59   59   30 1
    60   60   31 1
    61   61   33 1
    62   62   33 1
    63   63   33 1
    64   64   34 1
    65   65   34 1
    66   66   34 1
    67   67   35 1
    68   68   35 1
    69   69   35 1
    70   70   36 1
    71   71   36 1
    72   72   36 1
    73    5   14 ar
    74   13   14 ar
    75   23   32 ar
    76   31   32 ar
@<TRIPOS>SUBSTRUCTURE
     1 RES1 1
     2 RES2 19

@<TRIPOS>CRYSIN
  11.6350   15.4170   14.9210  90.0000  90.4500  90.0000  14 1

