# MOL2 file generated by ConQuest
# Please check atom types

@<TRIPOS>MOLECULE
FEWWEJ02
    30    32     1
SMALL
NO_CHARGES
****
Generated from CSD

@<TRIPOS>ATOM
      1 C1         2.4353    7.9511    6.9950 C.ar      1 RES1    0.0000
      2 C2         3.6705    8.3968    6.6692 C.ar      1 RES1    0.0000
      3 C3         4.1214    8.2532    5.3835 C.ar      1 RES1    0.0000
      4 C4         3.2893    7.8033    4.3539 C.ar      1 RES1    0.0000
      5 C5         1.9242    7.5450    4.6377 C.ar      1 RES1    0.0000
      6 C6         0.9072    7.2198    3.6239 C.ar      1 RES1    0.0000
      7 C7         0.8969    7.7002    2.3137 C.ar      1 RES1    0.0000
      8 C8        -0.0431    7.1909    1.4125 C.ar      1 RES1    0.0000
      9 H1         2.1090    8.3448    7.8550 H         1 RES1    0.0000
     10 H2         4.3485    8.7410    7.3477 H         1 RES1    0.0000
     11 H3         4.9295    8.6832    5.1045 H         1 RES1    0.0000
     12 H4         0.0122    7.6680    0.5945 H         1 RES1    0.0000
     13 H5        -1.5904    5.6622    1.3237 H         1 RES1    0.0000
     14 H6        -1.8093    5.1670    3.4717 H         1 RES1    0.0000
     15 H7        -1.2536    5.4476    5.6277 H         1 RES1    0.0000
     16 C9        -0.9996    6.2640    1.8230 C.ar      1 RES1    0.0000
     17 C10       -1.1134    5.9379    3.1142 C.ar      1 RES1    0.0000
     18 C11       -0.2073    6.4307    4.0646 C.ar      1 RES1    0.0000
     19 C12       -0.4461    6.2367    5.4525 C.ar      1 RES1    0.0000
     20 C13        0.3143    6.8327    6.3640 C.ar      1 RES1    0.0000
     21 C14        1.5474    7.5054    6.0065 C.ar      1 RES1    0.0000
     22 C15        3.9615    7.4410    3.0477 C.3       1 RES1    0.0000
     23 C16        1.6627    8.9118    1.8270 C.3       1 RES1    0.0000
     24 H8         0.1145    6.6115    7.2605 H         1 RES1    0.0000
     25 H9         3.5217    6.5784    2.4413 H         1 RES1    0.0000
     26 H10        4.3635    8.3530    2.5681 H         1 RES1    0.0000
     27 H11        4.5111    6.8508    3.3687 H         1 RES1    0.0000
     28 H12        2.3117    9.5334    2.4017 H         1 RES1    0.0000
     29 H13        2.2399    8.9721    1.2524 H         1 RES1    0.0000
     30 H14        1.3220    9.5499    2.0529 H         1 RES1    0.0000
@<TRIPOS>BOND
     1    1    2 ar
     2    2    3 ar
     3    3    4 ar
     4    4    5 ar
     5    5    6 ar
     6    6    7 ar
     7    7    8 ar
     8    8   12 1
     9    9    1 1
    10   10    2 1
    11   11    3 1
    12   13   16 1
    13   14   17 1
    14   15   19 1
    15   16    8 ar
    16   17   16 ar
    17   18    6 ar
    18   19   18 ar
    19   20   19 ar
    20   21    1 ar
    21   22    4 1
    22   23    7 1
    23   24   20 1
    24   25   22 1
    25   26   22 1
    26   27   22 1
    27   28   23 1
    28   29   23 1
    29   30   23 1
    30    5   21 ar
    31   17   18 ar
    32   20   21 ar
@<TRIPOS>SUBSTRUCTURE
     1 RES1 1

@<TRIPOS>CRYSIN
   8.7330    8.2540    8.3160  90.0000 107.6100  90.0000   4 1

