# MOL2 file generated by ConQuest
# Please check atom types

@<TRIPOS>MOLECULE
FEWWEJ01
    30    32     1
SMALL
NO_CHARGES
****
Generated from CSD

@<TRIPOS>ATOM
      1 C1         5.7264    4.4908    2.0156 C.3       1 RES1    0.0000
      2 C2         5.0786    3.3025    2.6149 C.ar      1 RES1    0.0000
      3 C3         5.6237    2.7849    3.7769 C.ar      1 RES1    0.0000
      4 C4         4.9609    1.8707    4.5805 C.ar      1 RES1    0.0000
      5 C5         3.6884    1.5403    4.2787 C.ar      1 RES1    0.0000
      6 C6         3.0759    2.0255    3.1300 C.ar      1 RES1    0.0000
      7 C7         3.7984    2.8097    2.2040 C.ar      1 RES1    0.0000
      8 C8         1.6554    1.8434    2.9225 C.ar      1 RES1    0.0000
      9 C9         5.2838    3.0408   -0.5402 C.3       1 RES1    0.0000
     10 C10        3.8488    3.3902   -0.2884 C.ar      1 RES1    0.0000
     11 C11        3.1033    3.8349   -1.3771 C.ar      1 RES1    0.0000
     12 C12        1.7338    3.9707   -1.3420 C.ar      1 RES1    0.0000
     13 C13        1.0523    3.5633   -0.2542 C.ar      1 RES1    0.0000
     14 C14        1.7475    3.1012    0.8777 C.ar      1 RES1    0.0000
     15 C15        3.1526    3.1451    0.9294 C.ar      1 RES1    0.0000
     16 C16        1.0051    2.4636    1.9372 C.ar      1 RES1    0.0000
     17 H1         5.2625    4.8858    1.2920 H         1 RES1    0.0000
     18 H2         6.6645    4.2978    1.5921 H         1 RES1    0.0000
     19 H3         5.8946    5.0680    2.7591 H         1 RES1    0.0000
     20 H4         6.7126    3.1551    4.0595 H         1 RES1    0.0000
     21 H5         5.2466    1.4989    5.4015 H         1 RES1    0.0000
     22 H6         3.0863    0.8861    5.0014 H         1 RES1    0.0000
     23 H7         1.0938    1.3995    3.6010 H         1 RES1    0.0000
     24 H8         5.7700    2.5754    0.1917 H         1 RES1    0.0000
     25 H9         5.8866    3.9169   -0.7252 H         1 RES1    0.0000
     26 H10        5.4624    2.5340   -1.4587 H         1 RES1    0.0000
     27 H11        3.5338    3.9418   -2.1173 H         1 RES1    0.0000
     28 H12        1.2419    4.2647   -2.2340 H         1 RES1    0.0000
     29 H13       -0.0261    3.5360   -0.2584 H         1 RES1    0.0000
     30 H14        0.0028    2.4015    1.8505 H         1 RES1    0.0000
@<TRIPOS>BOND
     1    1    2 1
     2    2    3 ar
     3    3    4 ar
     4    4    5 ar
     5    5    6 ar
     6    6    7 ar
     7    7    2 ar
     8    8    6 ar
     9    9   10 1
    10   10   11 ar
    11   11   12 ar
    12   12   13 ar
    13   13   14 ar
    14   14   15 ar
    15   15    7 ar
    16   16    8 ar
    17   17    1 1
    18   18    1 1
    19   19    1 1
    20   20    3 1
    21   21    4 1
    22   22    5 1
    23   23    8 1
    24   24    9 1
    25   25    9 1
    26   26    9 1
    27   27   11 1
    28   28   12 1
    29   29   13 1
    30   30   16 1
    31   10   15 ar
    32   14   16 ar
@<TRIPOS>SUBSTRUCTURE
     1 RES1 1

@<TRIPOS>CRYSIN
   8.3180    8.2810    8.7460  90.0000 107.6200  90.0000   4 1

