# MOL2 file generated by ConQuest
# Please check atom types

@<TRIPOS>MOLECULE
FIBBOI
    62    68     1
SMALL
NO_CHARGES
****
Generated from CSD

@<TRIPOS>ATOM
      1 C1        -0.6252    3.9557    5.1016 C.ar      1 RES1    0.0000
      2 C2        -1.7473    4.0407    5.8808 C.ar      1 RES1    0.0000
      3 H1        -2.6034    4.1345    5.4809 H         1 RES1    0.0000
      4 C3        -1.6145    3.9860    7.2884 C.ar      1 RES1    0.0000
      5 H2        -2.3948    4.0461    7.8263 H         1 RES1    0.0000
      6 C4        -0.3947    3.8488    7.8988 C.ar      1 RES1    0.0000
      7 H3        -0.3403    3.8309    8.8480 H         1 RES1    0.0000
      8 C5         2.1140    3.5940    7.5974 C.ar      1 RES1    0.0000
      9 H4         2.2814    3.5685    8.5327 H         1 RES1    0.0000
     10 C6         3.1531    3.4961    6.7141 C.ar      1 RES1    0.0000
     11 H5         4.0360    3.4117    7.0552 H         1 RES1    0.0000
     12 C7         2.9619    3.5151    5.3097 C.ar      1 RES1    0.0000
     13 H6         3.7026    3.4445    4.7193 H         1 RES1    0.0000
     14 C8         1.6846    3.6365    4.8211 C.ar      1 RES1    0.0000
     15 C9         0.6206    3.7740    5.7253 C.ar      1 RES1    0.0000
     16 C10        0.7879    3.7329    7.1219 C.ar      1 RES1    0.0000
     17 C11       -0.9552    5.2903    2.9385 C.ar      1 RES1    0.0000
     18 C12       -1.4496    6.3424    3.6995 C.ar      1 RES1    0.0000
     19 H7        -1.5116    6.2460    4.6433 H         1 RES1    0.0000
     20 C13       -1.8561    7.5330    3.1073 C.ar      1 RES1    0.0000
     21 H8        -2.1821    8.2434    3.6463 H         1 RES1    0.0000
     22 C14       -1.7877    7.6852    1.7367 C.ar      1 RES1    0.0000
     23 H9        -2.0595    8.5000    1.3313 H         1 RES1    0.0000
     24 C15       -1.3209    6.6458    0.9610 C.ar      1 RES1    0.0000
     25 H10       -1.2895    6.7350    0.0152 H         1 RES1    0.0000
     26 C16       -0.9000    5.4755    1.5590 C.ar      1 RES1    0.0000
     27 H11       -0.5621    4.7747    1.0141 H         1 RES1    0.0000
     28 C17       -1.3441    2.7757    3.0853 C.ar      1 RES1    0.0000
     29 C18       -2.4761    2.9188    2.2960 C.ar      1 RES1    0.0000
     30 H12       -2.7210    3.7824    1.9846 H         1 RES1    0.0000
     31 C19       -3.2592    1.8208    1.9502 C.ar      1 RES1    0.0000
     32 H13       -4.0417    1.9447    1.4262 H         1 RES1    0.0000
     33 C20       -2.9031    0.5526    2.3650 C.ar      1 RES1    0.0000
     34 H14       -3.4111   -0.2024    2.0928 H         1 RES1    0.0000
     35 C21       -1.7975    0.3971    3.1825 C.ar      1 RES1    0.0000
     36 H15       -1.5509   -0.4691    3.4849 H         1 RES1    0.0000
     37 C22       -1.0544    1.4893    3.5593 C.ar      1 RES1    0.0000
     38 H16       -0.3248    1.3687    4.1572 H         1 RES1    0.0000
     39 C23        1.9491    4.9540    2.7816 C.ar      1 RES1    0.0000
     40 C24        1.8094    6.2028    3.4032 C.ar      1 RES1    0.0000
     41 H17        1.2042    6.2973    4.1287 H         1 RES1    0.0000
     42 C25        2.5356    7.2966    2.9795 C.ar      1 RES1    0.0000
     43 H18        2.3900    8.1450    3.3823 H         1 RES1    0.0000
     44 C26        3.4675    7.1676    1.9777 C.ar      1 RES1    0.0000
     45 H19        3.9710    7.9212    1.6921 H         1 RES1    0.0000
     46 C27        3.6671    5.9343    1.3905 C.ar      1 RES1    0.0000
     47 H20        4.3336    5.8311    0.7217 H         1 RES1    0.0000
     48 C28        2.8986    4.8438    1.7713 C.ar      1 RES1    0.0000
     49 H21        3.0228    4.0091    1.3351 H         1 RES1    0.0000
     50 C29        1.4951    2.4640    2.5507 C.ar      1 RES1    0.0000
     51 C30        2.1395    1.3563    3.0925 C.ar      1 RES1    0.0000
     52 H22        2.4513    1.3929    3.9900 H         1 RES1    0.0000
     53 C31        2.3356    0.1996    2.3522 C.ar      1 RES1    0.0000
     54 H23        2.7644   -0.5475    2.7518 H         1 RES1    0.0000
     55 C32        1.9158    0.1253    1.0476 C.ar      1 RES1    0.0000
     56 H24        2.0491   -0.6701    0.5450 H         1 RES1    0.0000
     57 C33        1.2974    1.2190    0.4723 C.ar      1 RES1    0.0000
     58 H25        1.0174    1.1848   -0.4349 H         1 RES1    0.0000
     59 C34        1.0875    2.3647    1.2200 C.ar      1 RES1    0.0000
     60 H26        0.6530    3.1052    0.8147 H         1 RES1    0.0000
     61 C35       -0.4811    3.9626    3.5677 C.3       1 RES1    0.0000
     62 C36        1.1926    3.7311    3.3639 C.3       1 RES1    0.0000
@<TRIPOS>BOND
     1    1    2 ar
     2    2    3 1
     3    4    2 ar
     4    5    4 1
     5    6    4 ar
     6    7    6 1
     7    8    9 1
     8   10    8 ar
     9   11   10 1
    10   12   10 ar
    11   13   12 1
    12   14   12 ar
    13   15    1 ar
    14   16    6 ar
    15   17   18 ar
    16   18   19 1
    17   20   18 ar
    18   21   20 1
    19   22   20 ar
    20   23   22 1
    21   24   22 ar
    22   25   24 1
    23   26   17 ar
    24   27   26 1
    25   28   29 ar
    26   29   30 1
    27   31   29 ar
    28   32   31 1
    29   33   31 ar
    30   34   33 1
    31   35   33 ar
    32   36   35 1
    33   37   28 ar
    34   38   37 1
    35   39   40 ar
    36   40   41 1
    37   42   40 ar
    38   43   42 1
    39   44   42 ar
    40   45   44 1
    41   46   44 ar
    42   47   46 1
    43   48   39 ar
    44   49   48 1
    45   50   51 ar
    46   51   52 1
    47   53   51 ar
    48   54   53 1
    49   55   53 ar
    50   56   55 1
    51   57   55 ar
    52   58   57 1
    53   59   50 ar
    54   60   59 1
    55   61    1 1
    56   62   14 1
    57    8   16 ar
    58   14   15 ar
    59   15   16 ar
    60   17   61 1
    61   24   26 ar
    62   28   61 1
    63   35   37 ar
    64   39   62 1
    65   46   48 ar
    66   50   62 1
    67   57   59 ar
    68   61   62 1
@<TRIPOS>SUBSTRUCTURE
     1 RES1 1

@<TRIPOS>CRYSIN
   8.7920   14.2570   19.0810  90.0000  95.5620  90.0000 231 1

