# MOL2 file generated by ConQuest
# Please check atom types

@<TRIPOS>MOLECULE
FIBXUM
    84    98     2
SMALL
NO_CHARGES
****
Generated from CSD

@<TRIPOS>ATOM
      1 C1         8.0569    0.1373    4.7512 C.ar      1 RES1    0.0000
      2 C2         6.8010    0.0770    4.2339 C.ar      1 RES1    0.0000
      3 H1         6.7013   -0.2116    3.3348 H         1 RES1    0.0000
      4 C3         5.6582    0.4119    4.9431 C.ar      1 RES1    0.0000
      5 C4         4.3610    0.3065    4.4004 C.ar      1 RES1    0.0000
      6 H2         4.2543   -0.0336    3.5194 H         1 RES1    0.0000
      7 C5         3.2620    0.6792    5.1035 C.ar      1 RES1    0.0000
      8 H3         2.3997    0.6146    4.7092 H         1 RES1    0.0000
      9 C6         3.4038    1.1666    6.4319 C.ar      1 RES1    0.0000
     10 H4         2.6374    1.4268    6.9282 H         1 RES1    0.0000
     11 C7         4.6371    1.2589    6.9866 C.ar      1 RES1    0.0000
     12 H5         4.7220    1.5816    7.8756 H         1 RES1    0.0000
     13 C8         5.7881    0.8906    6.2835 C.ar      1 RES1    0.0000
     14 C9         7.0723    0.9603    6.8232 C.ar      1 RES1    0.0000
     15 H6         7.1671    1.2858    7.7104 H         1 RES1    0.0000
     16 C10        8.2027    0.5891    6.1530 C.ar      1 RES1    0.0000
     17 C11        9.5437    0.6312    6.7722 C.ar      1 RES1    0.0000
     18 C12        9.9815    1.3664    7.9327 C.ar      1 RES1    0.0000
     19 H7         9.3352    1.7235    8.5296 H         1 RES1    0.0000
     20 C13       11.3279    1.5610    8.1935 C.ar      1 RES1    0.0000
     21 H8        11.5788    2.0412    8.9734 H         1 RES1    0.0000
     22 C14       12.3568    1.0642    7.3284 C.ar      1 RES1    0.0000
     23 C15       13.7032    1.5138    7.1560 C.ar      1 RES1    0.0000
     24 H9        14.1259    1.9870    7.8638 H         1 RES1    0.0000
     25 C16       14.4103    1.2785    5.9836 C.ar      1 RES1    0.0000
     26 H10       15.3064    1.5848    5.9127 H         1 RES1    0.0000
     27 C17       13.8139    0.5804    4.8681 C.ar      1 RES1    0.0000
     28 C18       14.1693    0.6225    3.4603 C.ar      1 RES1    0.0000
     29 H11       15.0411    0.8983    3.2026 H         1 RES1    0.0000
     30 C19       13.2457    0.2630    2.4888 C.ar      1 RES1    0.0000
     31 H12       13.5136    0.3022    1.5778 H         1 RES1    0.0000
     32 C20       11.9119   -0.1634    2.7842 C.ar      1 RES1    0.0000
     33 C21       10.7199   -0.1961    2.0090 C.ar      1 RES1    0.0000
     34 H13       10.8039   -0.2170    1.0625 H         1 RES1    0.0000
     35 C22        9.4678   -0.2005    2.5383 C.ar      1 RES1    0.0000
     36 H14        8.7145   -0.2036    1.9597 H         1 RES1    0.0000
     37 C23        9.2671   -0.1998    3.9791 C.ar      1 RES1    0.0000
     38 C24       10.4035   -0.3545    4.6897 C.ar      1 RES1    0.0000
     39 C25       10.5309    0.0254    6.0721 C.ar      1 RES1    0.0000
     40 C26       11.8888    0.2412    6.3239 C.ar      1 RES1    0.0000
     41 C27       12.6131    0.0051    5.1335 C.ar      1 RES1    0.0000
     42 C28       11.6794   -0.3617    4.1365 C.ar      1 RES1    0.0000
     43 C29        8.0544    4.1078    1.5652 C.ar      2 RES2    0.0000
     44 C30        6.8232    4.5313    1.1574 C.ar      2 RES2    0.0000
     45 H15        6.7381    4.8681    0.2726 H         2 RES2    0.0000
     46 C31        5.6721    4.5000    1.9670 C.ar      2 RES2    0.0000
     47 C32        4.4108    4.9010    1.5278 C.ar      2 RES2    0.0000
     48 H16        4.3251    5.2717    0.6569 H         2 RES2    0.0000
     49 C33        3.3051    4.7804    2.2954 C.ar      2 RES2    0.0000
     50 H17        2.4578    5.0539    1.9644 H         2 RES2    0.0000
     51 C34        3.4228    4.2414    3.6028 C.ar      2 RES2    0.0000
     52 H18        2.6514    4.1422    4.1470 H         2 RES2    0.0000
     53 C35        4.6388    3.8681    4.0720 C.ar      2 RES2    0.0000
     54 H19        4.7036    3.5187    4.9537 H         2 RES2    0.0000
     55 C36        5.7996    3.9814    3.3029 C.ar      2 RES2    0.0000
     56 C37        7.0691    3.6146    3.7482 C.ar      2 RES2    0.0000
     57 H20        7.1540    3.2987    4.6405 H         2 RES2    0.0000
     58 C38        8.2044    3.6799    2.9806 C.ar      2 RES2    0.0000
     59 C39        9.5400    3.3756    3.5023 C.ar      2 RES2    0.0000
     60 C40       10.0282    3.4322    4.8621 C.ar      2 RES2    0.0000
     61 H21        9.4038    3.4162    5.5782 H         2 RES2    0.0000
     62 C41       11.3630    3.5092    5.1440 C.ar      2 RES2    0.0000
     63 H22       11.6312    3.5435    6.0548 H         2 RES2    0.0000
     64 C42       12.3675    3.5412    4.1440 C.ar      2 RES2    0.0000
     65 C43       13.7079    4.0177    4.1710 C.ar      2 RES2    0.0000
     66 H23       14.1415    4.0972    5.0121 H         2 RES2    0.0000
     67 C44       14.4115    4.3715    3.0375 C.ar      2 RES2    0.0000
     68 H24       15.3102    4.6715    3.1164 H         2 RES2    0.0000
     69 C45       13.7909    4.2894    1.7152 C.ar      2 RES2    0.0000
     70 C46       14.1425    4.9817    0.5008 C.ar      2 RES2    0.0000
     71 H25       15.0218    5.3257    0.3907 H         2 RES2    0.0000
     72 C47       13.2035    5.1494   -0.5128 C.ar      2 RES2    0.0000
     73 H26       13.4665    5.6062   -1.3027 H         2 RES2    0.0000
     74 C48       11.8580    4.6642   -0.4183 C.ar      2 RES2    0.0000
     75 C49       10.6624    5.0666   -1.0825 C.ar      2 RES2    0.0000
     76 H27       10.7324    5.5169   -1.9160 H         2 RES2    0.0000
     77 C50        9.4103    4.8298   -0.5652 C.ar      2 RES2    0.0000
     78 H28        8.6481    5.1319   -1.0451 H         2 RES2    0.0000
     79 C51        9.2181    4.1332    0.6912 C.ar      2 RES2    0.0000
     80 C52       10.3626    3.6102    1.1859 C.ar      2 RES2    0.0000
     81 C53       10.5099    3.2376    2.5758 C.ar      2 RES2    0.0000
     82 C54       11.8699    3.2986    2.8696 C.ar      2 RES2    0.0000
     83 C55       12.5863    3.6807    1.7062 C.ar      2 RES2    0.0000
     84 C56       11.6336    3.8456    0.6717 C.ar      2 RES2    0.0000
@<TRIPOS>BOND
     1    1    2 ar
     2    2    3 1
     3    4    2 ar
     4    5    4 ar
     5    6    5 1
     6    7    5 ar
     7    8    7 1
     8    9    7 ar
     9   10    9 1
    10   11    9 ar
    11   12   11 1
    12   13    4 ar
    13   14   13 ar
    14   15   14 1
    15   16    1 ar
    16   17   16 ar
    17   18   17 ar
    18   19   18 1
    19   20   18 ar
    20   21   20 1
    21   22   20 ar
    22   23   22 ar
    23   24   23 1
    24   25   23 ar
    25   26   25 1
    26   27   25 ar
    27   28   27 ar
    28   29   28 1
    29   30   28 ar
    30   31   30 1
    31   32   30 ar
    32   33   32 ar
    33   34   33 1
    34   35   33 ar
    35   36   35 1
    36   37    1 ar
    37   38   37 ar
    38   39   17 ar
    39   40   22 ar
    40   41   27 ar
    41   42   32 ar
    42   43   44 ar
    43   44   45 1
    44   46   44 ar
    45   47   46 ar
    46   48   47 1
    47   49   47 ar
    48   50   49 1
    49   51   49 ar
    50   52   51 1
    51   53   51 ar
    52   54   53 1
    53   55   46 ar
    54   56   55 ar
    55   57   56 1
    56   58   43 ar
    57   59   58 ar
    58   60   59 ar
    59   61   60 1
    60   62   60 ar
    61   63   62 1
    62   64   62 ar
    63   65   64 ar
    64   66   65 1
    65   67   65 ar
    66   68   67 1
    67   69   67 ar
    68   70   69 ar
    69   71   70 1
    70   72   70 ar
    71   73   72 1
    72   74   72 ar
    73   75   74 ar
    74   76   75 1
    75   77   75 ar
    76   78   77 1
    77   79   43 ar
    78   80   79 ar
    79   81   59 ar
    80   82   64 ar
    81   83   69 ar
    82   84   74 ar
    83   11   13 ar
    84   14   16 ar
    85   35   37 ar
    86   38   39 ar
    87   38   42 ar
    88   39   40 ar
    89   40   41 ar
    90   41   42 ar
    91   53   55 ar
    92   56   58 ar
    93   77   79 ar
    94   80   81 ar
    95   80   84 ar
    96   81   82 ar
    97   82   83 ar
    98   83   84 ar
@<TRIPOS>SUBSTRUCTURE
     1 RES1 1
     2 RES2 43

@<TRIPOS>CRYSIN
  14.8490    7.2640   15.1130  90.0000  97.2330  90.0000   4 1

