# MOL2 file generated by ConQuest
# Please check atom types

@<TRIPOS>MOLECULE
FIJMUI
   108   122     2
SMALL
NO_CHARGES
****
Generated from CSD

@<TRIPOS>ATOM
      1 C1        11.2366    9.9614    3.5561 C.ar      1 RES1    0.0000
      2 H1        10.8092   10.7568    3.8500 H         1 RES1    0.0000
      3 C2        12.4300   10.0462    2.8889 C.ar      1 RES1    0.0000
      4 H2        12.8276   10.8966    2.7429 H         1 RES1    0.0000
      5 C3        13.0719    8.8870    2.4185 C.ar      1 RES1    0.0000
      6 H3        13.8731    8.9562    1.9129 H         1 RES1    0.0000
      7 C4        12.5357    7.6592    2.6937 C.ar      1 RES1    0.0000
      8 H4        12.9770    6.8761    2.3867 H         1 RES1    0.0000
      9 C5        11.3339    7.5384    3.4287 C.ar      1 RES1    0.0000
     10 C6        10.8392    6.2652    3.8332 C.ar      1 RES1    0.0000
     11 H5        11.2607    5.4754    3.5164 H         1 RES1    0.0000
     12 C7         9.7742    6.1693    4.6642 C.ar      1 RES1    0.0000
     13 H6         9.5057    5.3131    4.9765 H         1 RES1    0.0000
     14 C8         9.0453    7.3230    5.0811 C.ar      1 RES1    0.0000
     15 C9         8.0480    7.2384    6.1428 C.ar      1 RES1    0.0000
     16 C10        7.6888    6.0073    6.7368 C.ar      1 RES1    0.0000
     17 H7         8.0102    5.1954    6.3624 H         1 RES1    0.0000
     18 C11        6.8807    5.9670    7.8472 C.ar      1 RES1    0.0000
     19 H8         6.6465    5.1311    8.2318 H         1 RES1    0.0000
     20 C12        6.4029    7.1481    8.4110 C.ar      1 RES1    0.0000
     21 H9         5.8636    7.1170    9.1923 H         1 RES1    0.0000
     22 C13        6.7116    8.3595    7.8352 C.ar      1 RES1    0.0000
     23 H10        6.3749    9.1595    8.2206 H         1 RES1    0.0000
     24 C14        7.5196    8.4302    6.6825 C.ar      1 RES1    0.0000
     25 C15        7.7334    9.6884    5.9745 C.ar      1 RES1    0.0000
     26 C16        7.1265   10.8932    6.3998 C.ar      1 RES1    0.0000
     27 H11        6.6232   10.9029    7.2053 H         1 RES1    0.0000
     28 C17        7.2501   12.0401    5.6735 C.ar      1 RES1    0.0000
     29 H12        6.9438   12.8606    6.0417 H         1 RES1    0.0000
     30 C18        7.8258   12.0296    4.3836 C.ar      1 RES1    0.0000
     31 C19        7.8720   13.2411    3.5657 C.ar      1 RES1    0.0000
     32 C20        7.5111   14.5007    4.0937 C.ar      1 RES1    0.0000
     33 H13        7.1944   14.5578    4.9878 H         1 RES1    0.0000
     34 C21        7.6104   15.6480    3.3369 C.ar      1 RES1    0.0000
     35 H14        7.3476   16.4837    3.7034 H         1 RES1    0.0000
     36 C22        8.0951   15.5801    2.0365 C.ar      1 RES1    0.0000
     37 H15        8.1821   16.3728    1.5213 H         1 RES1    0.0000
     38 C23        8.4493   14.3658    1.4936 C.ar      1 RES1    0.0000
     39 H16        8.7855   14.3310    0.6059 H         1 RES1    0.0000
     40 C24        8.3202   13.1708    2.2339 C.ar      1 RES1    0.0000
     41 C25        8.5381   11.8596    1.6264 C.ar      1 RES1    0.0000
     42 C26        8.6442   11.7181    0.2296 C.ar      1 RES1    0.0000
     43 H17        8.6794   12.4978   -0.3110 H         1 RES1    0.0000
     44 C27        8.6994   10.4849   -0.3721 C.ar      1 RES1    0.0000
     45 H18        8.7890   10.4155   -1.3150 H         1 RES1    0.0000
     46 C28        8.6232    9.3346    0.4164 C.ar      1 RES1    0.0000
     47 H19        8.6309    8.4773    0.0064 H         1 RES1    0.0000
     48 C29        8.5373    9.4403    1.7837 C.ar      1 RES1    0.0000
     49 H20        8.4830    8.6494    2.3077 H         1 RES1    0.0000
     50 C30        8.5277   10.6971    2.4312 C.ar      1 RES1    0.0000
     51 C31        8.3362   10.8167    3.8834 C.ar      1 RES1    0.0000
     52 C32        8.4894    9.7026    4.7849 C.ar      1 RES1    0.0000
     53 C33        9.3735    8.5684    4.5307 C.ar      1 RES1    0.0000
     54 C34       10.6252    8.7048    3.8158 C.ar      1 RES1    0.0000
     55 C35       10.7533    2.5081    6.0570 C.ar      2 RES2    0.0000
     56 H21       11.0074    2.6598    5.1538 H         2 RES2    0.0000
     57 C36       10.7625    3.5550    6.9457 C.ar      2 RES2    0.0000
     58 H22       11.0501    4.4128    6.6573 H         2 RES2    0.0000
     59 C37       10.3519    3.3731    8.2745 C.ar      2 RES2    0.0000
     60 H23       10.2918    4.1171    8.8620 H         2 RES2    0.0000
     61 C38       10.0387    2.1207    8.7168 C.ar      2 RES2    0.0000
     62 H24        9.7783    1.9932    9.6210 H         2 RES2    0.0000
     63 C39       10.0978    1.0093    7.8423 C.ar      2 RES2    0.0000
     64 C40        9.9331   -0.3109    8.3395 C.ar      2 RES2    0.0000
     65 H25        9.7184   -0.4425    9.2552 H         2 RES2    0.0000
     66 C41       10.0787   -1.3835    7.5268 C.ar      2 RES2    0.0000
     67 H26       10.0241   -2.2572    7.8950 H         2 RES2    0.0000
     68 C42       10.3117   -1.2269    6.1273 C.ar      2 RES2    0.0000
     69 C43       10.6460   -2.3838    5.3056 C.ar      2 RES2    0.0000
     70 C44       10.4754   -3.7066    5.7616 C.ar      2 RES2    0.0000
     71 H27       10.0101   -3.8641    6.5752 H         2 RES2    0.0000
     72 C45       10.9711   -4.7726    5.0497 C.ar      2 RES2    0.0000
     73 H28       10.8399   -5.6590    5.3665 H         2 RES2    0.0000
     74 C46       11.6651   -4.5524    3.8661 C.ar      2 RES2    0.0000
     75 H29       12.0427   -5.2864    3.3956 H         2 RES2    0.0000
     76 C47       11.8068   -3.2754    3.3712 C.ar      2 RES2    0.0000
     77 H30       12.2746   -3.1388    2.5559 H         2 RES2    0.0000
     78 C48       11.2676   -2.1682    4.0566 C.ar      2 RES2    0.0000
     79 C49       11.2054   -0.8417    3.4502 C.ar      2 RES2    0.0000
     80 C50       11.7167   -0.5912    2.1579 C.ar      2 RES2    0.0000
     81 H31       12.1668   -1.2840    1.6889 H         2 RES2    0.0000
     82 C51       11.5734    0.6335    1.5726 C.ar      2 RES2    0.0000
     83 H32       12.0493    0.8309    0.7735 H         2 RES2    0.0000
     84 C52       10.7256    1.6128    2.1398 C.ar      2 RES2    0.0000
     85 C53       10.5063    2.9002    1.4828 C.ar      2 RES2    0.0000
     86 C54       11.3640    3.3434    0.4575 C.ar      2 RES2    0.0000
     87 H33       12.0727    2.7814    0.1660 H         2 RES2    0.0000
     88 C55       11.1946    4.5761   -0.1297 C.ar      2 RES2    0.0000
     89 H34       11.7850    4.8585   -0.8187 H         2 RES2    0.0000
     90 C56       10.1609    5.4105    0.2848 C.ar      2 RES2    0.0000
     91 H35       10.0394    6.2580   -0.1257 H         2 RES2    0.0000
     92 C57        9.3155    5.0040    1.2907 C.ar      2 RES2    0.0000
     93 H36        8.6165    5.5818    1.5729 H         2 RES2    0.0000
     94 C58        9.4659    3.7465    1.9132 C.ar      2 RES2    0.0000
     95 C59        8.5655    3.2748    2.9612 C.ar      2 RES2    0.0000
     96 C60        7.3486    3.9320    3.2297 C.ar      2 RES2    0.0000
     97 H37        7.1434    4.7326    2.7622 H         2 RES2    0.0000
     98 C61        6.4528    3.4480    4.1469 C.ar      2 RES2    0.0000
     99 H38        5.6464    3.9201    4.3206 H         2 RES2    0.0000
    100 C62        6.7289    2.2591    4.8255 C.ar      2 RES2    0.0000
    101 H39        6.1001    1.9045    5.4422 H         2 RES2    0.0000
    102 C63        7.9184    1.6037    4.5952 C.ar      2 RES2    0.0000
    103 H40        8.0990    0.7961    5.0619 H         2 RES2    0.0000
    104 C64        8.8743    2.0986    3.6868 C.ar      2 RES2    0.0000
    105 C65       10.0813    1.3282    3.3553 C.ar      2 RES2    0.0000
    106 C66       10.5280    0.1987    4.1274 C.ar      2 RES2    0.0000
    107 C67       10.3524    0.0585    5.5697 C.ar      2 RES2    0.0000
    108 C68       10.3708    1.2041    6.4638 C.ar      2 RES2    0.0000
@<TRIPOS>BOND
     1    1    2 1
     2    3    1 ar
     3    4    3 1
     4    5    3 ar
     5    6    5 1
     6    7    5 ar
     7    8    7 1
     8    9    7 ar
     9   10    9 ar
    10   11   10 1
    11   12   10 ar
    12   13   12 1
    13   14   12 ar
    14   15   14 ar
    15   16   15 ar
    16   17   16 1
    17   18   16 ar
    18   19   18 1
    19   20   18 ar
    20   21   20 1
    21   22   20 ar
    22   23   22 1
    23   24   15 ar
    24   25   24 ar
    25   26   25 ar
    26   27   26 1
    27   28   26 ar
    28   29   28 1
    29   30   28 ar
    30   31   30 ar
    31   32   31 ar
    32   33   32 1
    33   34   32 ar
    34   35   34 1
    35   36   34 ar
    36   37   36 1
    37   38   36 ar
    38   39   38 1
    39   40   31 ar
    40   41   40 ar
    41   42   41 ar
    42   43   42 1
    43   44   42 ar
    44   45   44 1
    45   46   44 ar
    46   47   46 1
    47   48   46 ar
    48   49   48 1
    49   50   41 ar
    50   51   30 ar
    51   52   25 ar
    52   53   14 ar
    53   54    1 ar
    54   55   56 1
    55   57   55 ar
    56   58   57 1
    57   59   57 ar
    58   60   59 1
    59   61   59 ar
    60   62   61 1
    61   63   61 ar
    62   64   63 ar
    63   65   64 1
    64   66   64 ar
    65   67   66 1
    66   68   66 ar
    67   69   68 ar
    68   70   69 ar
    69   71   70 1
    70   72   70 ar
    71   73   72 1
    72   74   72 ar
    73   75   74 1
    74   76   74 ar
    75   77   76 1
    76   78   69 ar
    77   79   78 ar
    78   80   79 ar
    79   81   80 1
    80   82   80 ar
    81   83   82 1
    82   84   82 ar
    83   85   84 ar
    84   86   85 ar
    85   87   86 1
    86   88   86 ar
    87   89   88 1
    88   90   88 ar
    89   91   90 1
    90   92   90 ar
    91   93   92 1
    92   94   85 ar
    93   95   94 ar
    94   96   95 ar
    95   97   96 1
    96   98   96 ar
    97   99   98 1
    98  100   98 ar
    99  101  100 1
   100  102  100 ar
   101  103  102 1
   102  104   95 ar
   103  105   84 ar
   104  106   79 ar
   105  107   68 ar
   106  108   55 ar
   107    9   54 ar
   108   22   24 ar
   109   38   40 ar
   110   48   50 ar
   111   50   51 ar
   112   51   52 ar
   113   52   53 ar
   114   53   54 ar
   115   63  108 ar
   116   76   78 ar
   117   92   94 ar
   118  102  104 ar
   119  104  105 ar
   120  105  106 ar
   121  106  107 ar
   122  107  108 ar
@<TRIPOS>SUBSTRUCTURE
     1 RES1 1
     2 RES2 55

@<TRIPOS>CRYSIN
  11.1926   12.6210   17.0581  85.4450  71.0470  68.2080   2 1

