# MOL2 file generated by ConQuest
# Please check atom types

@<TRIPOS>MOLECULE
FLUANT01
    52    58     2
SMALL
NO_CHARGES
****
Generated from CSD

@<TRIPOS>ATOM
      1 C1         2.6891    0.4602    1.9795 C.ar      1 RES1    0.0000
      2 C2         3.7629   -0.2932    1.5031 C.ar      1 RES1    0.0000
      3 C3         3.5404   -1.4124    0.7800 C.ar      1 RES1    0.0000
      4 C4         2.1600   -1.7627    0.5177 C.ar      1 RES1    0.0000
      5 C5         1.1038   -1.0136    1.0389 C.ar      1 RES1    0.0000
      6 C6         1.3372    0.1373    1.7706 C.ar      1 RES1    0.0000
      7 C7         0.4045    1.0292    2.3522 C.ar      1 RES1    0.0000
      8 C8         0.8232    2.1465    3.0339 C.ar      1 RES1    0.0000
      9 C9         2.2025    2.4496    3.1944 C.ar      1 RES1    0.0000
     10 C10        3.1208    1.6111    2.6801 C.ar      1 RES1    0.0000
     11 C11        4.6043    1.5658    2.6128 C.ar      1 RES1    0.0000
     12 C12        5.5290    2.4471    3.1392 C.ar      1 RES1    0.0000
     13 C13        6.8780    2.1304    2.9373 C.ar      1 RES1    0.0000
     14 C14        7.2758    0.9931    2.2711 C.ar      1 RES1    0.0000
     15 C15        6.3293    0.0857    1.7448 C.ar      1 RES1    0.0000
     16 C16        5.0052    0.4124    1.9329 C.ar      1 RES1    0.0000
     17 H1         4.2746   -1.9794    0.4228 H         1 RES1    0.0000
     18 H2         1.8894   -2.6285   -0.0777 H         1 RES1    0.0000
     19 H3         0.0239   -1.3068    0.7990 H         1 RES1    0.0000
     20 H4        -0.7059    0.8534    2.1969 H         1 RES1    0.0000
     21 H5         0.0916    2.8055    3.4774 H         1 RES1    0.0000
     22 H6         2.4793    3.2825    3.7397 H         1 RES1    0.0000
     23 H7         5.2534    3.3533    3.6707 H         1 RES1    0.0000
     24 H8         7.6451    2.8415    3.3653 H         1 RES1    0.0000
     25 H9         8.3465    0.7559    2.2004 H         1 RES1    0.0000
     26 H10        6.6120   -0.7515    1.2322 H         1 RES1    0.0000
     27 C17        4.5771   -2.4378   -2.8009 C.ar      2 RES2    0.0000
     28 C18        5.3080   -1.2975   -3.1547 C.ar      2 RES2    0.0000
     29 C19        4.8184   -0.4385   -4.0918 C.ar      2 RES2    0.0000
     30 C20        3.5767   -0.7820   -4.6941 C.ar      2 RES2    0.0000
     31 C21        2.8588   -1.8745   -4.3489 C.ar      2 RES2    0.0000
     32 C22        3.3259   -2.7658   -3.3549 C.ar      2 RES2    0.0000
     33 C23        2.7300   -3.9452   -2.8458 C.ar      2 RES2    0.0000
     34 C24        3.3383   -4.7030   -1.8569 C.ar      2 RES2    0.0000
     35 C25        4.6109   -4.3347   -1.3461 C.ar      2 RES2    0.0000
     36 C26        5.2221   -3.2167   -1.8034 C.ar      2 RES2    0.0000
     37 C27        6.4826   -2.5105   -1.5014 C.ar      2 RES2    0.0000
     38 C28        7.5158   -2.7900   -0.6144 C.ar      2 RES2    0.0000
     39 C29        8.5664   -1.8534   -0.5522 C.ar      2 RES2    0.0000
     40 C30        8.6112   -0.7223   -1.3047 C.ar      2 RES2    0.0000
     41 C31        7.5694   -0.4149   -2.1900 C.ar      2 RES2    0.0000
     42 C32        6.5333   -1.3292   -2.2866 C.ar      2 RES2    0.0000
     43 H11        5.3452    0.4435   -4.3766 H         2 RES2    0.0000
     44 H12        3.1840   -0.1404   -5.4586 H         2 RES2    0.0000
     45 H13        1.8935   -2.0825   -4.8563 H         2 RES2    0.0000
     46 H14        1.7461   -4.2334   -3.2634 H         2 RES2    0.0000
     47 H15        2.8726   -5.5427   -1.5100 H         2 RES2    0.0000
     48 H16        5.0757   -4.9309   -0.5937 H         2 RES2    0.0000
     49 H17        7.5069   -3.5825   -0.0276 H         2 RES2    0.0000
     50 H18        9.4217   -2.0372    0.1605 H         2 RES2    0.0000
     51 H19        9.4962   -0.0559   -1.2305 H         2 RES2    0.0000
     52 H20        7.5998    0.4932   -2.8199 H         2 RES2    0.0000
@<TRIPOS>BOND
     1    1    2 ar
     2    2    3 ar
     3    3    4 ar
     4    4    5 ar
     5    5    6 ar
     6    6    1 ar
     7    7    6 ar
     8    8    7 ar
     9    9    8 ar
    10   10    1 ar
    11   11   10 1
    12   12   11 ar
    13   13   12 ar
    14   14   13 ar
    15   15   14 ar
    16   16    2 1
    17   17    3 1
    18   18    4 1
    19   19    5 1
    20   20    7 1
    21   21    8 1
    22   22    9 1
    23   23   12 1
    24   24   13 1
    25   25   14 1
    26   26   15 1
    27   27   28 ar
    28   28   29 ar
    29   29   30 ar
    30   30   31 ar
    31   31   32 ar
    32   32   27 ar
    33   33   32 ar
    34   34   33 ar
    35   35   34 ar
    36   36   27 ar
    37   37   36 1
    38   38   37 ar
    39   39   38 ar
    40   40   39 ar
    41   41   40 ar
    42   42   28 1
    43   43   29 1
    44   44   30 1
    45   45   31 1
    46   46   33 1
    47   47   34 1
    48   48   35 1
    49   49   38 1
    50   50   39 1
    51   51   40 1
    52   52   41 1
    53    9   10 ar
    54   11   16 ar
    55   15   16 ar
    56   35   36 ar
    57   37   42 ar
    58   41   42 ar
@<TRIPOS>SUBSTRUCTURE
     1 RES1 1
     2 RES2 27

@<TRIPOS>CRYSIN
  19.9070    6.2110   18.3490  90.0000 109.8600  90.0000 231 1

