# MOL2 file generated by ConQuest
# Please check atom types

@<TRIPOS>MOLECULE
FLUANT05
    52    58     2
SMALL
NO_CHARGES
****
Generated from CSD

@<TRIPOS>ATOM
      1 C1         2.9683    0.3481   16.1019 C.ar      1 RES1    0.0000
      2 H1         3.4503   -0.4312   16.2618 H         1 RES1    0.0000
      3 C2         2.7338    1.2643   17.1277 C.ar      1 RES1    0.0000
      4 H2         3.0662    1.0930   17.9790 H         1 RES1    0.0000
      5 C3         2.0104    2.4323   16.8953 C.ar      1 RES1    0.0000
      6 H3         1.8686    3.0297   17.5933 H         1 RES1    0.0000
      7 C4         1.4961    2.7179   15.6309 C.ar      1 RES1    0.0000
      8 H4         1.0125    3.4984   15.4792 H         1 RES1    0.0000
      9 C5         1.7221    1.8111   14.6050 C.ar      1 RES1    0.0000
     10 C6         2.4673    0.6256   14.8389 C.ar      1 RES1    0.0000
     11 C7         2.5550   -0.1181   13.5617 C.ar      1 RES1    0.0000
     12 C8         3.1765   -1.2661   13.1417 C.ar      1 RES1    0.0000
     13 H5         3.6561   -1.7930   13.7397 H         1 RES1    0.0000
     14 C9         3.0743   -1.6336   11.7771 C.ar      1 RES1    0.0000
     15 H6         3.5041   -2.4060   11.4884 H         1 RES1    0.0000
     16 C10        2.3619   -0.8905   10.8612 C.ar      1 RES1    0.0000
     17 H7         2.3100   -1.1718    9.9770 H         1 RES1    0.0000
     18 C11        1.7046    0.3062   11.2657 C.ar      1 RES1    0.0000
     19 C12        0.9315    1.2036   10.4723 C.ar      1 RES1    0.0000
     20 H8         0.7986    1.0268    9.5690 H         1 RES1    0.0000
     21 C13        0.3817    2.3310   11.0394 C.ar      1 RES1    0.0000
     22 H9        -0.1305    2.8941   10.5055 H         1 RES1    0.0000
     23 C14        0.5637    2.6697   12.4060 C.ar      1 RES1    0.0000
     24 H10        0.1922    3.4459   12.7587 H         1 RES1    0.0000
     25 C15        1.3004    1.8229   13.1910 C.ar      1 RES1    0.0000
     26 C16        1.8402    0.6487   12.6102 C.ar      1 RES1    0.0000
     27 C17        5.5718    3.4003   15.9508 C.ar      2 RES2    0.0000
     28 H11        5.0745    2.6279   16.0949 H         2 RES2    0.0000
     29 C18        5.7906    4.3121   16.9845 C.ar      2 RES2    0.0000
     30 H12        5.4331    4.1440   17.8270 H         2 RES2    0.0000
     31 C19        6.5330    5.4664   16.7762 C.ar      2 RES2    0.0000
     32 H13        6.6686    6.0563   17.4820 H         2 RES2    0.0000
     33 C20        7.0779    5.7544   15.5278 C.ar      2 RES2    0.0000
     34 H14        7.5694    6.5319   15.3921 H         2 RES2    0.0000
     35 C21        6.8708    4.8570   14.4932 C.ar      2 RES2    0.0000
     36 C22        6.1139    3.6728   14.7007 C.ar      2 RES2    0.0000
     37 C23        6.0600    2.9297   13.4235 C.ar      2 RES2    0.0000
     38 C24        5.4561    1.7805   12.9824 C.ar      2 RES2    0.0000
     39 H15        4.9568    1.2549   13.5636 H         2 RES2    0.0000
     40 C25        5.6080    1.4105   11.6264 C.ar      2 RES2    0.0000
     41 H16        5.1848    0.6399   11.3234 H         2 RES2    0.0000
     42 C26        6.3583    2.1467   10.7368 C.ar      2 RES2    0.0000
     43 H17        6.4456    1.8604    9.8565 H         2 RES2    0.0000
     44 C27        6.9996    3.3409   11.1583 C.ar      2 RES2    0.0000
     45 C28        7.8023    4.2358   10.3958 C.ar      2 RES2    0.0000
     46 H18        7.9757    4.0521    9.5004 H         2 RES2    0.0000
     47 C29        8.3221    5.3689   10.9729 C.ar      2 RES2    0.0000
     48 H19        8.8470    5.9332   10.4536 H         2 RES2    0.0000
     49 C30        8.0900    5.7126   12.3277 C.ar      2 RES2    0.0000
     50 H20        8.4442    6.4931   12.6882 H         2 RES2    0.0000
     51 C31        7.3308    4.8658   13.0936 C.ar      2 RES2    0.0000
     52 C32        6.8113    3.6940   12.4969 C.ar      2 RES2    0.0000
@<TRIPOS>BOND
     1    1    2 1
     2    3    1 ar
     3    4    3 1
     4    5    3 ar
     5    6    5 1
     6    7    5 ar
     7    8    7 1
     8    9    7 ar
     9   10    1 ar
    10   11   10 1
    11   12   11 ar
    12   13   12 1
    13   14   12 ar
    14   15   14 1
    15   16   14 ar
    16   17   16 1
    17   18   16 ar
    18   19   18 ar
    19   20   19 1
    20   21   19 ar
    21   22   21 1
    22   23   21 ar
    23   24   23 1
    24   25    9 1
    25   26   11 ar
    26   27   28 1
    27   29   27 ar
    28   30   29 1
    29   31   29 ar
    30   32   31 1
    31   33   31 ar
    32   34   33 1
    33   35   33 ar
    34   36   27 ar
    35   37   36 1
    36   38   37 ar
    37   39   38 1
    38   40   38 ar
    39   41   40 1
    40   42   40 ar
    41   43   42 1
    42   44   42 ar
    43   45   44 ar
    44   46   45 1
    45   47   45 ar
    46   48   47 1
    47   49   47 ar
    48   50   49 1
    49   51   35 1
    50   52   37 ar
    51    9   10 ar
    52   18   26 ar
    53   23   25 ar
    54   25   26 ar
    55   35   36 ar
    56   44   52 ar
    57   49   51 ar
    58   51   52 ar
@<TRIPOS>SUBSTRUCTURE
     1 RES1 1
     2 RES2 27

@<TRIPOS>CRYSIN
  17.8455    6.2494   19.5446  90.0000 108.4070  90.0000 231 1

