# MOL2 file generated by ConQuest
# Please check atom types

@<TRIPOS>MOLECULE
FLUANT02
    52    58     2
SMALL
NO_CHARGES
****
Generated from CSD

@<TRIPOS>ATOM
      1 C1         5.9488   -0.2804   13.4250 C.ar      1 RES1    0.0000
      2 C2         5.3771   -1.4209   12.9047 C.ar      1 RES1    0.0000
      3 C3         5.6005   -1.7761   11.5646 C.ar      1 RES1    0.0000
      4 C4         6.4003   -1.0283   10.7467 C.ar      1 RES1    0.0000
      5 C5         7.8780    1.0220   10.5371 C.ar      1 RES1    0.0000
      6 C6         8.3726    2.1313   11.1435 C.ar      1 RES1    0.0000
      7 C7         8.0937    2.4492   12.4948 C.ar      1 RES1    0.0000
      8 C8         7.2795    1.6203   13.1948 C.ar      1 RES1    0.0000
      9 C9         6.7666    0.4674   12.5678 C.ar      1 RES1    0.0000
     10 C10        7.0223    0.1433   11.2296 C.ar      1 RES1    0.0000
     11 C11        5.9564    0.4175   14.7014 C.ar      1 RES1    0.0000
     12 C12        5.3134    0.1246   15.9048 C.ar      1 RES1    0.0000
     13 C13        5.4854    1.0034   16.9604 C.ar      1 RES1    0.0000
     14 C14        6.2478    2.1251   16.8313 C.ar      1 RES1    0.0000
     15 C15        6.8886    2.4492   15.6241 C.ar      1 RES1    0.0000
     16 C16        6.7326    1.5767   14.5648 C.ar      1 RES1    0.0000
     17 H1         4.8243   -2.0136   13.4362 H         1 RES1    0.0000
     18 H2         5.1407   -2.5894   11.1622 H         1 RES1    0.0000
     19 H3         6.5466   -1.2925    9.8334 H         1 RES1    0.0000
     20 H4         8.1171    0.8544    9.6013 H         1 RES1    0.0000
     21 H5         8.9604    2.7115   10.6475 H         1 RES1    0.0000
     22 H6         8.4910    3.2799   12.9327 H         1 RES1    0.0000
     23 H7         4.7357   -0.7192   16.0115 H         1 RES1    0.0000
     24 H8         5.0625    0.8033   17.8401 H         1 RES1    0.0000
     25 H9         6.3213    2.7284   17.6305 H         1 RES1    0.0000
     26 H10        7.4475    3.3036   15.5792 H         1 RES1    0.0000
     27 C17       -3.2789   -0.0935   14.4150 C.ar      2 RES2    0.0000
     28 C18       -3.9123   -1.2152   14.8287 C.ar      2 RES2    0.0000
     29 C19       -3.8465   -1.5767   16.1987 C.ar      2 RES2    0.0000
     30 C20       -3.1449   -0.8289   17.1176 C.ar      2 RES2    0.0000
     31 C21       -1.6982    1.2402   17.4976 C.ar      2 RES2    0.0000
     32 C22       -1.1251    2.3370   16.9454 C.ar      2 RES2    0.0000
     33 C23       -1.2702    2.6486   15.5661 C.ar      2 RES2    0.0000
     34 C24       -2.0031    1.8010   14.7894 C.ar      2 RES2    0.0000
     35 C25       -2.5692    0.6668   15.3527 C.ar      2 RES2    0.0000
     36 C26       -2.4856    0.3490   16.7190 C.ar      2 RES2    0.0000
     37 C27       -3.1391    0.6294   13.1330 C.ar      2 RES2    0.0000
     38 C28       -3.6129    0.3428   11.8790 C.ar      2 RES2    0.0000
     39 C29       -3.3449    1.2402   10.8478 C.ar      2 RES2    0.0000
     40 C30       -2.6150    2.3869   11.0630 C.ar      2 RES2    0.0000
     41 C31       -2.1174    2.6735   12.3376 C.ar      2 RES2    0.0000
     42 C32       -2.3869    1.8010   13.3782 C.ar      2 RES2    0.0000
     43 H11       -4.3946   -1.7736   14.2036 H         2 RES2    0.0000
     44 H12       -4.2829   -2.3806   16.5150 H         2 RES2    0.0000
     45 H13       -3.1084   -1.0856   18.0497 H         2 RES2    0.0000
     46 H14       -1.5419    1.0164   18.4390 H         2 RES2    0.0000
     47 H15       -0.6363    2.9234   17.5069 H         2 RES2    0.0000
     48 H16       -0.8502    3.4669   15.1880 H         2 RES2    0.0000
     49 H17       -4.1300   -0.4655   11.7012 H         2 RES2    0.0000
     50 H18       -3.6949    1.0700    9.9588 H         2 RES2    0.0000
     51 H19       -2.4465    2.9864   10.3424 H         2 RES2    0.0000
     52 H20       -1.5992    3.4625   12.5023 H         2 RES2    0.0000
@<TRIPOS>BOND
     1    1    2 ar
     2    2    3 ar
     3    3    4 ar
     4    4   10 ar
     5    5    6 ar
     6    6    7 ar
     7    7    8 ar
     8    8    9 ar
     9    9    1 ar
    10   10    5 ar
    11   11    1 1
    12   12   11 ar
    13   13   12 ar
    14   14   13 ar
    15   15   14 ar
    16   16    8 1
    17   17    2 1
    18   18    3 1
    19   19    4 1
    20   20    5 1
    21   21    6 1
    22   22    7 1
    23   23   12 1
    24   24   13 1
    25   25   14 1
    26   26   15 1
    27   27   28 ar
    28   28   29 ar
    29   29   30 ar
    30   30   36 ar
    31   31   32 ar
    32   32   33 ar
    33   33   34 ar
    34   34   35 ar
    35   35   27 ar
    36   36   31 ar
    37   37   27 1
    38   38   37 ar
    39   39   38 ar
    40   40   39 ar
    41   41   40 ar
    42   42   34 1
    43   43   28 1
    44   44   29 1
    45   45   30 1
    46   46   31 1
    47   47   32 1
    48   48   33 1
    49   49   38 1
    50   50   39 1
    51   51   40 1
    52   52   41 1
    53    9   10 ar
    54   11   16 ar
    55   15   16 ar
    56   35   36 ar
    57   37   42 ar
    58   41   42 ar
@<TRIPOS>SUBSTRUCTURE
     1 RES1 1
     2 RES2 27

@<TRIPOS>CRYSIN
  18.3980    6.2320   19.9020  90.0000 109.8800  90.0000 231 1

