# MOL2 file generated by ConQuest
# Please check atom types

@<TRIPOS>MOLECULE
FLUANT
    50    56     2
SMALL
NO_CHARGES
****
Generated from CSD

@<TRIPOS>ATOM
      1 C1         2.6896    0.4702    1.9726 C.ar      1 RES1    0.0000
      2 C2         3.7811   -0.2845    1.5135 C.ar      1 RES1    0.0000
      3 C3         3.4890   -1.4062    0.7956 C.ar      1 RES1    0.0000
      4 C4         2.1548   -1.7478    0.5488 C.ar      1 RES1    0.0000
      5 C5         1.1127   -1.0267    1.0199 C.ar      1 RES1    0.0000
      6 C6         1.3519    0.1460    1.7741 C.ar      1 RES1    0.0000
      7 C7         0.4066    1.0385    2.3298 C.ar      1 RES1    0.0000
      8 C8         0.8295    2.1372    3.0218 C.ar      1 RES1    0.0000
      9 C9         2.1905    2.4391    3.1944 C.ar      1 RES1    0.0000
     10 C10        3.1272    1.6037    2.6680 C.ar      1 RES1    0.0000
     11 C11        4.5907    1.5788    2.6283 C.ar      1 RES1    0.0000
     12 C12        5.5481    2.4335    3.1357 C.ar      1 RES1    0.0000
     13 C13        6.8712    2.1478    2.9614 C.ar      1 RES1    0.0000
     14 C14        7.2701    1.0298    2.2815 C.ar      1 RES1    0.0000
     15 C15        6.3411    0.1373    1.7672 C.ar      1 RES1    0.0000
     16 C16        4.9980    0.4205    1.9363 C.ar      1 RES1    0.0000
     17 H1         4.2261   -1.8695    0.5350 H         1 RES1    0.0000
     18 H2         1.9720   -2.4968    0.0518 H         1 RES1    0.0000
     19 H3         0.2145   -1.2422    0.9492 H         1 RES1    0.0000
     20 H4        -0.5329    0.8074    2.1917 H         1 RES1    0.0000
     21 H5         0.1144    2.7018    3.4861 H         1 RES1    0.0000
     22 H6         2.4558    3.2235    3.7277 H         1 RES1    0.0000
     23 H7         5.2341    3.2049    3.6414 H         1 RES1    0.0000
     24 H8         7.6157    2.7018    3.3307 H         1 RES1    0.0000
     25 H9         8.1379    0.7640    2.1054 H         1 RES1    0.0000
     26 H10        6.5397   -0.6522    1.2943 H         1 RES1    0.0000
     27 C17        4.5751   -2.4366   -2.8009 C.ar      2 RES2    0.0000
     28 C18        5.3130   -1.2888   -3.1409 C.ar      2 RES2    0.0000
     29 C19        4.8102   -0.4664   -4.1022 C.ar      2 RES2    0.0000
     30 C20        3.5749   -0.7907   -4.6889 C.ar      2 RES2    0.0000
     31 C21        2.8510   -1.8888   -4.3438 C.ar      2 RES2    0.0000
     32 C22        3.3353   -2.7726   -3.3532 C.ar      2 RES2    0.0000
     33 C23        2.7260   -3.9434   -2.8458 C.ar      2 RES2    0.0000
     34 C24        3.3602   -4.6787   -1.8845 C.ar      2 RES2    0.0000
     35 C25        4.6151   -4.3135   -1.3685 C.ar      2 RES2    0.0000
     36 C26        5.2356   -3.1974   -1.8190 C.ar      2 RES2    0.0000
     37 C27        6.4812   -2.4782   -1.5031 C.ar      2 RES2    0.0000
     38 C28        7.5159   -2.7490   -0.6420 C.ar      2 RES2    0.0000
     39 C29        8.5751   -1.8590   -0.5488 C.ar      2 RES2    0.0000
     40 C30        8.5997   -0.7186   -1.3168 C.ar      2 RES2    0.0000
     41 C31        7.5720   -0.4404   -2.1917 C.ar      2 RES2    0.0000
     42 C32        6.5145   -1.3130   -2.2953 C.ar      2 RES2    0.0000
     43 H11        5.3333    0.2795   -4.3489 H         2 RES2    0.0000
     44 H12        3.2599   -0.1739   -5.3326 H         2 RES2    0.0000
     45 H13        1.9543   -2.0931   -4.6941 H         2 RES2    0.0000
     46 H14        2.9038   -5.4781   -1.5359 H         2 RES2    0.0000
     47 H15        7.4565   -3.5403   -0.0863 H         2 RES2    0.0000
     48 H16        9.2841   -2.0683    0.0345 H         2 RES2    0.0000
     49 H17        9.3535   -0.1056   -1.2598 H         2 RES2    0.0000
     50 H18        7.6065    0.2981   -2.7612 H         2 RES2    0.0000
@<TRIPOS>BOND
     1    1    2 ar
     2    2    3 ar
     3    3    4 ar
     4    4    5 ar
     5    5    6 ar
     6    6    1 ar
     7    7    6 ar
     8    8    7 ar
     9    9    8 ar
    10   10    1 ar
    11   11   10 1
    12   12   11 ar
    13   13   12 ar
    14   14   13 ar
    15   15   14 ar
    16   16    2 1
    17   17    3 1
    18   18    4 1
    19   19    5 1
    20   20    7 1
    21   21    8 1
    22   22    9 1
    23   23   12 1
    24   24   13 1
    25   25   14 1
    26   26   15 1
    27   27   28 ar
    28   28   29 ar
    29   29   30 ar
    30   30   31 ar
    31   31   32 ar
    32   32   27 ar
    33   33   32 ar
    34   34   33 ar
    35   35   34 ar
    36   36   27 ar
    37   37   36 1
    38   38   37 ar
    39   39   38 ar
    40   40   39 ar
    41   41   40 ar
    42   42   28 1
    43   43   29 1
    44   44   30 1
    45   45   31 1
    46   46   34 1
    47   47   38 1
    48   48   39 1
    49   49   40 1
    50   50   41 1
    51    9   10 ar
    52   11   16 ar
    53   15   16 ar
    54   35   36 ar
    55   37   42 ar
    56   41   42 ar
@<TRIPOS>SUBSTRUCTURE
     1 RES1 1
     2 RES2 27

@<TRIPOS>CRYSIN
  19.9070    6.2110   18.3490  90.0000 109.8600  90.0000 231 1

