# MOL2 file generated by ConQuest
# Please check atom types

@<TRIPOS>MOLECULE
FLUANT03
    52    58     2
SMALL
NO_CHARGES
****
Generated from CSD

@<TRIPOS>ATOM
      1 C1         4.9993    5.5615    3.3447 C.ar      1 RES1    0.0000
      2 C2         5.7019    6.3245    4.2966 C.ar      1 RES1    0.0000
      3 C3         6.3401    7.4576    3.8717 C.ar      1 RES1    0.0000
      4 H1         6.8108    7.9884    4.4735 H         1 RES1    0.0000
      5 C4         6.2737    7.8077    2.5105 C.ar      1 RES1    0.0000
      6 H2         6.7176    8.5727    2.2237 H         1 RES1    0.0000
      7 C5         5.5823    7.0689    1.5958 C.ar      1 RES1    0.0000
      8 H3         5.5606    7.3387    0.7051 H         1 RES1    0.0000
      9 C6         4.8970    5.8910    1.9944 C.ar      1 RES1    0.0000
     10 C7         4.1306    5.0039    1.2048 C.ar      1 RES1    0.0000
     11 H4         4.0207    5.1715    0.2974 H         1 RES1    0.0000
     12 C8         3.5515    3.9045    1.7642 C.ar      1 RES1    0.0000
     13 H5         3.0392    3.3470    1.2231 H         1 RES1    0.0000
     14 C9         3.6962    3.5768    3.1315 C.ar      1 RES1    0.0000
     15 H6         3.3018    2.8106    3.4823 H         1 RES1    0.0000
     16 C10        4.4269    4.4115    3.9242 C.ar      1 RES1    0.0000
     17 C11        4.8132    4.4321    5.3476 C.ar      1 RES1    0.0000
     18 C12        4.5475    3.5463    6.3734 C.ar      1 RES1    0.0000
     19 H7         4.0538    2.7733    6.2184 H         1 RES1    0.0000
     20 C13        5.0316    3.8353    7.6339 C.ar      1 RES1    0.0000
     21 H8         4.8603    3.2485    8.3354 H         1 RES1    0.0000
     22 C14        5.7618    4.9759    7.8696 C.ar      1 RES1    0.0000
     23 H9         6.0748    5.1472    8.7282 H         1 RES1    0.0000
     24 C15        6.0421    5.8785    6.8501 C.ar      1 RES1    0.0000
     25 H10        6.5369    6.6485    7.0170 H         1 RES1    0.0000
     26 C16        5.5684    5.6026    5.5795 C.ar      1 RES1    0.0000
     27 C17        8.7496    4.5336    3.5509 C.ar      2 RES2    0.0000
     28 H11        8.2084    5.0650    4.0901 H         2 RES2    0.0000
     29 C18       10.1440    2.6468    3.1900 C.ar      2 RES2    0.0000
     30 C19       10.4093    2.9670    1.8616 C.ar      2 RES2    0.0000
     31 C20        9.3336    3.4111    4.0518 C.ar      2 RES2    0.0000
     32 C21        8.9763    4.8781    2.2042 C.ar      2 RES2    0.0000
     33 H12        8.5647    5.6393    1.8627 H         2 RES2    0.0000
     34 C22        9.7762    4.1399    1.3798 C.ar      2 RES2    0.0000
     35 H13        9.9065    4.4078    0.4993 H         2 RES2    0.0000
     36 C23       11.2603    2.0681    1.1739 C.ar      2 RES2    0.0000
     37 H14       11.4785    2.2269    0.2843 H         2 RES2    0.0000
     38 C24       11.7578    0.9774    1.8049 C.ar      2 RES2    0.0000
     39 H15       12.3241    0.4111    1.3316 H         2 RES2    0.0000
     40 C25       11.4587    0.6628    3.1419 C.ar      2 RES2    0.0000
     41 H16       11.8055   -0.1028    3.5403 H         2 RES2    0.0000
     42 C26       10.6462    1.5093    3.8421 C.ar      2 RES2    0.0000
     43 C27       10.1060    1.5399    5.2124 C.ar      2 RES2    0.0000
     44 C28       10.2637    0.6640    6.2700 C.ar      2 RES2    0.0000
     45 H17       10.7780   -0.1047    6.1754 H         2 RES2    0.0000
     46 C29        9.6463    0.9506    7.4613 C.ar      2 RES2    0.0000
     47 H18        9.7466    0.3688    8.1802 H         2 RES2    0.0000
     48 C30        8.8834    2.0799    7.6104 C.ar      2 RES2    0.0000
     49 H19        8.4768    2.2494    8.4290 H         2 RES2    0.0000
     50 C31        8.7056    2.9763    6.5633 C.ar      2 RES2    0.0000
     51 H20        8.1868    3.7407    6.6728 H         2 RES2    0.0000
     52 C32        9.3234    2.7004    5.3467 C.ar      2 RES2    0.0000
@<TRIPOS>BOND
     1    1    2 ar
     2    2    3 ar
     3    3    4 1
     4    5    3 ar
     5    6    5 1
     6    7    5 ar
     7    8    7 1
     8    9    1 ar
     9   10    9 ar
    10   11   10 1
    11   12   10 ar
    12   13   12 1
    13   14   12 ar
    14   15   14 1
    15   16    1 ar
    16   17   16 1
    17   18   17 ar
    18   19   18 1
    19   20   18 ar
    20   21   20 1
    21   22   20 ar
    22   23   22 1
    23   24   22 ar
    24   25   24 1
    25   26    2 1
    26   27   28 1
    27   29   30 ar
    28   30   34 ar
    29   31   27 ar
    30   32   27 ar
    31   33   32 1
    32   34   32 ar
    33   35   34 1
    34   36   30 ar
    35   37   36 1
    36   38   36 ar
    37   39   38 1
    38   40   38 ar
    39   41   40 1
    40   42   29 ar
    41   43   42 1
    42   44   43 ar
    43   45   44 1
    44   46   44 ar
    45   47   46 1
    46   48   46 ar
    47   49   48 1
    48   50   48 ar
    49   51   50 1
    50   52   31 1
    51    7    9 ar
    52   14   16 ar
    53   17   26 ar
    54   24   26 ar
    55   29   31 ar
    56   40   42 ar
    57   43   52 ar
    58   50   52 ar
@<TRIPOS>SUBSTRUCTURE
     1 RES1 1
     2 RES2 27

@<TRIPOS>CRYSIN
  18.3799    6.2292   19.8853  90.0000 109.8660  90.0000 231 1

