# MOL2 file generated by ConQuest
# Please check atom types

@<TRIPOS>MOLECULE
FLUANT04
    52    58     2
SMALL
NO_CHARGES
****
Generated from CSD

@<TRIPOS>ATOM
      1 C1        14.1657    3.7812    3.3471 C.ar      1 RES1    0.0000
      2 C2        13.5952    4.9308    3.9249 C.ar      1 RES1    0.0000
      3 C3        14.0687    3.4530    1.9942 C.ar      1 RES1    0.0000
      4 C4        14.8718    3.0221    4.2931 C.ar      1 RES1    0.0000
      5 C5        13.9887    4.9102    5.3441 C.ar      1 RES1    0.0000
      6 C6        14.7413    3.7401    5.5770 C.ar      1 RES1    0.0000
      7 C7        12.8709    5.7565    3.1230 C.ar      1 RES1    0.0000
      8 H1        12.4765    6.5243    3.4704 H         1 RES1    0.0000
      9 C8        12.7277    5.4333    1.7623 C.ar      1 RES1    0.0000
     10 H2        12.2174    5.9925    1.2222 H         1 RES1    0.0000
     11 C9        15.5065    1.8894    3.8627 C.ar      1 RES1    0.0000
     12 H3        15.9801    1.3588    4.4628 H         1 RES1    0.0000
     13 C10       15.2145    3.4593    6.8435 C.ar      1 RES1    0.0000
     14 H4        15.7041    2.6858    7.0100 H         1 RES1    0.0000
     15 C11       13.3037    4.3367    1.2063 C.ar      1 RES1    0.0000
     16 H5        13.1918    4.1679    0.2990 H         1 RES1    0.0000
     17 C12       14.7485    2.2748    1.6027 C.ar      1 RES1    0.0000
     18 H6        14.7251    2.0033    0.7139 H         1 RES1    0.0000
     19 C13       13.7197    5.7933    6.3699 C.ar      1 RES1    0.0000
     20 H7        13.2221    6.5636    6.2176 H         1 RES1    0.0000
     21 C14       15.4366    1.5375    2.5106 C.ar      1 RES1    0.0000
     22 H8        15.8755    0.7697    2.2239 H         1 RES1    0.0000
     23 C15       14.2092    5.5024    7.6306 C.ar      1 RES1    0.0000
     24 H9        14.0372    6.0884    8.3331 H         1 RES1    0.0000
     25 C16       14.9378    4.3678    7.8648 C.ar      1 RES1    0.0000
     26 H10       15.2570    4.1997    8.7219 H         1 RES1    0.0000
     27 C17       13.4922    2.6441   -6.1498 C.ar      2 RES2    0.0000
     28 C18       13.9984    1.5026   -5.5067 C.ar      2 RES2    0.0000
     29 C19       13.7496    2.9673   -7.4830 C.ar      2 RES2    0.0000
     30 C20       13.4650    1.5300   -4.1346 C.ar      2 RES2    0.0000
     31 C21       14.8045    0.6682   -6.2075 C.ar      2 RES2    0.0000
     32 H11       15.1596   -0.0934   -5.8083 H         2 RES2    0.0000
     33 C22       12.6742    2.6964   -3.9986 C.ar      2 RES2    0.0000
     34 C23       12.6903    3.4107   -5.2884 C.ar      2 RES2    0.0000
     35 C24       15.0906    0.9752   -7.5443 C.ar      2 RES2    0.0000
     36 H12       15.6433    0.4010   -8.0248 H         2 RES2    0.0000
     37 C25       14.5981    2.0743   -8.1696 C.ar      2 RES2    0.0000
     38 H13       14.8217    2.2393   -9.0564 H         2 RES2    0.0000
     39 C26       12.0724    2.9816   -2.7864 C.ar      2 RES2    0.0000
     40 H14       11.5642    3.7526   -2.6743 H         2 RES2    0.0000
     41 C27       13.6190    0.6682   -3.0735 C.ar      2 RES2    0.0000
     42 H15       14.1349   -0.1003   -3.1639 H         2 RES2    0.0000
     43 C28       12.2482    2.0805   -1.7399 C.ar      2 RES2    0.0000
     44 H16       11.8400    2.2493   -0.9213 H         2 RES2    0.0000
     45 C29       12.1016    4.5297   -5.8027 C.ar      2 RES2    0.0000
     46 H17       11.5554    5.0603   -5.2664 H         2 RES2    0.0000
     47 C30       13.1231    4.1362   -7.9612 C.ar      2 RES2    0.0000
     48 H18       13.2563    4.4052   -8.8415 H         2 RES2    0.0000
     49 C31       12.3240    4.8729   -7.1427 C.ar      2 RES2    0.0000
     50 H19       11.9113    5.6320   -7.4847 H         2 RES2    0.0000
     51 C32       13.0099    0.9490   -1.8885 C.ar      2 RES2    0.0000
     52 H20       13.1111    0.3668   -1.1699 H         2 RES2    0.0000
@<TRIPOS>BOND
     1    1    2 ar
     2    2    5 1
     3    3    1 ar
     4    4    1 ar
     5    5    6 ar
     6    6    4 1
     7    7    2 ar
     8    8    7 1
     9    9    7 ar
    10   10    9 1
    11   11    4 ar
    12   12   11 1
    13   13    6 ar
    14   14   13 1
    15   15    3 ar
    16   16   15 1
    17   17    3 ar
    18   18   17 1
    19   19    5 ar
    20   20   19 1
    21   21   11 ar
    22   22   21 1
    23   23   19 ar
    24   24   23 1
    25   25   13 ar
    26   26   25 1
    27   27   28 ar
    28   28   30 1
    29   29   27 ar
    30   30   33 ar
    31   31   28 ar
    32   32   31 1
    33   33   34 1
    34   34   27 ar
    35   35   31 ar
    36   36   35 1
    37   37   29 ar
    38   38   37 1
    39   39   33 ar
    40   40   39 1
    41   41   30 ar
    42   42   41 1
    43   43   39 ar
    44   44   43 1
    45   45   34 ar
    46   46   45 1
    47   47   29 ar
    48   48   47 1
    49   49   45 ar
    50   50   49 1
    51   51   41 ar
    52   52   51 1
    53    9   15 ar
    54   17   21 ar
    55   23   25 ar
    56   35   37 ar
    57   43   51 ar
    58   47   49 ar
@<TRIPOS>SUBSTRUCTURE
     1 RES1 1
     2 RES2 27

@<TRIPOS>CRYSIN
  18.3490    6.2273   19.8610  90.0000 109.7870  90.0000 231 1

