# MOL2 file generated by ConQuest
# Please check atom types

@<TRIPOS>MOLECULE
FOCNAO
    57    64     1
SMALL
NO_CHARGES
****
Generated from CSD

@<TRIPOS>ATOM
      1 C1        11.3442    9.6725    2.7981 C.3       1 RES1    0.0000
      2 C2        10.5042    8.5279    3.2609 C.ar      1 RES1    0.0000
      3 C3        10.8379    7.3853    3.9841 C.ar      1 RES1    0.0000
      4 H1        11.7284    7.2440    4.2831 H         1 RES1    0.0000
      5 C4         9.8362    6.4519    4.2605 C.ar      1 RES1    0.0000
      6 H2        10.0514    5.6653    4.7484 H         1 RES1    0.0000
      7 C5         8.5231    6.6559    3.8303 C.ar      1 RES1    0.0000
      8 H3         7.8579    6.0071    4.0276 H         1 RES1    0.0000
      9 C6         8.1796    7.8015    3.1156 C.ar      1 RES1    0.0000
     10 H4         7.2851    7.9414    2.8264 H         1 RES1    0.0000
     11 C7         9.1735    8.7389    2.8331 C.ar      1 RES1    0.0000
     12 C8         9.1109   10.0055    2.0909 C.ar      1 RES1    0.0000
     13 C9         8.0474   10.6401    1.4432 C.ar      1 RES1    0.0000
     14 H5         7.1675   10.2836    1.4915 H         1 RES1    0.0000
     15 C10        8.3045   11.8055    0.7252 C.ar      1 RES1    0.0000
     16 H6         7.5931   12.2460    0.2761 H         1 RES1    0.0000
     17 C11        9.5993   12.3355    0.6572 C.ar      1 RES1    0.0000
     18 H7         9.7583   13.1204    0.1468 H         1 RES1    0.0000
     19 C12       10.6593   11.7222    1.3309 C.ar      1 RES1    0.0000
     20 H8        11.5350   12.0898    1.2969 H         1 RES1    0.0000
     21 C13       10.4018   10.5603    2.0524 C.ar      1 RES1    0.0000
     22 C14       12.5666   10.1672    3.5146 C.3       1 RES1    0.0000
     23 C15       13.0919   10.1718    4.9090 C.3       1 RES1    0.0000
     24 H9        14.0328    9.8450    5.0006 H         1 RES1    0.0000
     25 C16       12.2135    9.9096    6.1154 C.3       1 RES1    0.0000
     26 H10       12.7524   10.0318    6.9366 H         1 RES1    0.0000
     27 H11       11.9105    8.9679    6.0920 H         1 RES1    0.0000
     28 C17       10.9879   10.8221    6.1875 C.3       1 RES1    0.0000
     29 H12       10.3346   10.5547    5.4941 H         1 RES1    0.0000
     30 H13       10.5544   10.7256    7.0725 H         1 RES1    0.0000
     31 C18       11.3932   12.2802    5.9736 C.3       1 RES1    0.0000
     32 H14       10.6180   12.8692    6.1529 H         1 RES1    0.0000
     33 H15       12.1148   12.5204    6.6073 H         1 RES1    0.0000
     34 C19       11.8776   12.4933    4.5404 C.3       1 RES1    0.0000
     35 H16       12.2483   13.4074    4.4570 H         1 RES1    0.0000
     36 H17       11.1054   12.4227    3.9243 H         1 RES1    0.0000
     37 C20       12.9444   11.4829    4.1206 C.3       1 RES1    0.0000
     38 H18       13.7991   11.8790    3.7852 H         1 RES1    0.0000
     39 C21       12.7974    9.4776    2.2288 C.3       1 RES1    0.0000
     40 H19       13.0192   10.0973    1.4763 H         1 RES1    0.0000
     41 C22       13.3678    8.1079    2.0644 C.ar      1 RES1    0.0000
     42 C23       14.2559    7.5653    2.9659 C.ar      1 RES1    0.0000
     43 H20       14.5013    8.0667    3.7341 H         1 RES1    0.0000
     44 C24       14.8117    6.2753    2.7728 C.ar      1 RES1    0.0000
     45 H21       15.3934    5.9090    3.4286 H         1 RES1    0.0000
     46 C25       14.5145    5.5547    1.6464 C.ar      1 RES1    0.0000
     47 H22       14.9076    4.7001    1.5143 H         1 RES1    0.0000
     48 C26       13.6199    6.0795    0.6742 C.ar      1 RES1    0.0000
     49 C27       13.3165    5.3669   -0.5202 C.ar      1 RES1    0.0000
     50 H23       13.7476    4.5380   -0.6946 H         1 RES1    0.0000
     51 C28       12.4105    5.8613   -1.4212 C.ar      1 RES1    0.0000
     52 H24       12.2214    5.3777   -2.2166 H         1 RES1    0.0000
     53 C29       11.7574    7.0891   -1.1695 C.ar      1 RES1    0.0000
     54 H25       11.1111    7.4132   -1.7861 H         1 RES1    0.0000
     55 C30       12.0479    7.8204   -0.0399 C.ar      1 RES1    0.0000
     56 H26       11.6058    8.6468    0.1131 H         1 RES1    0.0000
     57 C31       13.0047    7.3490    0.9003 C.ar      1 RES1    0.0000
@<TRIPOS>BOND
     1    1    2 1
     2    2    3 ar
     3    3    4 1
     4    5    3 ar
     5    6    5 1
     6    7    5 ar
     7    8    7 1
     8    9    7 ar
     9   10    9 1
    10   11    2 ar
    11   12   11 1
    12   13   12 ar
    13   14   13 1
    14   15   13 ar
    15   16   15 1
    16   17   15 ar
    17   18   17 1
    18   19   17 ar
    19   20   19 1
    20   21    1 1
    21   22    1 1
    22   23   22 1
    23   24   23 1
    24   25   23 1
    25   26   25 1
    26   27   25 1
    27   28   25 1
    28   29   28 1
    29   30   28 1
    30   31   28 1
    31   32   31 1
    32   33   31 1
    33   34   31 1
    34   35   34 1
    35   36   34 1
    36   37   22 1
    37   38   37 1
    38   39    1 1
    39   40   39 1
    40   41   39 1
    41   42   41 ar
    42   43   42 1
    43   44   42 ar
    44   45   44 1
    45   46   44 ar
    46   47   46 1
    47   48   46 ar
    48   49   48 ar
    49   50   49 1
    50   51   49 ar
    51   52   51 1
    52   53   51 ar
    53   54   53 1
    54   55   53 ar
    55   56   55 1
    56   57   41 ar
    57    9   11 ar
    58   12   21 ar
    59   19   21 ar
    60   22   39 1
    61   23   37 1
    62   34   37 1
    63   48   57 ar
    64   55   57 ar
@<TRIPOS>SUBSTRUCTURE
     1 RES1 1

@<TRIPOS>CRYSIN
   9.9420   10.4840   11.6560  69.2760  79.7540  71.7350   2 1

