# MOL2 file generated by ConQuest
# Please check atom types

@<TRIPOS>MOLECULE
FODBAC
    92   102     1
SMALL
NO_CHARGES
****
Generated from CSD

@<TRIPOS>ATOM
      1 C1         1.3193    8.4809    1.0055 C.ar      1 RES1    0.0000
      2 C2         2.1881    8.3421    2.0907 C.ar      1 RES1    0.0000
      3 C3         3.5217    7.9525    1.8286 C.ar      1 RES1    0.0000
      4 C4         3.9914    7.8203    0.5069 C.ar      1 RES1    0.0000
      5 C5         3.1012    7.8735   -0.5703 C.ar      1 RES1    0.0000
      6 C6         1.7450    8.0560   -0.2851 C.ar      1 RES1    0.0000
      7 C7         0.5612    7.9959   -1.1655 C.ar      1 RES1    0.0000
      8 C8         0.2546    7.3413   -2.3408 C.ar      1 RES1    0.0000
      9 C9        -1.0370    7.5736   -2.8908 C.ar      1 RES1    0.0000
     10 H1        -1.2438    7.1765   -3.7067 H         1 RES1    0.0000
     11 C10       -1.9813    8.3395   -2.2937 C.ar      1 RES1    0.0000
     12 H2        -2.7867    8.5071   -2.7276 H         1 RES1    0.0000
     13 C11       -1.7411    8.8843   -1.0112 C.ar      1 RES1    0.0000
     14 C12       -2.6514    9.5958   -0.2114 C.ar      1 RES1    0.0000
     15 H3        -3.4976    9.8078   -0.5348 H         1 RES1    0.0000
     16 C13       -2.2820    9.9686    1.0368 C.ar      1 RES1    0.0000
     17 H4        -2.8999   10.4444    1.5446 H         1 RES1    0.0000
     18 C14       -1.0168    9.6856    1.6300 C.ar      1 RES1    0.0000
     19 C15       -0.0987    8.9782    0.8648 C.ar      1 RES1    0.0000
     20 C16       -0.4788    8.6476   -0.4592 C.ar      1 RES1    0.0000
     21 C17       -0.7997   10.2613    3.0039 C.3       1 RES1    0.0000
     22 H5         0.0900   10.6190    3.0643 H         1 RES1    0.0000
     23 H6        -0.9130    9.5715    3.6625 H         1 RES1    0.0000
     24 H7        -1.4365   10.9617    3.1624 H         1 RES1    0.0000
     25 C18        1.1408    6.3060   -3.0046 C.3       1 RES1    0.0000
     26 H8         1.7177    5.9098   -2.3468 H         1 RES1    0.0000
     27 H9         1.6716    6.7273   -3.6856 H         1 RES1    0.0000
     28 H10        0.5938    5.6246   -3.4028 H         1 RES1    0.0000
     29 C19        3.6257    7.8963   -1.9886 C.3       1 RES1    0.0000
     30 H11        2.9825    8.3219   -2.5603 H         1 RES1    0.0000
     31 H12        3.7739    6.9977   -2.2891 H         1 RES1    0.0000
     32 H13        4.4518    8.3836   -2.0159 H         1 RES1    0.0000
     33 C20        1.7529    8.5256    3.5244 C.3       1 RES1    0.0000
     34 H14        0.8507    8.2133    3.6279 H         1 RES1    0.0000
     35 H15        1.7980    9.4566    3.7548 H         1 RES1    0.0000
     36 H16        2.3332    8.0238    4.1011 H         1 RES1    0.0000
     37 C21        6.0851   12.1183    1.3359 C.ar      1 RES1    0.0000
     38 C22        6.2813   10.9102    0.6529 C.ar      1 RES1    0.0000
     39 C23        6.1236    9.7137    1.3842 C.ar      1 RES1    0.0000
     40 C24        5.7180    9.7389    2.7203 C.ar      1 RES1    0.0000
     41 C25        5.6047   10.9457    3.4317 C.ar      1 RES1    0.0000
     42 C26        5.9365   12.1241    2.7553 C.ar      1 RES1    0.0000
     43 C27        6.1403   13.5255    3.2224 C.ar      1 RES1    0.0000
     44 C28        6.4276   14.1310    4.4475 C.ar      1 RES1    0.0000
     45 C29        6.6144   15.5516    4.4173 C.ar      1 RES1    0.0000
     46 H17        6.7746   15.9838    5.2244 H         1 RES1    0.0000
     47 C30        6.5750   16.3052    3.2970 C.ar      1 RES1    0.0000
     48 H18        6.6832   17.2271    3.3528 H         1 RES1    0.0000
     49 C31        6.3698   15.6943    2.0517 C.ar      1 RES1    0.0000
     50 C32        6.3313   16.3346    0.7944 C.ar      1 RES1    0.0000
     51 H19        6.4923   17.2483    0.7348 H         1 RES1    0.0000
     52 C33        6.0586   15.6168   -0.3324 C.ar      1 RES1    0.0000
     53 H20        5.9777   16.0753   -1.1368 H         1 RES1    0.0000
     54 C34        5.8899   14.1940   -0.3426 C.ar      1 RES1    0.0000
     55 C35        6.0782   13.5317    0.8666 C.ar      1 RES1    0.0000
     56 C36        6.1954   14.3166    2.0440 C.ar      1 RES1    0.0000
     57 C37        5.4252   13.5741   -1.6279 C.3       1 RES1    0.0000
     58 H21        4.8954   12.7968   -1.4350 H         1 RES1    0.0000
     59 H22        6.1863   13.3205   -2.1544 H         1 RES1    0.0000
     60 H23        4.8949   14.2083   -2.1159 H         1 RES1    0.0000
     61 C38        6.6757   13.4208    5.7525 C.3       1 RES1    0.0000
     62 H24        7.0132   12.5392    5.5784 H         1 RES1    0.0000
     63 H25        5.8540   13.3567    6.2439 H         1 RES1    0.0000
     64 H26        7.3192   13.9124    6.2670 H         1 RES1    0.0000
     65 C39        4.9919   10.9502    4.8176 C.3       1 RES1    0.0000
     66 H27        4.6334   11.8197    5.0071 H         1 RES1    0.0000
     67 H28        5.6659   10.7339    5.4668 H         1 RES1    0.0000
     68 H29        4.2869   10.2996    4.8590 H         1 RES1    0.0000
     69 C40        6.7133   10.8372   -0.7867 C.3       1 RES1    0.0000
     70 H30        7.0771   11.6834   -1.0560 H         1 RES1    0.0000
     71 H31        5.9557   10.6253   -1.3369 H         1 RES1    0.0000
     72 H32        7.3823   10.1570   -0.8868 H         1 RES1    0.0000
     73 C41        6.4405    8.3991    0.7400 C.ar      1 RES1    0.0000
     74 C42        7.7753    8.0370    0.5676 C.ar      1 RES1    0.0000
     75 H33        8.4422    8.6008    0.8887 H         1 RES1    0.0000
     76 C43        8.1343    6.8680   -0.0644 C.ar      1 RES1    0.0000
     77 H34        9.0316    6.6464   -0.1616 H         1 RES1    0.0000
     78 C44        7.1608    6.0295   -0.5503 C.ar      1 RES1    0.0000
     79 H35        7.3956    5.2435   -0.9906 H         1 RES1    0.0000
     80 C45        5.8351    6.3605   -0.3805 C.ar      1 RES1    0.0000
     81 H36        5.1803    5.7906   -0.7156 H         1 RES1    0.0000
     82 C46        5.4457    7.5291    0.2810 C.ar      1 RES1    0.0000
     83 C47        4.4298    7.5944    2.9592 C.ar      1 RES1    0.0000
     84 C48        4.2311    6.3733    3.6084 C.ar      1 RES1    0.0000
     85 H37        3.5475    5.8119    3.3220 H         1 RES1    0.0000
     86 C49        5.0223    5.9841    4.6585 C.ar      1 RES1    0.0000
     87 H38        4.8616    5.1754    5.0879 H         1 RES1    0.0000
     88 C50        6.0498    6.7901    5.0752 C.ar      1 RES1    0.0000
     89 H39        6.5982    6.5208    5.7765 H         1 RES1    0.0000
     90 C51        6.2714    8.0027    4.4539 C.ar      1 RES1    0.0000
     91 H40        6.9716    8.5433    4.7416 H         1 RES1    0.0000
     92 C52        5.4626    8.4315    3.3990 C.ar      1 RES1    0.0000
@<TRIPOS>BOND
     1    1    2 ar
     2    2    3 ar
     3    3    4 ar
     4    4    5 ar
     5    5    6 ar
     6    6    1 ar
     7    7    6 1
     8    8    7 ar
     9    9    8 ar
    10   10    9 1
    11   11    9 ar
    12   12   11 1
    13   13   11 ar
    14   14   13 ar
    15   15   14 1
    16   16   14 ar
    17   17   16 1
    18   18   16 ar
    19   19    1 1
    20   20    7 ar
    21   21   18 1
    22   22   21 1
    23   23   21 1
    24   24   21 1
    25   25    8 1
    26   26   25 1
    27   27   25 1
    28   28   25 1
    29   29    5 1
    30   30   29 1
    31   31   29 1
    32   32   29 1
    33   33    2 1
    34   34   33 1
    35   35   33 1
    36   36   33 1
    37   37   38 ar
    38   38   39 ar
    39   39   40 ar
    40   40   41 ar
    41   41   42 ar
    42   42   37 ar
    43   43   42 1
    44   44   43 ar
    45   45   44 ar
    46   46   45 1
    47   47   45 ar
    48   48   47 1
    49   49   47 ar
    50   50   49 ar
    51   51   50 1
    52   52   50 ar
    53   53   52 1
    54   54   52 ar
    55   55   37 1
    56   56   43 ar
    57   57   54 1
    58   58   57 1
    59   59   57 1
    60   60   57 1
    61   61   44 1
    62   62   61 1
    63   63   61 1
    64   64   61 1
    65   65   41 1
    66   66   65 1
    67   67   65 1
    68   68   65 1
    69   69   38 1
    70   70   69 1
    71   71   69 1
    72   72   69 1
    73   73   39 1
    74   74   73 ar
    75   75   74 1
    76   76   74 ar
    77   77   76 1
    78   78   76 ar
    79   79   78 1
    80   80   78 ar
    81   81   80 1
    82   82    4 1
    83   83    3 1
    84   84   83 ar
    85   85   84 1
    86   86   84 ar
    87   87   86 1
    88   88   86 ar
    89   89   88 1
    90   90   88 ar
    91   91   90 1
    92   92   40 1
    93   13   20 ar
    94   18   19 ar
    95   19   20 ar
    96   49   56 ar
    97   54   55 ar
    98   55   56 ar
    99   73   82 ar
   100   80   82 ar
   101   83   92 ar
   102   90   92 ar
@<TRIPOS>SUBSTRUCTURE
     1 RES1 1

@<TRIPOS>CRYSIN
  17.7050   21.2890   19.3540  90.0000  96.3360  90.0000  15 1

