# MOL2 file generated by ConQuest
# Please check atom types

@<TRIPOS>MOLECULE
FOGSOJ
    50    55     1
SMALL
NO_CHARGES
****
Generated from CSD

@<TRIPOS>ATOM
      1 C1         7.4303    5.7236    4.5542 C.ar      1 RES1    0.0000
      2 C2         7.3331    5.6656    5.9672 C.ar      1 RES1    0.0000
      3 C3         6.9581    4.5269    6.5906 C.ar      1 RES1    0.0000
      4 C4         6.7106    3.3345    5.8348 C.ar      1 RES1    0.0000
      5 C5         6.3667    2.1249    6.4510 C.ar      1 RES1    0.0000
      6 C6         6.1806    0.9432    5.7385 C.ar      1 RES1    0.0000
      7 C7         5.8307   -0.3094    6.3451 C.ar      1 RES1    0.0000
      8 C8         5.7312   -1.4137    5.6134 C.ar      1 RES1    0.0000
      9 C9         5.9643   -1.4073    4.2172 C.ar      1 RES1    0.0000
     10 C10        6.2702   -0.2643    3.5408 C.ar      1 RES1    0.0000
     11 C11        6.5610   -0.2471    2.0942 C.2       1 RES1    0.0000
     12 C12        5.9529    0.4447    1.1265 C.2       1 RES1    0.0000
     13 C13        4.6881    1.1924    1.1795 C.ar      1 RES1    0.0000
     14 C14        3.6518    0.7520    1.9979 C.ar      1 RES1    0.0000
     15 C15        2.3892    1.2848    1.9305 C.ar      1 RES1    0.0000
     16 C16        2.1091    2.2882    1.0519 C.ar      1 RES1    0.0000
     17 C17        3.1287    2.7845    0.2503 C.ar      1 RES1    0.0000
     18 C18        4.4125    2.2667    0.3129 C.ar      1 RES1    0.0000
     19 C19        5.4640    2.9413   -0.5199 C.ar      1 RES1    0.0000
     20 C20        5.5201    2.7028   -1.8944 C.ar      1 RES1    0.0000
     21 C21        6.4646    3.3323   -2.6815 C.ar      1 RES1    0.0000
     22 C22        7.3771    4.1917   -2.1255 C.ar      1 RES1    0.0000
     23 C23        7.3407    4.4367   -0.7823 C.ar      1 RES1    0.0000
     24 C24        6.3894    3.8394    0.0578 C.ar      1 RES1    0.0000
     25 C25        6.3416    4.0886    1.4996 C.2       1 RES1    0.0000
     26 C26        7.2344    4.6880    2.2988 C.2       1 RES1    0.0000
     27 C27        7.1691    4.6257    3.7647 C.ar      1 RES1    0.0000
     28 C28        6.8594    3.3753    4.4122 C.ar      1 RES1    0.0000
     29 C29        6.7417    2.1700    3.7190 C.ar      1 RES1    0.0000
     30 C30        6.3909    0.9625    4.3159 C.ar      1 RES1    0.0000
     31 H1         7.5844    6.6174    4.0439 H         1 RES1    0.0000
     32 H2         7.5237    6.5100    6.4751 H         1 RES1    0.0000
     33 H3         6.8935    4.4259    7.6064 H         1 RES1    0.0000
     34 H4         6.2178    2.0411    7.4620 H         1 RES1    0.0000
     35 H5         5.6181   -0.3223    7.3657 H         1 RES1    0.0000
     36 H6         5.4586   -2.2559    5.9937 H         1 RES1    0.0000
     37 H7         5.8686   -2.1700    3.7069 H         1 RES1    0.0000
     38 H8         7.3339   -0.8379    1.7813 H         1 RES1    0.0000
     39 H9         6.3469    0.4512    0.2648 H         1 RES1    0.0000
     40 H10        3.8340    0.0645    2.5997 H         1 RES1    0.0000
     41 H11        1.7538    0.9668    2.5515 H         1 RES1    0.0000
     42 H12        1.2603    2.6856    0.9628 H         1 RES1    0.0000
     43 H13        2.9761    3.5665   -0.3851 H         1 RES1    0.0000
     44 H14        4.8892    1.9981   -2.3108 H         1 RES1    0.0000
     45 H15        6.5291    3.2228   -3.6107 H         1 RES1    0.0000
     46 H16        8.1310    4.5763   -2.6719 H         1 RES1    0.0000
     47 H17        7.9564    4.9416   -0.3370 H         1 RES1    0.0000
     48 H18        5.5801    3.6954    1.9257 H         1 RES1    0.0000
     49 H19        8.0323    5.0060    1.9016 H         1 RES1    0.0000
     50 H20        6.8784    2.1485    2.7682 H         1 RES1    0.0000
@<TRIPOS>BOND
     1    1    2 ar
     2    2    3 ar
     3    3    4 ar
     4    4    5 ar
     5    5    6 ar
     6    6    7 ar
     7    7    8 ar
     8    8    9 ar
     9    9   10 ar
    10   10   11 1
    11   11   12 2
    12   12   13 1
    13   13   14 ar
    14   14   15 ar
    15   15   16 ar
    16   16   17 ar
    17   17   18 ar
    18   18   13 ar
    19   19   18 1
    20   20   19 ar
    21   21   20 ar
    22   22   21 ar
    23   23   22 ar
    24   24   19 ar
    25   25   24 1
    26   26   25 2
    27   27    1 ar
    28   28    4 ar
    29   29   28 ar
    30   30    6 ar
    31   31    1 1
    32   32    2 1
    33   33    3 1
    34   34    5 1
    35   35    7 1
    36   36    8 1
    37   37    9 1
    38   38   11 1
    39   39   12 1
    40   40   14 1
    41   41   15 1
    42   42   16 1
    43   43   17 1
    44   44   20 1
    45   45   21 1
    46   46   22 1
    47   47   23 1
    48   48   25 1
    49   49   26 1
    50   50   29 1
    51   10   30 ar
    52   23   24 ar
    53   26   27 1
    54   27   28 ar
    55   29   30 ar
@<TRIPOS>SUBSTRUCTURE
     1 RES1 1

@<TRIPOS>CRYSIN
   7.5920   21.4850   24.0710  90.0000  90.0000  90.0000  61 1

