# MOL2 file generated by ConQuest
# Please check atom types

@<TRIPOS>MOLECULE
FUBKOE
    62    67     1
SMALL
NO_CHARGES
****
Generated from CSD

@<TRIPOS>ATOM
      1 C1         3.3840   -4.6792   -7.0218 C.ar      1 RES1    0.0000
      2 C2         2.3735   -5.5378   -7.3126 C.ar      1 RES1    0.0000
      3 H1         1.8324   -5.3502   -8.0449 H         1 RES1    0.0000
      4 C3         2.0985   -6.7111   -6.5540 C.ar      1 RES1    0.0000
      5 C4         1.0368   -7.5597   -6.8819 C.ar      1 RES1    0.0000
      6 H2         0.4870   -7.3524   -7.6019 H         1 RES1    0.0000
      7 C5         0.7999   -8.7014   -6.1437 C.ar      1 RES1    0.0000
      8 H3         0.0951   -9.2676   -6.3639 H         1 RES1    0.0000
      9 C6         1.6233   -8.9911   -5.0766 C.ar      1 RES1    0.0000
     10 H4         1.4624   -9.7568   -4.5741 H         1 RES1    0.0000
     11 C7         2.6660   -8.1833   -4.7399 C.ar      1 RES1    0.0000
     12 H5         3.2100   -8.4124   -4.0224 H         1 RES1    0.0000
     13 C8         2.9321   -7.0087   -5.4638 C.ar      1 RES1    0.0000
     14 C9         4.0391   -6.1073   -5.1214 C.ar      1 RES1    0.0000
     15 C10        4.9283   -6.3509   -4.0571 C.ar      1 RES1    0.0000
     16 H6         4.8332   -7.1213   -3.5458 H         1 RES1    0.0000
     17 C11        5.9213   -5.4759   -3.7712 C.ar      1 RES1    0.0000
     18 H7         6.4887   -5.6609   -3.0563 H         1 RES1    0.0000
     19 C12        6.1304   -4.3033   -4.5094 C.ar      1 RES1    0.0000
     20 H8         6.8192   -3.7180   -4.2918 H         1 RES1    0.0000
     21 C13        5.2866   -4.0426   -5.5609 C.ar      1 RES1    0.0000
     22 H9         5.4021   -3.2670   -6.0634 H         1 RES1    0.0000
     23 C14        4.2439   -4.9387   -5.8925 C.ar      1 RES1    0.0000
     24 C15        3.6077   -3.5040   -7.8633 C.1       1 RES1    0.0000
     25 C16        3.8081   -2.5888   -8.5846 C.1       1 RES1    0.0000
     26 C17        4.0640   -1.4090   -9.3852 C.3       1 RES1    0.0000
     27 H10        3.2714   -0.8520   -9.3839 H         1 RES1    0.0000
     28 H11        4.2322   -1.6829  -10.3008 H         1 RES1    0.0000
     29 C18        5.2325   -0.5912   -8.9017 C.3       1 RES1    0.0000
     30 H12        6.0324   -1.1390   -8.9074 H         1 RES1    0.0000
     31 H13        5.0701   -0.3094   -7.9879 H         1 RES1    0.0000
     32 C19        5.4562    0.6334   -9.7709 C.3       1 RES1    0.0000
     33 H14        4.6592    1.1864   -9.7647 H         1 RES1    0.0000
     34 H15        5.6244    0.3569  -10.6842 H         1 RES1    0.0000
     35 C20        6.6642    1.4531   -9.2441 C.3       1 RES1    0.0000
     36 H16        6.4828    1.7474   -8.3375 H         1 RES1    0.0000
     37 H17        7.4524    0.8882   -9.2233 H         1 RES1    0.0000
     38 C21        6.9274    2.6369  -10.1040 C.1       1 RES1    0.0000
     39 C22        7.1234    3.5777  -10.7909 C.1       1 RES1    0.0000
     40 C23        7.3398    4.7293  -11.6218 C.ar      1 RES1    0.0000
     41 C24        6.4360    4.9821  -12.7381 C.ar      1 RES1    0.0000
     42 C25        5.3846    4.0794  -13.0507 C.ar      1 RES1    0.0000
     43 H18        5.2690    3.3085  -12.5439 H         1 RES1    0.0000
     44 C26        4.5437    4.3421  -14.0953 C.ar      1 RES1    0.0000
     45 H19        3.8724    3.7325  -14.2999 H         1 RES1    0.0000
     46 C27        4.6651    5.4799  -14.8413 C.ar      1 RES1    0.0000
     47 H20        4.0728    5.6497  -15.5380 H         1 RES1    0.0000
     48 C28        5.6785    6.3759  -14.5522 C.ar      1 RES1    0.0000
     49 H21        5.7516    7.1542  -15.0563 H         1 RES1    0.0000
     50 C29        6.5954    6.1435  -13.5258 C.ar      1 RES1    0.0000
     51 C30        7.6908    7.0633  -13.2453 C.ar      1 RES1    0.0000
     52 C31        7.9598    8.2181  -14.0280 C.ar      1 RES1    0.0000
     53 H22        7.4158    8.4223  -14.7532 H         1 RES1    0.0000
     54 C32        9.0230    9.0346  -13.7172 C.ar      1 RES1    0.0000
     55 H23        9.1809    9.7977  -14.2248 H         1 RES1    0.0000
     56 C33        9.8712    8.7264  -12.6423 C.ar      1 RES1    0.0000
     57 H24       10.6009    9.2716  -12.4558 H         1 RES1    0.0000
     58 C34        9.6314    7.6519  -11.8860 C.ar      1 RES1    0.0000
     59 H25       10.1812    7.4761  -11.1582 H         1 RES1    0.0000
     60 C35        8.5550    6.7710  -12.1730 C.ar      1 RES1    0.0000
     61 C36        8.3284    5.6306  -11.3757 C.ar      1 RES1    0.0000
     62 H26        8.8826    5.4884  -10.6427 H         1 RES1    0.0000
@<TRIPOS>BOND
     1    1    2 ar
     2    2    3 1
     3    4    2 ar
     4    5    4 ar
     5    6    5 1
     6    7    5 ar
     7    8    7 1
     8    9    7 ar
     9   10    9 1
    10   11    9 ar
    11   12   11 1
    12   13    4 ar
    13   14   13 ar
    14   15   14 ar
    15   16   15 1
    16   17   15 ar
    17   18   17 1
    18   19   17 ar
    19   20   19 1
    20   21   19 ar
    21   22   21 1
    22   23    1 ar
    23   24    1 1
    24   25   24 3
    25   26   25 1
    26   27   26 1
    27   28   26 1
    28   29   26 1
    29   30   29 1
    30   31   29 1
    31   32   29 1
    32   33   32 1
    33   34   32 1
    34   35   32 1
    35   36   35 1
    36   37   35 1
    37   38   35 1
    38   39   38 3
    39   40   39 1
    40   41   40 ar
    41   42   41 ar
    42   43   42 1
    43   44   42 ar
    44   45   44 1
    45   46   44 ar
    46   47   46 1
    47   48   46 ar
    48   49   48 1
    49   50   41 ar
    50   51   50 ar
    51   52   51 ar
    52   53   52 1
    53   54   52 ar
    54   55   54 1
    55   56   54 ar
    56   57   56 1
    57   58   56 ar
    58   59   58 1
    59   60   51 ar
    60   61   40 ar
    61   62   61 1
    62   11   13 ar
    63   14   23 ar
    64   21   23 ar
    65   48   50 ar
    66   58   60 ar
    67   60   61 ar
@<TRIPOS>SUBSTRUCTURE
     1 RES1 1

@<TRIPOS>CRYSIN
  14.6240    6.5840   25.9010  90.0000  90.0000  90.0000  33 1

