# MOL2 file generated by ConQuest
# Please check atom types

@<TRIPOS>MOLECULE
FUPGOO
    48    54     1
SMALL
NO_CHARGES
****
Generated from CSD

@<TRIPOS>ATOM
      1 C1         4.6431    0.2266    4.2795 C.ar      1 RES1    0.0000
      2 H1         4.8966    0.9589    4.8307 H         1 RES1    0.0000
      3 C2         5.0467   -1.0215    4.6154 C.ar      1 RES1    0.0000
      4 H2         5.5814   -1.1552    5.3887 H         1 RES1    0.0000
      5 C3         4.6732   -2.1249    3.8152 C.ar      1 RES1    0.0000
      6 H3         4.9586   -2.9977    4.0572 H         1 RES1    0.0000
      7 C4         3.9135   -1.9536    2.7050 C.ar      1 RES1    0.0000
      8 H4         3.6684   -2.7126    2.1897 H         1 RES1    0.0000
      9 C5         2.7250   -0.4066    1.1352 C.ar      1 RES1    0.0000
     10 C6         1.6366    0.9968   -0.3716 C.ar      1 RES1    0.0000
     11 C7         0.4637    2.4424   -2.0205 C.ar      1 RES1    0.0000
     12 H5         0.2497    1.6895   -2.5581 H         1 RES1    0.0000
     13 C8         0.0476    3.6748   -2.4133 C.ar      1 RES1    0.0000
     14 H6        -0.4514    3.7740   -3.2155 H         1 RES1    0.0000
     15 C9         0.3557    4.8083   -1.6282 C.ar      1 RES1    0.0000
     16 H7         0.0576    5.6659   -1.9080 H         1 RES1    0.0000
     17 C10        1.0673    4.6905   -0.4866 C.ar      1 RES1    0.0000
     18 H8         1.2584    5.4709    0.0203 H         1 RES1    0.0000
     19 C11        2.2654    3.3072    1.1849 C.ar      1 RES1    0.0000
     20 C12        3.4567    1.7641    2.7848 C.ar      1 RES1    0.0000
     21 H9         3.7148    2.4843    3.3481 H         1 RES1    0.0000
     22 C13        3.8442    0.4728    3.1163 C.ar      1 RES1    0.0000
     23 C14        3.4739   -0.6629    2.2947 C.ar      1 RES1    0.0000
     24 C15        2.3645    0.9170    0.8280 C.ar      1 RES1    0.0000
     25 C16        1.2117    2.2487   -0.8229 C.ar      1 RES1    0.0000
     26 C17        1.5443    3.4182   -0.0169 C.ar      1 RES1    0.0000
     27 C18        2.6941    2.0328    1.6376 C.ar      1 RES1    0.0000
     28 C19        2.1849   -1.2420    0.0470 C.ar      1 RES1    0.0000
     29 C20        2.2196   -2.6155   -0.1792 C.ar      1 RES1    0.0000
     30 H10        2.6624   -3.1915    0.4328 H         1 RES1    0.0000
     31 C21        1.6014   -3.1326   -1.3044 C.ar      1 RES1    0.0000
     32 H11        1.6212   -4.0690   -1.4623 H         1 RES1    0.0000
     33 C22        0.9574   -2.3011   -2.1991 C.ar      1 RES1    0.0000
     34 H12        0.5431   -2.6731   -2.9687 H         1 RES1    0.0000
     35 C23        0.9045   -0.9328   -1.9917 C.ar      1 RES1    0.0000
     36 H13        0.4519   -0.3715   -2.6096 H         1 RES1    0.0000
     37 C24        1.5180   -0.3894   -0.8728 C.ar      1 RES1    0.0000
     38 C25        2.5681    4.5167    2.0109 C.ar      1 RES1    0.0000
     39 C26        3.4983    5.4558    1.5881 C.ar      1 RES1    0.0000
     40 H14        3.9700    5.3154    0.7753 H         1 RES1    0.0000
     41 C27        3.7488    6.5929    2.3352 C.ar      1 RES1    0.0000
     42 H15        4.3834    7.2308    2.0295 H         1 RES1    0.0000
     43 C28        3.0791    6.8036    3.5216 C.ar      1 RES1    0.0000
     44 H16        3.2376    7.5937    4.0240 H         1 RES1    0.0000
     45 C29        2.1799    5.8629    3.9767 C.ar      1 RES1    0.0000
     46 H17        1.7334    5.9967    4.8049 H         1 RES1    0.0000
     47 C30        1.9251    4.7243    3.2325 C.ar      1 RES1    0.0000
     48 H18        1.3081    4.0788    3.5562 H         1 RES1    0.0000
@<TRIPOS>BOND
     1    1    2 1
     2    3    1 ar
     3    4    3 1
     4    5    3 ar
     5    6    5 1
     6    7    5 ar
     7    8    7 1
     8    9   23 ar
     9   10   24 ar
    10   11   12 1
    11   13   11 ar
    12   14   13 1
    13   15   13 ar
    14   16   15 1
    15   17   15 ar
    16   18   17 1
    17   19   26 ar
    18   20   21 1
    19   22    1 ar
    20   23    7 ar
    21   24    9 ar
    22   25   10 ar
    23   26   17 ar
    24   27   19 ar
    25   28    9 1
    26   29   28 ar
    27   30   29 1
    28   31   29 ar
    29   32   31 1
    30   33   31 ar
    31   34   33 1
    32   35   33 ar
    33   36   35 1
    34   37   10 1
    35   38   19 1
    36   39   38 ar
    37   40   39 1
    38   41   39 ar
    39   42   41 1
    40   43   41 ar
    41   44   43 1
    42   45   43 ar
    43   46   45 1
    44   47   38 ar
    45   48   47 1
    46   11   25 ar
    47   20   22 ar
    48   20   27 ar
    49   22   23 ar
    50   24   27 ar
    51   25   26 ar
    52   28   37 ar
    53   35   37 ar
    54   45   47 ar
@<TRIPOS>SUBSTRUCTURE
     1 RES1 1

@<TRIPOS>CRYSIN
   8.0531   12.3414   18.4991  90.0000  95.4150  90.0000 231 1

