# MOL2 file generated by ConQuest
# Please check atom types

@<TRIPOS>MOLECULE
FUPGII
   140   154     2
SMALL
NO_CHARGES
****
Generated from CSD

@<TRIPOS>ATOM
      1 C1         1.8296    2.9302   13.3493 C.ar      1 RES1    0.0000
      2 C2         1.4367    2.2840   12.1710 C.ar      1 RES1    0.0000
      3 C3         1.5387    3.3350   11.1252 C.ar      1 RES1    0.0000
      4 C4         1.3074    3.3140    9.7581 C.ar      1 RES1    0.0000
      5 H1         1.0062    2.5125    9.3479 H         1 RES1    0.0000
      6 C5         1.5121    4.4598    8.9686 C.ar      1 RES1    0.0000
      7 C6         1.9373    5.6197    9.6015 C.ar      1 RES1    0.0000
      8 H2         2.0779    6.4020    9.0813 H         1 RES1    0.0000
      9 C7         2.1659    5.6754   10.9803 C.ar      1 RES1    0.0000
     10 H3         2.4462    6.4891   11.3830 H         1 RES1    0.0000
     11 C8         1.9837    4.5494   11.7531 C.ar      1 RES1    0.0000
     12 C9         2.1671    4.2765   13.2011 C.ar      1 RES1    0.0000
     13 C10        2.5656    4.9851   14.3564 C.ar      1 RES1    0.0000
     14 C11        2.9234    6.3622   14.3232 C.ar      1 RES1    0.0000
     15 H4         2.9005    6.8243   13.4935 H         1 RES1    0.0000
     16 C12        3.2960    7.0368   15.4431 C.ar      1 RES1    0.0000
     17 H5         3.5278    7.9564   15.3863 H         1 RES1    0.0000
     18 C13        3.3415    6.3742   16.6958 C.ar      1 RES1    0.0000
     19 H6         3.6002    6.8541   17.4744 H         1 RES1    0.0000
     20 C14        3.0179    5.0583   16.7916 C.ar      1 RES1    0.0000
     21 H7         3.0588    4.6351   17.6419 H         1 RES1    0.0000
     22 C15        2.6190    4.2906   15.6562 C.ar      1 RES1    0.0000
     23 C16        1.3036    4.3776    7.4487 C.3       1 RES1    0.0000
     24 C17       -0.1308    3.9282    7.1349 C.3       1 RES1    0.0000
     25 H8        -0.3072    3.0696    7.5724 H         1 RES1    0.0000
     26 H9        -0.2375    3.8285    6.1654 H         1 RES1    0.0000
     27 H10       -0.7639    4.5994    7.4663 H         1 RES1    0.0000
     28 C18        2.2855    3.3484    6.8622 C.3       1 RES1    0.0000
     29 H11        2.1455    2.4807    7.2946 H         1 RES1    0.0000
     30 H12        3.2048    3.6479    7.0196 H         1 RES1    0.0000
     31 H13        2.1305    3.2622    5.8988 H         1 RES1    0.0000
     32 C19        1.5436    5.7115    6.7525 C.3       1 RES1    0.0000
     33 H14        2.4583    6.0132    6.9303 H         1 RES1    0.0000
     34 H15        0.9082    6.3759    7.0922 H         1 RES1    0.0000
     35 H16        1.4176    5.6029    5.7871 H         1 RES1    0.0000
     36 C20        5.5181    3.2305   13.6938 C.ar      2 RES2    0.0000
     37 C21        5.9718    4.2974   14.4689 C.ar      2 RES2    0.0000
     38 C22        6.0908    5.4246   13.5159 C.ar      2 RES2    0.0000
     39 C23        6.4578    6.7491   13.6663 C.ar      2 RES2    0.0000
     40 H17        6.7656    7.0649   14.5083 H         2 RES2    0.0000
     41 C24        6.3765    7.6190   12.5836 C.ar      2 RES2    0.0000
     42 H18        6.6305    8.5267   12.7021 H         2 RES2    0.0000
     43 C25        5.9285    7.1965   11.3209 C.ar      2 RES2    0.0000
     44 C26        5.6004    5.8474   11.1583 C.ar      2 RES2    0.0000
     45 H19        5.3194    5.5325   10.3068 H         2 RES2    0.0000
     46 C27        5.6811    4.9602   12.2262 C.ar      2 RES2    0.0000
     47 C28        5.3475    3.5170   12.3353 C.ar      2 RES2    0.0000
     48 C29        4.9450    2.4616   11.4922 C.ar      2 RES2    0.0000
     49 C30        4.8502    2.6018   10.0746 C.ar      2 RES2    0.0000
     50 H20        5.0415    3.4452    9.6801 H         2 RES2    0.0000
     51 C31        4.4940    1.5626    9.2727 C.ar      2 RES2    0.0000
     52 H21        4.4634    1.6847    8.3317 H         2 RES2    0.0000
     53 C32        4.1685    0.3024    9.8236 C.ar      2 RES2    0.0000
     54 H22        3.8983   -0.4077    9.2530 H         2 RES2    0.0000
     55 C33        4.2410    0.1029   11.1672 C.ar      2 RES2    0.0000
     56 H23        4.0108   -0.7491   11.5198 H         2 RES2    0.0000
     57 C34        4.6532    1.1353   12.0620 C.ar      2 RES2    0.0000
     58 C35        5.7650    8.2272   10.2014 C.3       2 RES2    0.0000
     59 C36        4.5775    9.1391   10.5411 C.3       2 RES2    0.0000
     60 H24        3.7641    8.5992   10.6251 H         2 RES2    0.0000
     61 H25        4.4589    9.8006    9.8281 H         2 RES2    0.0000
     62 H26        4.7516    9.6010   11.3886 H         2 RES2    0.0000
     63 C37        7.0261    9.0889   10.0772 C.3       2 RES2    0.0000
     64 H27        7.7928    8.5173    9.8644 H         2 RES2    0.0000
     65 H28        7.1892    9.5528   10.9252 H         2 RES2    0.0000
     66 H29        6.9022    9.7483    9.3633 H         2 RES2    0.0000
     67 C38        5.4964    7.5752    8.8394 C.3       2 RES2    0.0000
     68 H30        4.6912    7.0197    8.8970 H         2 RES2    0.0000
     69 H31        6.2617    7.0168    8.5872 H         2 RES2    0.0000
     70 H32        5.3645    8.2727    8.1642 H         2 RES2    0.0000
     71 C1A        1.8821    2.2820   14.5673 C.ar      1 RES1    0.0000
     72 C2A        2.2750    2.9282   15.7457 C.ar      1 RES1    0.0000
     73 C3A        2.1730    1.8772   16.7915 C.ar      1 RES1    0.0000
     74 C4A        2.4043    1.8982   18.1585 C.ar      1 RES1    0.0000
     75 H1A        2.7055    2.6997   18.5688 H         1 RES1    0.0000
     76 C5A        2.1996    0.7524   18.9480 C.ar      1 RES1    0.0000
     77 C6A        1.7744   -0.4076   18.3152 C.ar      1 RES1    0.0000
     78 H2A        1.6337   -1.1899   18.8354 H         1 RES1    0.0000
     79 C7A        1.5458   -0.4632   16.9363 C.ar      1 RES1    0.0000
     80 H3A        1.2655   -1.2769   16.5336 H         1 RES1    0.0000
     81 C8A        1.7280    0.6628   16.1636 C.ar      1 RES1    0.0000
     82 C9A        1.5446    0.9357   14.7156 C.ar      1 RES1    0.0000
     83 C10A       1.1461    0.2271   13.5602 C.ar      1 RES1    0.0000
     84 C11A       0.7883   -1.1500   13.5935 C.ar      1 RES1    0.0000
     85 H4A        0.8112   -1.6122   14.4231 H         1 RES1    0.0000
     86 C12A       0.4157   -1.8246   12.4736 C.ar      1 RES1    0.0000
     87 H5A        0.1838   -2.7442   12.5304 H         1 RES1    0.0000
     88 C13A       0.3702   -1.1620   11.2208 C.ar      1 RES1    0.0000
     89 H6A        0.1115   -1.6420   10.4422 H         1 RES1    0.0000
     90 C14A       0.6938    0.1538   11.1251 C.ar      1 RES1    0.0000
     91 H7A        0.6529    0.5771   10.2747 H         1 RES1    0.0000
     92 C15A       1.0927    0.9216   12.2604 C.ar      1 RES1    0.0000
     93 C16A       2.4081    0.8345   20.4679 C.3       1 RES1    0.0000
     94 C17A       3.8425    1.2840   20.7817 C.3       1 RES1    0.0000
     95 H8A        4.0188    2.1426   20.3443 H         1 RES1    0.0000
     96 H9A        3.9492    1.3837   21.7513 H         1 RES1    0.0000
     97 H10A       4.4756    0.6127   20.4504 H         1 RES1    0.0000
     98 C18A       1.4262    1.8637   21.0545 C.3       1 RES1    0.0000
     99 H11A       1.5662    2.7315   20.6220 H         1 RES1    0.0000
    100 H12A       0.5069    1.5643   20.8970 H         1 RES1    0.0000
    101 H13A       1.5812    1.9500   22.0179 H         1 RES1    0.0000
    102 C19A       2.1680   -0.4993   21.1642 C.3       1 RES1    0.0000
    103 H14A       1.2534   -0.8010   20.9864 H         1 RES1    0.0000
    104 H15A       2.8035   -1.1637   20.8244 H         1 RES1    0.0000
    105 H16A       2.2941   -0.3907   22.1295 H         1 RES1    0.0000
    106 C20A       5.2692    1.9817   14.2228 C.ar      2 RES2    0.0000
    107 C21A       4.8154    0.9148   13.4477 C.ar      2 RES2    0.0000
    108 C22A       4.6965   -0.2124   14.4008 C.ar      2 RES2    0.0000
    109 C23A       4.3295   -1.5369   14.2503 C.ar      2 RES2    0.0000
    110 H17A       4.0217   -1.8528   13.4084 H         2 RES2    0.0000
    111 C24A       4.4108   -2.4068   15.3331 C.ar      2 RES2    0.0000
    112 H18A       4.1568   -3.3145   15.2146 H         2 RES2    0.0000
    113 C25A       4.8588   -1.9843   16.5958 C.ar      2 RES2    0.0000
    114 C26A       5.1868   -0.6352   16.7584 C.ar      2 RES2    0.0000
    115 H19A       5.4679   -0.3204   17.6098 H         2 RES2    0.0000
    116 C27A       5.1062    0.2520   15.6904 C.ar      2 RES2    0.0000
    117 C28A       5.4398    1.6952   15.5814 C.ar      2 RES2    0.0000
    118 C29A       5.8423    2.7506   16.4245 C.ar      2 RES2    0.0000
    119 C30A       5.9371    2.6103   17.8421 C.ar      2 RES2    0.0000
    120 H20A       5.7458    1.7670   18.2366 H         2 RES2    0.0000
    121 C31A       6.2933    3.6496   18.6440 C.ar      2 RES2    0.0000
    122 H21A       6.3239    3.5275   19.5849 H         2 RES2    0.0000
    123 C32A       6.6188    4.9098   18.0931 C.ar      2 RES2    0.0000
    124 H22A       6.8890    5.6199   18.6637 H         2 RES2    0.0000
    125 C33A       6.5463    5.1093   16.7494 C.ar      2 RES2    0.0000
    126 H23A       6.7765    5.9612   16.3969 H         2 RES2    0.0000
    127 C34A       6.1340    4.0769   15.8547 C.ar      2 RES2    0.0000
    128 C35A       5.0223   -3.0150   17.7152 C.3       2 RES2    0.0000
    129 C36A       6.2098   -3.9269   17.3756 C.3       2 RES2    0.0000
    130 H24A       7.0232   -3.3870   17.2916 H         2 RES2    0.0000
    131 H25A       6.3283   -4.5884   18.0886 H         2 RES2    0.0000
    132 H26A       6.0357   -4.3888   16.5281 H         2 RES2    0.0000
    133 C37A       3.7612   -3.8767   17.8395 C.3       2 RES2    0.0000
    134 H27A       2.9945   -3.3051   18.0523 H         2 RES2    0.0000
    135 H28A       3.5981   -4.3406   16.9915 H         2 RES2    0.0000
    136 H29A       3.8851   -4.5362   18.5534 H         2 RES2    0.0000
    137 C38A       5.2909   -2.3631   19.0773 C.3       2 RES2    0.0000
    138 H30A       6.0961   -1.8075   19.0196 H         2 RES2    0.0000
    139 H31A       4.5256   -1.8047   19.3295 H         2 RES2    0.0000
    140 H32A       5.4228   -3.0606   19.7524 H         2 RES2    0.0000
@<TRIPOS>BOND
     1    1    2 ar
     2    2    3 1
     3    3    4 ar
     4    4    5 1
     5    6    4 ar
     6    7    6 ar
     7    8    7 1
     8    9    7 ar
     9   10    9 1
    10   11    3 ar
    11   12    1 ar
    12   13   12 ar
    13   14   13 ar
    14   15   14 1
    15   16   14 ar
    16   17   16 1
    17   18   16 ar
    18   19   18 1
    19   20   18 ar
    20   21   20 1
    21   22   13 ar
    22   23    6 1
    23   24   23 1
    24   25   24 1
    25   26   24 1
    26   27   24 1
    27   28   23 1
    28   29   28 1
    29   30   28 1
    30   31   28 1
    31   32   23 1
    32   33   32 1
    33   34   32 1
    34   35   32 1
    35   36   37 ar
    36   37   38 1
    37   38   39 ar
    38   39   40 1
    39   41   39 ar
    40   42   41 1
    41   43   41 ar
    42   44   43 ar
    43   45   44 1
    44   46   38 ar
    45   47   36 ar
    46   48   47 ar
    47   49   48 ar
    48   50   49 1
    49   51   49 ar
    50   52   51 1
    51   53   51 ar
    52   54   53 1
    53   55   53 ar
    54   56   55 1
    55   57   48 ar
    56   58   43 1
    57   59   58 1
    58   60   59 1
    59   61   59 1
    60   62   59 1
    61   63   58 1
    62   64   63 1
    63   65   63 1
    64   66   63 1
    65   67   58 1
    66   68   67 1
    67   69   67 1
    68   70   67 1
    69   71    1 ar
    70   72   22 ar
    71   73   72 1
    72   74   73 ar
    73   75   74 1
    74   76   74 ar
    75   77   76 ar
    76   78   77 1
    77   79   77 ar
    78   80   79 1
    79   81   73 ar
    80   82   71 ar
    81   83   82 ar
    82   84   83 ar
    83   85   84 1
    84   86   84 ar
    85   87   86 1
    86   88   86 ar
    87   89   88 1
    88   90   88 ar
    89   91   90 1
    90   92    2 ar
    91   93   76 1
    92   94   93 1
    93   95   94 1
    94   96   94 1
    95   97   94 1
    96   98   93 1
    97   99   98 1
    98  100   98 1
    99  101   98 1
   100  102   93 1
   101  103  102 1
   102  104  102 1
   103  105  102 1
   104  106   36 ar
   105  107   57 ar
   106  108  107 1
   107  109  108 ar
   108  110  109 1
   109  111  109 ar
   110  112  111 1
   111  113  111 ar
   112  114  113 ar
   113  115  114 1
   114  116  108 ar
   115  117  106 ar
   116  118  117 ar
   117  119  118 ar
   118  120  119 1
   119  121  119 ar
   120  122  121 1
   121  123  121 ar
   122  124  123 1
   123  125  123 ar
   124  126  125 1
   125  127   37 ar
   126  128  113 1
   127  129  128 1
   128  130  129 1
   129  131  129 1
   130  132  129 1
   131  133  128 1
   132  134  133 1
   133  135  133 1
   134  136  133 1
   135  137  128 1
   136  138  137 1
   137  139  137 1
   138  140  137 1
   139    9   11 ar
   140   11   12 1
   141   20   22 ar
   142   44   46 ar
   143   46   47 1
   144   55   57 ar
   145   71   72 ar
   146   79   81 ar
   147   81   82 1
   148   83   92 ar
   149   90   92 ar
   150  106  107 ar
   151  114  116 ar
   152  116  117 1
   153  118  127 ar
   154  125  127 ar
@<TRIPOS>SUBSTRUCTURE
     1 RES1 1
     2 RES2 36

@<TRIPOS>CRYSIN
   7.0756   12.9306   14.3203  78.5052  82.5538  81.4224   2 1

