# MOL2 file generated by ConQuest
# Please check atom types

@<TRIPOS>MOLECULE
FUPHAB
    72    79     1
SMALL
NO_CHARGES
****
Generated from CSD

@<TRIPOS>ATOM
      1 C1        12.8643   -1.6761    4.7947 C.ar      1 RES1    0.0000
      2 H1        13.7145   -1.2636    4.6958 H         1 RES1    0.0000
      3 C2        12.8038   -3.0210    5.1180 C.ar      1 RES1    0.0000
      4 H2        13.6054   -3.5192    5.2321 H         1 RES1    0.0000
      5 C3        11.5808   -3.6383    5.2749 C.ar      1 RES1    0.0000
      6 H3        11.5342   -4.5575    5.5093 H         1 RES1    0.0000
      7 C4        10.4240   -2.9061    5.0892 C.ar      1 RES1    0.0000
      8 H4         9.5837   -3.3356    5.1944 H         1 RES1    0.0000
      9 C5         9.1489   -0.7639    4.5373 C.3       1 RES1    0.0000
     10 C6         8.5525    0.1484    2.3749 C.ar      1 RES1    0.0000
     11 C7         7.9217    0.9609    0.0889 C.ar      1 RES1    0.0000
     12 H5         7.0723    0.5431    0.1689 H         1 RES1    0.0000
     13 C8         8.2318    1.6101   -1.0704 C.ar      1 RES1    0.0000
     14 H6         7.6061    1.6277   -1.7845 H         1 RES1    0.0000
     15 C9         9.4713    2.2508   -1.2106 C.ar      1 RES1    0.0000
     16 H7         9.6874    2.6984   -2.0207 H         1 RES1    0.0000
     17 C10       10.3687    2.2314   -0.1786 C.ar      1 RES1    0.0000
     18 H8        11.1986    2.6830   -0.2805 H         1 RES1    0.0000
     19 C11       11.0477    1.4495    2.1051 C.ar      1 RES1    0.0000
     20 C12       11.8080    0.5874    4.2316 C.3       1 RES1    0.0000
     21 C13       11.7176   -0.9112    4.6108 C.ar      1 RES1    0.0000
     22 C14       10.4546   -1.5558    4.7515 C.ar      1 RES1    0.0000
     23 C15        9.4393    0.2212    3.4288 C.ar      1 RES1    0.0000
     24 C16        8.8245    0.8907    1.1724 C.ar      1 RES1    0.0000
     25 C17       10.0973    1.5582    1.0363 C.ar      1 RES1    0.0000
     26 C18       10.6722    0.8444    3.2828 C.ar      1 RES1    0.0000
     27 C19        7.9529   -1.4984    3.9311 C.ar      1 RES1    0.0000
     28 C20        7.1912   -2.5170    4.4875 C.ar      1 RES1    0.0000
     29 H9         7.4221   -2.8774    5.3354 H         1 RES1    0.0000
     30 C21        6.0891   -3.0070    3.7963 C.ar      1 RES1    0.0000
     31 H10        5.5816   -3.7213    4.1611 H         1 RES1    0.0000
     32 C22        5.7289   -2.4593    2.5806 C.ar      1 RES1    0.0000
     33 H11        4.9771   -2.8048    2.1142 H         1 RES1    0.0000
     34 C23        6.4538   -1.4063    2.0312 C.ar      1 RES1    0.0000
     35 H12        6.1857   -1.0213    1.2055 H         1 RES1    0.0000
     36 C24        7.5760   -0.9187    2.7008 C.ar      1 RES1    0.0000
     37 C25       12.5140    1.6439    2.1739 C.ar      1 RES1    0.0000
     38 C26       13.4171    2.2309    1.2928 C.ar      1 RES1    0.0000
     39 H13       13.1030    2.6521    0.5019 H         1 RES1    0.0000
     40 C27       14.7747    2.1999    1.5701 C.ar      1 RES1    0.0000
     41 H14       15.3889    2.5919    0.9611 H         1 RES1    0.0000
     42 C28       15.2420    1.6030    2.7276 C.ar      1 RES1    0.0000
     43 H15       16.1750    1.5783    2.9031 H         1 RES1    0.0000
     44 C29       14.3510    1.0385    3.6377 C.ar      1 RES1    0.0000
     45 H16       14.6752    0.6495    4.4416 H         1 RES1    0.0000
     46 C30       12.9905    1.0446    3.3681 C.ar      1 RES1    0.0000
     47 C31       11.7258    1.5360    5.4778 C.3       1 RES1    0.0000
     48 H17       11.9739    2.4515    5.1911 H         1 RES1    0.0000
     49 H18       10.7855    1.5660    5.7865 H         1 RES1    0.0000
     50 C32       12.6050    1.1457    6.6510 C.3       1 RES1    0.0000
     51 H19       12.3399    0.2453    6.9658 H         1 RES1    0.0000
     52 H20       13.5450    1.0954    6.3458 H         1 RES1    0.0000
     53 C33       12.5169    2.1177    7.8124 C.3       1 RES1    0.0000
     54 H21       11.5719    2.1939    8.0975 H         1 RES1    0.0000
     55 H22       12.8144    3.0116    7.5070 H         1 RES1    0.0000
     56 C34       13.3603    1.6959    9.0051 C.3       1 RES1    0.0000
     57 H23       13.0422    0.8316    9.3407 H         1 RES1    0.0000
     58 H24       13.2850    2.3698    9.7130 H         1 RES1    0.0000
     59 H25       14.2977    1.6138    8.7306 H         1 RES1    0.0000
     60 C35        8.7031   -0.1399    5.8970 C.3       1 RES1    0.0000
     61 H26        8.3194   -0.8563    6.4639 H         1 RES1    0.0000
     62 H27        9.5036    0.2114    6.3622 H         1 RES1    0.0000
     63 C36        7.6828    0.9798    5.7701 C.3       1 RES1    0.0000
     64 H28        8.0264    1.6539    5.1321 H         1 RES1    0.0000
     65 H29        6.8467    0.6079    5.3928 H         1 RES1    0.0000
     66 C37        7.3606    1.6716    7.0847 C.3       1 RES1    0.0000
     67 H30        7.1207    0.9905    7.7612 H         1 RES1    0.0000
     68 H31        8.1651    2.1507    7.4070 H         1 RES1    0.0000
     69 C38        6.2146    2.6600    6.9438 C.3       1 RES1    0.0000
     70 H32        6.4261    3.3078    6.2392 H         1 RES1    0.0000
     71 H33        6.0835    3.1319    7.7924 H         1 RES1    0.0000
     72 H34        5.3943    2.1785    6.7082 H         1 RES1    0.0000
@<TRIPOS>BOND
     1    1    2 1
     2    3    1 ar
     3    4    3 1
     4    5    3 ar
     5    6    5 1
     6    7    5 ar
     7    8    7 1
     8    9   22 1
     9   10   23 ar
    10   11   12 1
    11   13   11 ar
    12   14   13 1
    13   15   13 ar
    14   16   15 1
    15   17   15 ar
    16   18   17 1
    17   19   25 ar
    18   20   21 1
    19   21    1 ar
    20   22    7 ar
    21   23    9 1
    22   24   10 ar
    23   25   17 ar
    24   26   19 ar
    25   27    9 1
    26   28   27 ar
    27   29   28 1
    28   30   28 ar
    29   31   30 1
    30   32   30 ar
    31   33   32 1
    32   34   32 ar
    33   35   34 1
    34   36   10 1
    35   37   19 1
    36   38   37 ar
    37   39   38 1
    38   40   38 ar
    39   41   40 1
    40   42   40 ar
    41   43   42 1
    42   44   42 ar
    43   45   44 1
    44   46   20 1
    45   47   20 1
    46   48   47 1
    47   49   47 1
    48   50   47 1
    49   51   50 1
    50   52   50 1
    51   53   50 1
    52   54   53 1
    53   55   53 1
    54   56   53 1
    55   57   56 1
    56   58   56 1
    57   59   56 1
    58   60    9 1
    59   61   60 1
    60   62   60 1
    61   63   60 1
    62   64   63 1
    63   65   63 1
    64   66   63 1
    65   67   66 1
    66   68   66 1
    67   69   66 1
    68   70   69 1
    69   71   69 1
    70   72   69 1
    71   11   24 ar
    72   20   26 1
    73   21   22 ar
    74   23   26 ar
    75   24   25 ar
    76   27   36 ar
    77   34   36 ar
    78   37   46 ar
    79   44   46 ar
@<TRIPOS>SUBSTRUCTURE
     1 RES1 1

@<TRIPOS>CRYSIN
  10.3410   15.4282   16.5483  90.0000  97.6351  90.0000  14 1

