# MOL2 file generated by ConQuest
# Please check atom types

@<TRIPOS>MOLECULE
FUPHEF
    60    67     1
SMALL
NO_CHARGES
****
Generated from CSD

@<TRIPOS>ATOM
      1 C1         5.7022    6.8129   12.7167 C.ar      1 RES1    0.0000
      2 H1         4.7930    6.7721   12.9907 H         1 RES1    0.0000
      3 C2         6.5429    5.7498   12.9982 C.ar      1 RES1    0.0000
      4 H2         6.2140    4.9927   13.4689 H         1 RES1    0.0000
      5 C3         7.8606    5.7943   12.5909 C.ar      1 RES1    0.0000
      6 H3         8.4385    5.0602   12.7628 H         1 RES1    0.0000
      7 C4         8.3357    6.9130   11.9315 C.ar      1 RES1    0.0000
      8 H4         9.2462    6.9403   11.6605 H         1 RES1    0.0000
      9 C5         8.0617    9.2596   10.9455 C.3       1 RES1    0.0000
     10 C6         8.2236   11.3664   12.1208 C.ar      1 RES1    0.0000
     11 C7         8.4584   13.4819   13.4299 C.ar      1 RES1    0.0000
     12 H5         9.3577   13.5703   13.1382 H         1 RES1    0.0000
     13 C8         7.9510   14.3999   14.3139 C.ar      1 RES1    0.0000
     14 H6         8.4989   15.1083   14.6308 H         1 RES1    0.0000
     15 C9         6.6264   14.2937   14.7495 C.ar      1 RES1    0.0000
     16 H7         6.2810   14.9200   15.3741 H         1 RES1    0.0000
     17 C10        5.8267   13.2902   14.2777 C.ar      1 RES1    0.0000
     18 H8         4.9276   13.2353   14.5816 H         1 RES1    0.0000
     19 C11        5.4919   11.2382   12.8686 C.ar      1 RES1    0.0000
     20 C12        5.2258    9.1287   11.7450 C.3       1 RES1    0.0000
     21 H9         4.9235    9.0856   10.7921 H         1 RES1    0.0000
     22 C13        6.1580    7.9373   12.0438 C.ar      1 RES1    0.0000
     23 C14        7.5150    7.9960   11.6559 C.ar      1 RES1    0.0000
     24 C15        7.3702   10.4232   11.5978 C.ar      1 RES1    0.0000
     25 C16        7.6800   12.4098   12.9423 C.ar      1 RES1    0.0000
     26 C17        6.2973   12.3297   13.3505 C.ar      1 RES1    0.0000
     27 C18        6.0385   10.3628   11.9553 C.ar      1 RES1    0.0000
     28 C19        9.5182    9.6439   11.1970 C.ar      1 RES1    0.0000
     29 C20       10.6742    8.9740   10.8182 C.ar      1 RES1    0.0000
     30 H10       10.6189    8.1645   10.3244 H         1 RES1    0.0000
     31 C21       11.9127    9.4989   11.1669 C.ar      1 RES1    0.0000
     32 H11       12.7070    9.0346   10.9291 H         1 RES1    0.0000
     33 C22       11.9964   10.6948   11.8585 C.ar      1 RES1    0.0000
     34 H12       12.8487   11.0320   12.1089 H         1 RES1    0.0000
     35 C23       10.8543   11.4060   12.1896 C.ar      1 RES1    0.0000
     36 H13       10.9237   12.2408   12.6392 H         1 RES1    0.0000
     37 C24        9.6022   10.8885   11.8595 C.ar      1 RES1    0.0000
     38 C25        4.1892   10.6648   13.2769 C.ar      1 RES1    0.0000
     39 C26        3.1862   11.1136   14.1434 C.ar      1 RES1    0.0000
     40 H14        3.2662   11.9566   14.5742 H         1 RES1    0.0000
     41 C27        2.0748   10.3167   14.3665 C.ar      1 RES1    0.0000
     42 H15        1.4032   10.6093   14.9719 H         1 RES1    0.0000
     43 C28        1.9264    9.1006   13.7221 C.ar      1 RES1    0.0000
     44 H16        1.1550    8.5705   13.8875 H         1 RES1    0.0000
     45 C29        2.8979    8.6489   12.8354 C.ar      1 RES1    0.0000
     46 H17        2.7802    7.8294   12.3696 H         1 RES1    0.0000
     47 C30        4.0383    9.4082   12.6408 C.ar      1 RES1    0.0000
     48 C31        7.7532    9.1400    9.4294 C.3       1 RES1    0.0000
     49 H18        8.2027    8.3302    9.0806 H         1 RES1    0.0000
     50 H19        6.7779    9.0122    9.3159 H         1 RES1    0.0000
     51 C32        8.1844   10.3312    8.5881 C.3       1 RES1    0.0000
     52 H20        9.1701   10.3192    8.4951 H         1 RES1    0.0000
     53 H21        7.9363   11.1646    9.0612 H         1 RES1    0.0000
     54 C33        7.5560   10.3437    7.1989 C.3       1 RES1    0.0000
     55 H22        7.7678    9.4928    6.7389 H         1 RES1    0.0000
     56 H23        6.5715   10.4033    7.2886 H         1 RES1    0.0000
     57 C34        8.0517   11.5055    6.3528 C.3       1 RES1    0.0000
     58 H24        9.0244   11.4416    6.2488 H         1 RES1    0.0000
     59 H25        7.8246   12.3509    6.7940 H         1 RES1    0.0000
     60 H26        7.6253   11.4724    5.4713 H         1 RES1    0.0000
@<TRIPOS>BOND
     1    1    2 1
     2    3    1 ar
     3    4    3 1
     4    5    3 ar
     5    6    5 1
     6    7    5 ar
     7    8    7 1
     8    9   23 1
     9   10   24 ar
    10   11   12 1
    11   13   11 ar
    12   14   13 1
    13   15   13 ar
    14   16   15 1
    15   17   15 ar
    16   18   17 1
    17   19   26 ar
    18   20   21 1
    19   22    1 ar
    20   23    7 ar
    21   24    9 1
    22   25   10 ar
    23   26   17 ar
    24   27   19 ar
    25   28    9 1
    26   29   28 ar
    27   30   29 1
    28   31   29 ar
    29   32   31 1
    30   33   31 ar
    31   34   33 1
    32   35   33 ar
    33   36   35 1
    34   37   10 1
    35   38   19 1
    36   39   38 ar
    37   40   39 1
    38   41   39 ar
    39   42   41 1
    40   43   41 ar
    41   44   43 1
    42   45   43 ar
    43   46   45 1
    44   47   20 1
    45   48    9 1
    46   49   48 1
    47   50   48 1
    48   51   48 1
    49   52   51 1
    50   53   51 1
    51   54   51 1
    52   55   54 1
    53   56   54 1
    54   57   54 1
    55   58   57 1
    56   59   57 1
    57   60   57 1
    58   11   25 ar
    59   20   22 1
    60   20   27 1
    61   22   23 ar
    62   24   27 ar
    63   25   26 ar
    64   28   37 ar
    65   35   37 ar
    66   38   47 ar
    67   45   47 ar
@<TRIPOS>SUBSTRUCTURE
     1 RES1 1

@<TRIPOS>CRYSIN
  12.5978   11.8394   15.8500  90.0000 109.9810  90.0000 231 1

