# MOL2 file generated by ConQuest
# Please check atom types

@<TRIPOS>MOLECULE
FUVGEI
    24    26     1
SMALL
NO_CHARGES
****
Generated from CSD

@<TRIPOS>ATOM
      1 C1        -2.7911    4.4907    2.7465 C.ar      1 RES1    0.0000
      2 C2        -3.9565    5.1082    3.0030 C.ar      1 RES1    0.0000
      3 C3        -4.0909    5.9726    4.0167 C.ar      1 RES1    0.0000
      4 C4        -3.0909    6.2670    4.9489 C.ar      1 RES1    0.0000
      5 C5        -1.8285    5.6199    4.7576 C.ar      1 RES1    0.0000
      6 C6        -0.6741    5.8057    5.6356 C.ar      1 RES1    0.0000
      7 C7        -0.7563    6.6925    6.7945 C.ar      1 RES1    0.0000
      8 C8         0.4232    6.8047    7.5720 C.ar      1 RES1    0.0000
      9 H1        -2.6227    3.7879    1.8726 H         1 RES1    0.0000
     10 H2        -4.8192    4.8740    2.3205 H         1 RES1    0.0000
     11 H3        -5.1040    6.4717    4.1388 H         1 RES1    0.0000
     12 H4        -1.7091    7.2526    7.0835 H         1 RES1    0.0000
     13 H5         0.3997    7.4950    8.4676 H         1 RES1    0.0000
     14 C9         1.5768    6.1647    7.3020 C.ar      1 RES1    0.0000
     15 C10        1.6248    5.3721    6.2340 C.ar      1 RES1    0.0000
     16 C11        0.5815    5.2052    5.3954 C.ar      1 RES1    0.0000
     17 C12        0.8655    4.3390    4.2894 C.ar      1 RES1    0.0000
     18 C13       -0.4368    4.2106    3.4929 C.ar      1 RES1    0.0000
     19 C14       -1.7508    4.7986    3.6584 C.ar      1 RES1    0.0000
     20 C15       -3.2601    7.2571    6.1580 C.3       1 RES1    0.0000
     21 H6         2.4770    6.3191    8.0062 H         1 RES1    0.0000
     22 H7         2.5846    4.8111    6.0386 H         1 RES1    0.0000
     23 H8         1.8321    3.8507    4.0303 H         1 RES1    0.0000
     24 H9        -0.3527    3.4647    2.6326 H         1 RES1    0.0000
@<TRIPOS>BOND
     1    1    2 ar
     2    2    3 ar
     3    3    4 ar
     4    4    5 ar
     5    5    6 ar
     6    6    7 ar
     7    7    8 ar
     8    8   13 1
     9    9    1 1
    10   10    2 1
    11   11    3 1
    12   12    7 1
    13   14    8 ar
    14   15   14 ar
    15   16    6 ar
    16   17   16 ar
    17   18   17 ar
    18   19    1 ar
    19   20    4 1
    20   21   14 1
    21   22   15 1
    22   23   17 1
    23   24   18 1
    24    5   19 ar
    25   15   16 ar
    26   18   19 ar
@<TRIPOS>SUBSTRUCTURE
     1 RES1 1

@<TRIPOS>CRYSIN
   8.6610    8.9760   13.7160  90.0000  98.3700  90.0000  14 1

