# MOL2 file generated by ConQuest
# Please check atom types

@<TRIPOS>MOLECULE
FUYZUW
    52    60     1
SMALL
NO_CHARGES
****
Generated from CSD

@<TRIPOS>ATOM
      1 C1         6.4955    3.0520    4.9857 C.ar      1 RES1    0.0000
      2 C2         7.7274    2.6011    4.6831 C.ar      1 RES1    0.0000
      3 H1         8.2550    2.2177    5.3451 H         1 RES1    0.0000
      4 C3         8.2249    2.7112    3.3408 C.ar      1 RES1    0.0000
      5 C4         9.5626    2.4077    3.0556 C.ar      1 RES1    0.0000
      6 H2        10.0986    2.0457    3.7234 H         1 RES1    0.0000
      7 C5        10.0938    2.6317    1.8184 C.ar      1 RES1    0.0000
      8 H3        10.9736    2.3936    1.6395 H         1 RES1    0.0000
      9 C6         9.3161    3.2157    0.8282 C.ar      1 RES1    0.0000
     10 H4         9.6926    3.4154    0.0000 H         1 RES1    0.0000
     11 C7         7.9902    3.5001    1.0693 C.ar      1 RES1    0.0000
     12 H5         7.4842    3.8980    0.3999 H         1 RES1    0.0000
     13 C8         7.3880    3.2039    2.2998 C.ar      1 RES1    0.0000
     14 C9         5.9801    3.4875    2.5919 C.ar      1 RES1    0.0000
     15 C10        4.9148    3.7022    1.6926 C.ar      1 RES1    0.0000
     16 C11        4.6838    3.4519    0.2468 C.ar      1 RES1    0.0000
     17 C12        5.4258    2.8119   -0.7398 C.ar      1 RES1    0.0000
     18 H6         6.2660    2.4703   -0.5421 H         1 RES1    0.0000
     19 C13        4.9036    2.6854   -2.0205 C.ar      1 RES1    0.0000
     20 H7         5.4089    2.2674   -2.6792 H         1 RES1    0.0000
     21 C14        3.6474    3.1663   -2.3373 C.ar      1 RES1    0.0000
     22 H8         3.3238    3.0970   -3.2058 H         1 RES1    0.0000
     23 C15        2.8706    3.7546   -1.3487 C.ar      1 RES1    0.0000
     24 H9         2.0133    4.0609   -1.5462 H         1 RES1    0.0000
     25 C16        3.3794    3.8812   -0.0691 C.ar      1 RES1    0.0000
     26 C17        2.7460    4.3563    1.1688 C.ar      1 RES1    0.0000
     27 C18        1.5113    4.8098    1.4367 C.ar      1 RES1    0.0000
     28 H10        0.8828    4.8799    0.7553 H         1 RES1    0.0000
     29 C19        1.1686    5.1855    2.7781 C.ar      1 RES1    0.0000
     30 C20       -0.0922    5.7538    3.0369 C.ar      1 RES1    0.0000
     31 H11       -0.7094    5.8196    2.3438 H         1 RES1    0.0000
     32 C21       -0.4337    6.2124    4.2823 C.ar      1 RES1    0.0000
     33 H12       -1.2812    6.5599    4.4410 H         1 RES1    0.0000
     34 C22        0.5010    6.1517    5.3027 C.ar      1 RES1    0.0000
     35 H13        0.2948    6.5011    6.1405 H         1 RES1    0.0000
     36 C23        1.7320    5.5783    5.0870 C.ar      1 RES1    0.0000
     37 H14        2.3433    5.5501    5.7872 H         1 RES1    0.0000
     38 C24        2.0963    5.0339    3.8458 C.ar      1 RES1    0.0000
     39 C25        3.3945    4.4088    3.5890 C.ar      1 RES1    0.0000
     40 C26        3.6995    4.1855    2.2291 C.ar      1 RES1    0.0000
     41 C27        4.3829    3.9446    4.4985 C.ar      1 RES1    0.0000
     42 C28        5.6234    3.5365    3.9487 C.ar      1 RES1    0.0000
     43 C29        4.4595    3.6501    5.9639 C.ar      1 RES1    0.0000
     44 C30        3.5506    3.6994    7.0111 C.ar      1 RES1    0.0000
     45 H15        2.6935    4.0249    6.8625 H         1 RES1    0.0000
     46 C31        3.9160    3.2650    8.2770 C.ar      1 RES1    0.0000
     47 H16        3.2985    3.3179    8.9730 H         1 RES1    0.0000
     48 C32        5.1773    2.7547    8.5258 C.ar      1 RES1    0.0000
     49 H17        5.4089    2.4750    9.3818 H         1 RES1    0.0000
     50 C33        6.0915    2.6626    7.4976 C.ar      1 RES1    0.0000
     51 H18        6.9389    2.3066    7.6512 H         1 RES1    0.0000
     52 C34        5.7378    3.1056    6.2362 C.ar      1 RES1    0.0000
@<TRIPOS>BOND
     1    1    2 ar
     2    2    3 1
     3    4    2 ar
     4    5    4 ar
     5    6    5 1
     6    7    5 ar
     7    8    7 1
     8    9    7 ar
     9   10    9 1
    10   11    9 ar
    11   12   11 1
    12   13    4 ar
    13   14   13 ar
    14   15   14 ar
    15   16   15 1
    16   17   16 ar
    17   18   17 1
    18   19   17 ar
    19   20   19 1
    20   21   19 ar
    21   22   21 1
    22   23   21 ar
    23   24   23 1
    24   25   16 ar
    25   26   25 1
    26   27   26 ar
    27   28   27 1
    28   29   27 ar
    29   30   29 ar
    30   31   30 1
    31   32   30 ar
    32   33   32 1
    33   34   32 ar
    34   35   34 1
    35   36   34 ar
    36   37   36 1
    37   38   29 ar
    38   39   38 ar
    39   40   15 ar
    40   41   39 ar
    41   42    1 ar
    42   43   41 1
    43   44   43 ar
    44   45   44 1
    45   46   44 ar
    46   47   46 1
    47   48   46 ar
    48   49   48 1
    49   50   48 ar
    50   51   50 1
    51   52    1 1
    52   11   13 ar
    53   14   42 ar
    54   23   25 ar
    55   26   40 ar
    56   36   38 ar
    57   39   40 ar
    58   41   42 ar
    59   43   52 ar
    60   50   52 ar
@<TRIPOS>SUBSTRUCTURE
     1 RES1 1

@<TRIPOS>CRYSIN
  45.9800    3.9168   23.6980  90.0000 110.3710  90.0000  15 1

