# MOL2 file generated by ConQuest
# Please check atom types

@<TRIPOS>MOLECULE
GABMAA
    48    55     1
SMALL
NO_CHARGES
****
Generated from CSD

@<TRIPOS>ATOM
      1 C1         2.8457    3.9189    2.6886 C.ar      1 RES1    0.0000
      2 C2         3.9198    3.2556    3.2600 C.ar      1 RES1    0.0000
      3 H1         4.7202    3.2133    2.7879 H         1 RES1    0.0000
      4 C3         3.8516    2.6712    4.4660 C.ar      1 RES1    0.0000
      5 H2         4.5980    2.2504    4.8279 H         1 RES1    0.0000
      6 C4         2.6637    2.7021    5.1637 C.ar      1 RES1    0.0000
      7 H3         2.6090    2.3082    6.0038 H         1 RES1    0.0000
      8 C5         1.5956    3.2939    4.6374 C.ar      1 RES1    0.0000
      9 H4         0.7942    3.2727    5.1096 H         1 RES1    0.0000
     10 C6         1.6337    3.9417    3.4094 C.ar      1 RES1    0.0000
     11 C7         0.5390    4.6148    2.8560 C.ar      1 RES1    0.0000
     12 C8        -0.8831    4.6579    3.1187 C.ar      1 RES1    0.0000
     13 C9        -1.6324    4.1191    4.1312 C.ar      1 RES1    0.0000
     14 H5        -1.2291    3.6194    4.8038 H         1 RES1    0.0000
     15 C10       -2.9794    4.3283    4.1372 C.ar      1 RES1    0.0000
     16 H6        -3.4991    3.9531    4.8118 H         1 RES1    0.0000
     17 C11       -3.5721    5.0739    3.1758 C.ar      1 RES1    0.0000
     18 H7        -4.4881    5.2236    3.2119 H         1 RES1    0.0000
     19 C12       -2.8438    5.6110    2.1513 C.ar      1 RES1    0.0000
     20 H8        -3.2545    6.1254    1.4937 H         1 RES1    0.0000
     21 C13       -1.5010    5.3742    2.1162 C.ar      1 RES1    0.0000
     22 C14       -0.5039    5.8869    1.1438 C.3       1 RES1    0.0000
     23 H9        -0.4790    6.8652    1.2010 H         1 RES1    0.0000
     24 C15       -0.5220    5.4841   -0.3068 C.ar      1 RES1    0.0000
     25 C16       -1.6869    5.1471   -0.9343 C.ar      1 RES1    0.0000
     26 H10       -2.4843    5.1756   -0.4571 H         1 RES1    0.0000
     27 C17       -1.7078    4.7695   -2.2375 C.ar      1 RES1    0.0000
     28 H11       -2.5086    4.5277   -2.6445 H         1 RES1    0.0000
     29 C18       -0.5487    4.7491   -2.9422 C.ar      1 RES1    0.0000
     30 H12       -0.5509    4.4992   -3.8374 H         1 RES1    0.0000
     31 C19        0.6036    5.0918   -2.3418 C.ar      1 RES1    0.0000
     32 H13        1.3899    5.0877   -2.8380 H         1 RES1    0.0000
     33 C20        0.6565    5.4450   -1.0225 C.ar      1 RES1    0.0000
     34 C21        1.9549    5.7771   -0.3539 C.3       1 RES1    0.0000
     35 H14        2.0767    6.7497   -0.3549 H         1 RES1    0.0000
     36 C22        3.2248    5.1276   -0.7759 C.ar      1 RES1    0.0000
     37 C23        3.8808    5.1968   -1.9568 C.ar      1 RES1    0.0000
     38 H15        3.5315    5.7038   -2.6545 H         1 RES1    0.0000
     39 C24        5.0555    4.5212   -2.1232 C.ar      1 RES1    0.0000
     40 H16        5.4940    4.5530   -2.9422 H         1 RES1    0.0000
     41 C25        5.5881    3.8001   -1.0977 C.ar      1 RES1    0.0000
     42 H17        6.3832    3.3329   -1.2230 H         1 RES1    0.0000
     43 C26        4.9598    3.7610    0.1123 C.ar      1 RES1    0.0000
     44 H18        5.3304    3.2808    0.8170 H         1 RES1    0.0000
     45 C27        3.7853    4.4301    0.2827 C.ar      1 RES1    0.0000
     46 C28        2.9093    4.5318    1.4235 C.ar      1 RES1    0.0000
     47 C29        1.8750    5.3058    1.0355 C.ar      1 RES1    0.0000
     48 C30        0.7153    5.3514    1.7303 C.ar      1 RES1    0.0000
@<TRIPOS>BOND
     1    1    2 ar
     2    2    3 1
     3    4    2 ar
     4    5    4 1
     5    6    4 ar
     6    7    6 1
     7    8    6 ar
     8    9    8 1
     9   10    1 ar
    10   11   10 ar
    11   12   11 1
    12   13   12 ar
    13   14   13 1
    14   15   13 ar
    15   16   15 1
    16   17   15 ar
    17   18   17 1
    18   19   17 ar
    19   20   19 1
    20   21   12 ar
    21   22   21 1
    22   23   22 1
    23   24   22 1
    24   25   24 ar
    25   26   25 1
    26   27   25 ar
    27   28   27 1
    28   29   27 ar
    29   30   29 1
    30   31   29 ar
    31   32   31 1
    32   33   24 ar
    33   34   33 1
    34   35   34 1
    35   36   34 1
    36   37   36 ar
    37   38   37 1
    38   39   37 ar
    39   40   39 1
    40   41   39 ar
    41   42   41 1
    42   43   41 ar
    43   44   43 1
    44   45   36 ar
    45   46    1 ar
    46   47   34 1
    47   48   11 ar
    48    8   10 ar
    49   19   21 ar
    50   22   48 1
    51   31   33 ar
    52   43   45 ar
    53   45   46 1
    54   46   47 ar
    55   47   48 ar
@<TRIPOS>SUBSTRUCTURE
     1 RES1 1

@<TRIPOS>CRYSIN
  10.7350    8.1390   11.1440  90.0000 115.9000  90.0000   4 1

