# MOL2 file generated by ConQuest
# Please check atom types

@<TRIPOS>MOLECULE
GAMWOI
    92   108     2
SMALL
NO_CHARGES
****
Generated from CSD

@<TRIPOS>ATOM
      1 C1        13.5306   11.8143    4.1185 C.ar      1 RES1    0.0000
      2 H1        13.9509   11.1013    4.5835 H         1 RES1    0.0000
      3 C2        12.1451   11.9095    4.0937 C.ar      1 RES1    0.0000
      4 H2        11.6288   11.2373    4.5214 H         1 RES1    0.0000
      5 C3        11.4717   12.9868    3.4463 C.ar      1 RES1    0.0000
      6 C4        12.2777   14.0275    2.7943 C.ar      1 RES1    0.0000
      7 C5        11.6023   15.2096    2.1509 C.ar      1 RES1    0.0000
      8 C6        12.1124   16.5984    2.0344 C.ar      1 RES1    0.0000
      9 C7        11.2044   17.6344    1.7317 C.ar      1 RES1    0.0000
     10 C8        11.2534   19.1953    1.8900 C.3       1 RES1    0.0000
     11 H3        11.8165   19.4606    2.6600 H         1 RES1    0.0000
     12 H4        11.6023   19.6271    1.0704 H         1 RES1    0.0000
     13 C9         9.7536   19.5655    2.1322 C.ar      1 RES1    0.0000
     14 C10        9.1149   20.6927    2.6336 C.ar      1 RES1    0.0000
     15 H5         9.5944   21.5035    2.7493 H         1 RES1    0.0000
     16 C11        7.7355   20.6193    2.9713 C.ar      1 RES1    0.0000
     17 H6         7.2866   21.4121    3.2391 H         1 RES1    0.0000
     18 C12       14.3059   12.7820    3.4479 C.ar      1 RES1    0.0000
     19 H7        15.2527   12.7009    3.4293 H         1 RES1    0.0000
     20 C13       13.6836   13.8664    2.8091 C.ar      1 RES1    0.0000
     21 H8        14.2264   14.5140    2.3713 H         1 RES1    0.0000
     22 C14       10.0046   13.0607    3.4339 C.ar      1 RES1    0.0000
     23 C15        9.0496   12.4532    4.3591 C.ar      1 RES1    0.0000
     24 H9         9.3332   11.7181    4.8893 H         1 RES1    0.0000
     25 C16        7.7396   12.9103    4.4958 C.ar      1 RES1    0.0000
     26 H10        7.1540   12.4734    5.1035 H         1 RES1    0.0000
     27 C17        7.2479   14.0470    3.7211 C.ar      1 RES1    0.0000
     28 C18        8.1028   14.4701    2.6841 C.ar      1 RES1    0.0000
     29 C19        8.0396   15.7974    2.1058 C.ar      1 RES1    0.0000
     30 C20        9.3557   16.0566    1.5540 C.ar      1 RES1    0.0000
     31 C21       10.2494   15.0042    1.8838 C.ar      1 RES1    0.0000
     32 C22        9.4536   13.9879    2.5622 C.ar      1 RES1    0.0000
     33 C23       13.5224   16.9683    2.4489 C.3       1 RES1    0.0000
     34 H11       13.5959   17.9431    2.5242 H         1 RES1    0.0000
     35 H12       14.1570   16.6437    1.7759 H         1 RES1    0.0000
     36 H13       13.7264   16.5569    3.3152 H         1 RES1    0.0000
     37 C24        8.9680   18.4150    1.9428 C.ar      1 RES1    0.0000
     38 C25        7.6335   18.2191    2.4256 C.ar      1 RES1    0.0000
     39 C26        7.1764   16.8015    2.6026 C.ar      1 RES1    0.0000
     40 C27        6.1766   16.3043    3.5418 C.ar      1 RES1    0.0000
     41 H14        5.4889   16.8946    3.8205 H         1 RES1    0.0000
     42 C28        6.1827   14.9934    4.0556 C.ar      1 RES1    0.0000
     43 H15        5.4787   14.7180    4.6308 H         1 RES1    0.0000
     44 C29        7.0091   19.4031    2.9239 C.ar      1 RES1    0.0000
     45 H16        6.1072   19.3762    3.2220 H         1 RES1    0.0000
     46 C30        9.8209   17.3384    1.5571 C.ar      1 RES1    0.0000
     47 C31       17.1994    2.7489    3.0054 C.ar      2 RES2    0.0000
     48 H17       16.7607    1.9538    3.2849 H         2 RES2    0.0000
     49 C32       18.5849    2.6802    2.6569 C.ar      2 RES2    0.0000
     50 H18       19.0766    1.8764    2.7788 H         2 RES2    0.0000
     51 C33       19.1909    3.8100    2.1392 C.ar      2 RES2    0.0000
     52 C34       20.6948    4.2123    1.8877 C.3       2 RES2    0.0000
     53 H19       21.2641    3.9662    2.6593 H         2 RES2    0.0000
     54 H20       21.0498    3.7786    1.0719 H         2 RES2    0.0000
     55 C35       20.6213    5.7704    1.7146 C.ar      2 RES2    0.0000
     56 C36       21.5150    6.8151    2.0111 C.ar      2 RES2    0.0000
     57 C37       20.9927    8.1994    2.1446 C.ar      2 RES2    0.0000
     58 C38       21.6477    9.3818    2.7935 C.ar      2 RES2    0.0000
     59 C39       20.8396   10.4131    3.4525 C.ar      2 RES2    0.0000
     60 C40       21.5028   11.4800    4.1084 C.ar      2 RES2    0.0000
     61 H21       20.9825   12.1403    4.5501 H         2 RES2    0.0000
     62 C41       22.8965   11.5931    4.1278 C.ar      2 RES2    0.0000
     63 H22       23.3168   12.3092    4.5889 H         2 RES2    0.0000
     64 C42       16.4587    3.9529    2.9503 C.ar      2 RES2    0.0000
     65 H23       15.5588    3.9662    3.2569 H         2 RES2    0.0000
     66 C43       17.0504    5.1474    2.4373 C.ar      2 RES2    0.0000
     67 C44       16.5995    6.5627    2.6243 C.ar      2 RES2    0.0000
     68 C45       15.5853    7.0353    3.5666 C.ar      2 RES2    0.0000
     69 H24       14.8956    6.4384    3.8329 H         2 RES2    0.0000
     70 C46       15.5894    8.3256    4.0890 C.ar      2 RES2    0.0000
     71 H25       14.8895    8.5916    4.6743 H         2 RES2    0.0000
     72 C47       16.6382    9.2802    3.7607 C.ar      2 RES2    0.0000
     73 C48       17.1157   10.4037    4.5470 C.ar      2 RES2    0.0000
     74 H26       16.5260   10.8174    5.1672 H         2 RES2    0.0000
     75 C49       18.4196   10.8925    4.4127 C.ar      2 RES2    0.0000
     76 H27       18.7012   11.6149    4.9622 H         2 RES2    0.0000
     77 C50       19.3582   10.3258    3.4533 C.ar      2 RES2    0.0000
     78 C51       18.8277    9.3951    2.5754 C.ar      2 RES2    0.0000
     79 C52       17.4891    8.8838    2.7097 C.ar      2 RES2    0.0000
     80 C53       17.4320    7.5741    2.1330 C.ar      2 RES2    0.0000
     81 C54       18.7461    7.3327    1.5656 C.ar      2 RES2    0.0000
     82 C55       19.2358    6.0537    1.5540 C.ar      2 RES2    0.0000
     83 C56       18.3910    4.9624    1.9514 C.ar      2 RES2    0.0000
     84 C57       23.0617    9.5570    2.8044 C.ar      2 RES2    0.0000
     85 H28       23.6086    8.9246    2.3550 H         2 RES2    0.0000
     86 C58       23.6657   10.6314    3.4564 C.ar      2 RES2    0.0000
     87 H29       24.6125   10.7142    3.4456 H         2 RES2    0.0000
     88 C59       19.6153    8.3974    1.8807 C.ar      2 RES2    0.0000
     89 C60       22.9393    6.4396    2.4396 C.3       2 RES2    0.0000
     90 H30       23.0066    5.4650    2.5304 H         2 RES2    0.0000
     91 H31       23.1434    6.8629    3.3004 H         2 RES2    0.0000
     92 H32       23.5759    6.7503    1.7635 H         2 RES2    0.0000
@<TRIPOS>BOND
     1    1    2 1
     2    3    1 ar
     3    4    3 1
     4    5    3 ar
     5    6    5 ar
     6    7    6 ar
     7    8    7 ar
     8    9    8 ar
     9   10    9 1
    10   11   10 1
    11   12   10 1
    12   13   10 1
    13   14   13 ar
    14   15   14 1
    15   16   14 ar
    16   17   16 1
    17   18    1 ar
    18   19   18 1
    19   20    6 ar
    20   21   20 1
    21   22    5 ar
    22   23   22 ar
    23   24   23 1
    24   25   23 ar
    25   26   25 1
    26   27   25 ar
    27   28   27 ar
    28   29   28 ar
    29   30   29 ar
    30   31    7 ar
    31   32   22 ar
    32   33    8 1
    33   34   33 1
    34   35   33 1
    35   36   33 1
    36   37   13 ar
    37   38   37 ar
    38   39   29 ar
    39   40   39 ar
    40   41   40 1
    41   42   27 ar
    42   43   42 1
    43   44   16 ar
    44   45   44 1
    45   46    9 ar
    46   47   48 1
    47   49   47 ar
    48   50   49 1
    49   51   49 ar
    50   52   51 1
    51   53   52 1
    52   54   52 1
    53   55   52 1
    54   56   55 ar
    55   57   56 ar
    56   58   57 ar
    57   59   58 ar
    58   60   59 ar
    59   61   60 1
    60   62   60 ar
    61   63   62 1
    62   64   47 ar
    63   65   64 1
    64   66   64 ar
    65   67   66 ar
    66   68   67 ar
    67   69   68 1
    68   70   68 ar
    69   71   70 1
    70   72   70 ar
    71   73   72 ar
    72   74   73 1
    73   75   73 ar
    74   76   75 1
    75   77   59 ar
    76   78   77 ar
    77   79   72 ar
    78   80   67 ar
    79   81   80 ar
    80   82   55 ar
    81   83   51 ar
    82   84   58 ar
    83   85   84 1
    84   86   62 ar
    85   87   86 1
    86   88   57 ar
    87   89   56 1
    88   90   89 1
    89   91   89 1
    90   92   89 1
    91   18   20 ar
    92   28   32 ar
    93   30   31 ar
    94   30   46 ar
    95   31   32 ar
    96   37   46 ar
    97   38   39 ar
    98   38   44 ar
    99   40   42 ar
   100   66   83 ar
   101   75   77 ar
   102   78   79 ar
   103   78   88 ar
   104   79   80 ar
   105   81   82 ar
   106   81   88 ar
   107   82   83 ar
   108   84   86 ar
@<TRIPOS>SUBSTRUCTURE
     1 RES1 1
     2 RES2 47

@<TRIPOS>CRYSIN
  20.4050   23.4550    7.7620  90.0000  90.0000  90.0000  33 1

