# MOL2 file generated by ConQuest
# Please check atom types

@<TRIPOS>MOLECULE
GASWIG
    33    35     1
SMALL
NO_CHARGES
****
Generated from CSD

@<TRIPOS>ATOM
      1 C1         3.8400    6.3329    5.3976 C.ar      1 RES1    0.0000
      2 C2         4.5473    5.3163    4.8482 C.ar      1 RES1    0.0000
      3 C3         5.5947    4.6944    5.5661 C.ar      1 RES1    0.0000
      4 C4         5.9019    5.1138    6.8008 C.ar      1 RES1    0.0000
      5 C5         5.1859    6.1733    7.4214 C.ar      1 RES1    0.0000
      6 C6         5.0695    7.9365   10.6930 C.ar      1 RES1    0.0000
      7 C7         4.3332    8.8734   11.3444 C.ar      1 RES1    0.0000
      8 C8         3.2726    9.5177   10.6639 C.ar      1 RES1    0.0000
      9 C9         2.9732    9.2129    9.3837 C.ar      1 RES1    0.0000
     10 C10        3.6993    8.2229    8.6610 C.ar      1 RES1    0.0000
     11 C11        3.3968    7.8568    7.3453 C.ar      1 RES1    0.0000
     12 C12        4.1190    6.8156    6.7182 C.ar      1 RES1    0.0000
     13 C13        5.5017    6.5681    8.7064 C.ar      1 RES1    0.0000
     14 C14        4.7834    7.5724    9.3465 C.ar      1 RES1    0.0000
     15 C15        2.2627    8.5400    6.5999 C.3       1 RES1    0.0000
     16 C16        0.9012    7.8813    6.8089 C.3       1 RES1    0.0000
     17 C17       -0.1954    8.6279    6.0652 C.3       1 RES1    0.0000
     18 H1         3.1342    6.7399    4.8904 H         1 RES1    0.0000
     19 H2         4.3348    5.0135    3.9619 H         1 RES1    0.0000
     20 H3         6.0855    3.9724    5.1675 H         1 RES1    0.0000
     21 H4         6.6202    4.6903    7.2756 H         1 RES1    0.0000
     22 H5         5.7987    7.5131   11.1516 H         1 RES1    0.0000
     23 H6         4.5286    9.0963   12.2567 H         1 RES1    0.0000
     24 H7         2.7559   10.1866   11.1208 H         1 RES1    0.0000
     25 H8         2.2526    9.6732    8.9495 H         1 RES1    0.0000
     26 H9         6.2301    6.1447    9.1650 H         1 RES1    0.0000
     27 H10        2.2080    9.4502    6.9029 H         1 RES1    0.0000
     28 H11        2.4652    8.5277    5.6617 H         1 RES1    0.0000
     29 H12        0.6964    7.8752    7.7455 H         1 RES1    0.0000
     30 H13        0.9387    6.9772    6.4848 H         1 RES1    0.0000
     31 H14       -1.0747    8.2536    6.1608 H         1 RES1    0.0000
     32 H15        0.0203    8.7036    5.1334 H         1 RES1    0.0000
     33 H16       -0.1727    9.4993    6.4703 H         1 RES1    0.0000
@<TRIPOS>BOND
     1    1    2 ar
     2    2    3 ar
     3    3    4 ar
     4    4    5 ar
     5    5   12 ar
     6    6    7 ar
     7    7    8 ar
     8    8    9 ar
     9    9   10 ar
    10   10   11 ar
    11   11   12 ar
    12   12    1 ar
    13   13    5 ar
    14   14    6 ar
    15   15   11 1
    16   16   15 1
    17   17   16 1
    18   18    1 1
    19   19    2 1
    20   20    3 1
    21   21    4 1
    22   22    6 1
    23   23    7 1
    24   24    8 1
    25   25    9 1
    26   26   13 1
    27   27   15 1
    28   28   15 1
    29   29   16 1
    30   30   16 1
    31   31   17 1
    32   32   17 1
    33   33   17 1
    34   10   14 ar
    35   13   14 ar
@<TRIPOS>SUBSTRUCTURE
     1 RES1 1

@<TRIPOS>CRYSIN
   7.8160   20.4550   16.2040  90.0000  90.0000  90.0000  61 1

