# MOL2 file generated by ConQuest
# Please check atom types

@<TRIPOS>MOLECULE
GAWWEG
    17    19     1
SMALL
NO_CHARGES
****
Generated from CSD

@<TRIPOS>ATOM
      1 C1         3.1235    7.1200    1.8785 C.ar      1 RES1    0.0000
      2 C2         2.9809    5.7826    2.1254 C.ar      1 RES1    0.0000
      3 C3         2.0716    4.9891    1.3734 C.ar      1 RES1    0.0000
      4 C4         1.3387    5.5458    0.3745 C.ar      1 RES1    0.0000
      5 C5         0.7974    8.8541   -1.1918 C.ar      1 RES1    0.0000
      6 C6         1.6729    9.6689   -0.4641 C.ar      1 RES1    0.0000
      7 C7         2.4534    9.1036    0.5234 C.ar      1 RES1    0.0000
      8 C8         1.4751    6.8981    0.0630 C.ar      1 RES1    0.0000
      9 C9         0.6870    7.5252   -0.9404 C.ar      1 RES1    0.0000
     10 C10        2.3676    7.7193    0.8234 C.ar      1 RES1    0.0000
     11 C11        4.0742    7.9390    2.6783 C.ar      1 RES1    0.0000
     12 C12        5.3470    8.2376    2.2423 C.ar      1 RES1    0.0000
     13 C13        6.2026    9.0141    3.0316 C.ar      1 RES1    0.0000
     14 C14        5.7641    9.5132    4.2515 C.ar      1 RES1    0.0000
     15 C15        4.5036    9.2231    4.7103 C.ar      1 RES1    0.0000
     16 C16        3.6495    8.4381    3.9332 C.ar      1 RES1    0.0000
     17 C17        5.8469    7.6767    0.9373 C.3       1 RES1    0.0000
@<TRIPOS>BOND
     1    1    2 ar
     2    2    3 ar
     3    3    4 ar
     4    4    8 ar
     5    5    6 ar
     6    6    7 ar
     7    7   10 ar
     8    8    9 ar
     9    9    5 ar
    10   10    1 ar
    11   11    1 1
    12   12   11 ar
    13   13   12 ar
    14   14   13 ar
    15   15   14 ar
    16   16   11 ar
    17   17   12 1
    18    8   10 ar
    19   15   16 ar
@<TRIPOS>SUBSTRUCTURE
     1 RES1 1

@<TRIPOS>CRYSIN
  15.3340   21.3300    7.5960  90.0000  90.0000  90.0000  45 1

