# MOL2 file generated by ConQuest
# Please check atom types

@<TRIPOS>MOLECULE
GEFFOP
    50    54     1
SMALL
NO_CHARGES
****
Generated from CSD

@<TRIPOS>ATOM
      1 C1         8.5337    7.3680    8.4337 C.ar      1 RES1    0.0000
      2 C2         7.1581    7.0440    8.6672 C.ar      1 RES1    0.0000
      3 H1         6.6743    6.6014    8.0073 H         1 RES1    0.0000
      4 C3         6.5444    7.3723    9.8390 C.ar      1 RES1    0.0000
      5 H2         5.6470    7.1607    9.9640 H         1 RES1    0.0000
      6 C4         7.2603    8.0336   10.8691 C.ar      1 RES1    0.0000
      7 H3         6.8314    8.2509   11.6651 H         1 RES1    0.0000
      8 C5         8.5710    8.3516   10.6988 C.ar      1 RES1    0.0000
      9 H4         9.0305    8.7780   11.3847 H         1 RES1    0.0000
     10 C6         9.2534    8.0391    9.4770 C.ar      1 RES1    0.0000
     11 C7        10.5966    8.3713    9.2855 C.ar      1 RES1    0.0000
     12 H5        11.0628    8.8013    9.9655 H         1 RES1    0.0000
     13 C8        11.2513    8.0675    8.0888 C.ar      1 RES1    0.0000
     14 C9        12.6221    8.4272    7.8811 C.ar      1 RES1    0.0000
     15 H6        13.0923    8.8513    8.5619 H         1 RES1    0.0000
     16 C10       13.2484    8.1584    6.7028 C.ar      1 RES1    0.0000
     17 H7        14.1426    8.3876    6.5881 H         1 RES1    0.0000
     18 C11       12.5387    7.5286    5.6491 C.ar      1 RES1    0.0000
     19 H8        12.9664    7.3654    4.8402 H         1 RES1    0.0000
     20 C12       11.2370    7.1605    5.8097 C.ar      1 RES1    0.0000
     21 H9        10.7921    6.7479    5.1051 H         1 RES1    0.0000
     22 C13       10.5399    7.3954    7.0383 C.ar      1 RES1    0.0000
     23 C14        9.1865    7.0313    7.2243 C.ar      1 RES1    0.0000
     24 C15        8.4092    6.3293    6.1817 C.2       1 RES1    0.0000
     25 H10        7.6334    6.7453    5.8824 H         1 RES1    0.0000
     26 C16        8.7174    5.1584    5.6333 C.2       1 RES1    0.0000
     27 H11        9.5234    4.7715    5.8886 H         1 RES1    0.0000
     28 C17        7.8732    4.3973    4.6302 C.3       1 RES1    0.0000
     29 H12        7.6380    3.5411    5.0459 H         1 RES1    0.0000
     30 C18        8.6966    4.0759    3.3721 C.3       1 RES1    0.0000
     31 H13        8.1880    3.5000    2.7963 H         1 RES1    0.0000
     32 H14        9.5111    3.6367    3.6267 H         1 RES1    0.0000
     33 H15        8.9052    4.8903    2.9085 H         1 RES1    0.0000
     34 C19        6.5788    5.1050    4.3254 C.2       1 RES1    0.0000
     35 C20        6.2944    5.9083    3.2082 C.2       1 RES1    0.0000
     36 H16        6.8679    6.0358    2.4879 H         1 RES1    0.0000
     37 C21        5.0290    6.4891    3.3294 C.2       1 RES1    0.0000
     38 H17        4.6342    7.0625    2.7122 H         1 RES1    0.0000
     39 C22        4.4538    6.0651    4.5319 C.2       1 RES1    0.0000
     40 C23        3.1920    6.4162    5.0010 C.2       1 RES1    0.0000
     41 H18        2.7042    6.9883    4.4539 H         1 RES1    0.0000
     42 C24        2.5613    6.0266    6.1793 C.2       1 RES1    0.0000
     43 H19        1.7071    6.3682    6.3093 H         1 RES1    0.0000
     44 C25        3.0386    5.1940    7.1891 C.2       1 RES1    0.0000
     45 H20        2.4549    5.0645    7.9014 H         1 RES1    0.0000
     46 C26        4.2546    4.5260    7.2958 C.2       1 RES1    0.0000
     47 H21        4.3675    4.0173    8.0665 H         1 RES1    0.0000
     48 C27        5.3315    4.5146    6.4030 C.2       1 RES1    0.0000
     49 H22        6.0649    4.0039    6.6629 H         1 RES1    0.0000
     50 C28        5.4552    5.1635    5.1789 C.2       1 RES1    0.0000
@<TRIPOS>BOND
     1    1    2 ar
     2    2    3 1
     3    4    2 ar
     4    5    4 1
     5    6    4 ar
     6    7    6 1
     7    8    6 ar
     8    9    8 1
     9   10    1 ar
    10   11   10 ar
    11   12   11 1
    12   13   11 ar
    13   14   13 ar
    14   15   14 1
    15   16   14 ar
    16   17   16 1
    17   18   16 ar
    18   19   18 1
    19   20   18 ar
    20   21   20 1
    21   22   13 ar
    22   23    1 ar
    23   24   23 1
    24   25   24 1
    25   26   24 2
    26   27   26 1
    27   28   26 1
    28   29   28 1
    29   30   28 1
    30   31   30 1
    31   32   30 1
    32   33   30 1
    33   34   28 1
    34   35   34 2
    35   36   35 1
    36   37   35 1
    37   38   37 1
    38   39   37 2
    39   40   39 1
    40   41   40 1
    41   42   40 2
    42   43   42 1
    43   44   42 1
    44   45   44 1
    45   46   44 2
    46   47   46 1
    47   48   46 1
    48   49   48 1
    49   50   34 1
    50    8   10 ar
    51   20   22 ar
    52   22   23 ar
    53   39   50 1
    54   48   50 2
@<TRIPOS>SUBSTRUCTURE
     1 RES1 1

@<TRIPOS>CRYSIN
  27.4550    8.9353   19.0572  90.0000 125.1690  90.0000  15 1

