# MOL2 file generated by ConQuest
# Please check atom types

@<TRIPOS>MOLECULE
GEGRER
   132   142     2
SMALL
NO_CHARGES
****
Generated from CSD

@<TRIPOS>ATOM
      1 C1        10.0888    1.5836    6.6469 C.ar      1 RES1    0.0000
      2 C2        11.3914    1.8556    6.9979 C.ar      1 RES1    0.0000
      3 C3        12.0104    1.1912    8.0443 C.ar      1 RES1    0.0000
      4 C4         7.9303    0.3899    7.1559 C.ar      1 RES1    0.0000
      5 C5         9.3133    0.6531    7.4256 C.ar      1 RES1    0.0000
      6 C6         9.6299    2.1651    5.4291 C.1       1 RES1    0.0000
      7 C7         9.4418    2.6125    4.3330 C.1       1 RES1    0.0000
      8 C8         9.0983    3.0525    3.0209 C.ar      1 RES1    0.0000
      9 C9         9.6137    4.2364    2.4884 C.ar      1 RES1    0.0000
     10 C10        9.2037    4.6760    1.2463 C.ar      1 RES1    0.0000
     11 C11        8.2860    3.9521    0.5204 C.ar      1 RES1    0.0000
     12 C12        7.7959    2.7623    1.0286 C.ar      1 RES1    0.0000
     13 C13        8.2020    2.3110    2.2634 C.ar      1 RES1    0.0000
     14 C14        7.1418    1.1100    6.2071 C.1       1 RES1    0.0000
     15 C15        6.3284    1.6405    5.5038 C.1       1 RES1    0.0000
     16 C16        5.4430    2.2865    4.5917 C.ar      1 RES1    0.0000
     17 C17        5.7683    3.5360    4.0590 C.ar      1 RES1    0.0000
     18 C18        4.9380    4.1257    3.1274 C.ar      1 RES1    0.0000
     19 C19        3.7839    3.4949    2.7161 C.ar      1 RES1    0.0000
     20 C20        3.4384    2.2683    3.2544 C.ar      1 RES1    0.0000
     21 C21        4.2540    1.6649    4.1903 C.ar      1 RES1    0.0000
     22 C22       11.9811    5.7284    6.2692 C.ar      2 RES2    0.0000
     23 C23       13.3320    5.4520    6.2308 C.ar      2 RES2    0.0000
     24 C24        9.1133    5.2209    8.6423 C.ar      2 RES2    0.0000
     25 C25        9.7998    5.5767    7.5041 C.ar      2 RES2    0.0000
     26 C26       11.2106    5.3442    7.4146 C.ar      2 RES2    0.0000
     27 C27       11.4772    6.4109    5.1163 C.1       2 RES2    0.0000
     28 C28       11.3245    6.9760    4.0711 C.1       2 RES2    0.0000
     29 C29       11.0750    7.5875    2.8071 C.ar      2 RES2    0.0000
     30 C30       10.1019    8.5744    2.6773 C.ar      2 RES2    0.0000
     31 C31        9.8197    9.1104    1.4368 C.ar      2 RES2    0.0000
     32 C32       10.5034    8.6829    0.3151 C.ar      2 RES2    0.0000
     33 C33       11.4889    7.7256    0.4357 C.ar      2 RES2    0.0000
     34 C34       11.7747    7.1798    1.6675 C.ar      2 RES2    0.0000
     35 C35        9.0044    6.1729    6.4728 C.1       2 RES2    0.0000
     36 C36        8.1605    6.6419    5.7630 C.1       2 RES2    0.0000
     37 C37        7.2201    7.1951    4.8426 C.ar      2 RES2    0.0000
     38 C38        6.1274    7.9430    5.2733 C.ar      2 RES2    0.0000
     39 C39        5.2389    8.4714    4.3545 C.ar      2 RES2    0.0000
     40 C40        5.4379    8.2824    3.0065 C.ar      2 RES2    0.0000
     41 C41        6.5080    7.5399    2.5790 C.ar      2 RES2    0.0000
     42 C42        7.3905    6.9869    3.4816 C.ar      2 RES2    0.0000
     43 H1        11.8760    2.5127    6.5120 H         1 RES1    0.0000
     44 H2        12.9105    1.4015    8.2643 H         1 RES1    0.0000
     45 H3        10.2487    4.7409    2.9836 H         1 RES1    0.0000
     46 H4         9.5571    5.4828    0.8905 H         1 RES1    0.0000
     47 H5         7.9900    4.2674   -0.3250 H         1 RES1    0.0000
     48 H6         7.1744    2.2531    0.5209 H         1 RES1    0.0000
     49 H7         7.8676    1.4880    2.5997 H         1 RES1    0.0000
     50 H8         6.5603    3.9798    4.3376 H         1 RES1    0.0000
     51 H9         5.1645    4.9743    2.7670 H         1 RES1    0.0000
     52 H10        3.2255    3.9015    2.0645 H         1 RES1    0.0000
     53 H11        2.6367    1.8398    2.9788 H         1 RES1    0.0000
     54 H12        4.0080    0.8260    4.5622 H         1 RES1    0.0000
     55 H13       13.8307    5.6884    5.4575 H         2 RES2    0.0000
     56 H14        8.1819    5.3990    8.7023 H         2 RES2    0.0000
     57 H15        9.6312    8.8799    3.4440 H         2 RES2    0.0000
     58 H16        9.1495    9.7788    1.3540 H         2 RES2    0.0000
     59 H17       10.2948    9.0474   -0.5368 H         2 RES2    0.0000
     60 H18       11.9713    7.4419   -0.3329 H         2 RES2    0.0000
     61 H19       12.4538    6.5199    1.7443 H         2 RES2    0.0000
     62 H20        5.9920    8.0909    6.2014 H         2 RES2    0.0000
     63 H21        4.4870    8.9673    4.6562 H         2 RES2    0.0000
     64 H22        4.8378    8.6640    2.3767 H         2 RES2    0.0000
     65 H23        6.6431    7.4050    1.6487 H         2 RES2    0.0000
     66 H24        8.1188    6.4616    3.1716 H         2 RES2    0.0000
     67 C1A        9.1793   -0.9687    9.2826 C.ar      1 RES1    0.0000
     68 C2A        7.8767   -1.2407    8.9317 C.ar      1 RES1    0.0000
     69 C3A        7.2577   -0.5763    7.8853 C.ar      1 RES1    0.0000
     70 C4A       11.3378    0.2250    8.7737 C.ar      1 RES1    0.0000
     71 C5A        9.9549   -0.0382    8.5040 C.ar      1 RES1    0.0000
     72 C6A        9.6382   -1.5502   10.5004 C.1       1 RES1    0.0000
     73 C7A        9.8263   -1.9976   11.5966 C.1       1 RES1    0.0000
     74 C8A       10.1698   -2.4376   12.9087 C.ar      1 RES1    0.0000
     75 C9A        9.6544   -3.6215   13.4412 C.ar      1 RES1    0.0000
     76 C10A      10.0644   -4.0611   14.6832 C.ar      1 RES1    0.0000
     77 C11A      10.9822   -3.3372   15.4091 C.ar      1 RES1    0.0000
     78 C12A      11.4722   -2.1474   14.9010 C.ar      1 RES1    0.0000
     79 C13A      11.0661   -1.6960   13.6661 C.ar      1 RES1    0.0000
     80 C14A      12.1263   -0.4951    9.7224 C.1       1 RES1    0.0000
     81 C15A      12.9397   -1.0256   10.4257 C.1       1 RES1    0.0000
     82 C16A      13.8251   -1.6716   11.3379 C.ar      1 RES1    0.0000
     83 C17A      13.4999   -2.9211   11.8705 C.ar      1 RES1    0.0000
     84 C18A      14.3301   -3.5108   12.8021 C.ar      1 RES1    0.0000
     85 C19A      15.4843   -2.8800   13.2134 C.ar      1 RES1    0.0000
     86 C20A      15.8297   -1.6534   12.6751 C.ar      1 RES1    0.0000
     87 C21A      15.0141   -1.0500   11.7393 C.ar      1 RES1    0.0000
     88 C22A      11.1109    4.3325    9.6603 C.ar      2 RES2    0.0000
     89 C23A       9.7600    4.6088    9.6987 C.ar      2 RES2    0.0000
     90 C24A      13.9787    4.8399    7.2873 C.ar      2 RES2    0.0000
     91 C25A      13.2922    4.4842    8.4255 C.ar      2 RES2    0.0000
     92 C26A      11.8814    4.7166    8.5150 C.ar      2 RES2    0.0000
     93 C27A      11.6148    3.6500   10.8133 C.1       2 RES2    0.0000
     94 C28A      11.7675    3.0849   11.8584 C.1       2 RES2    0.0000
     95 C29A      12.0170    2.4734   13.1225 C.ar      2 RES2    0.0000
     96 C30A      12.9901    1.4865   13.2523 C.ar      2 RES2    0.0000
     97 C31A      13.2723    0.9505   14.4927 C.ar      2 RES2    0.0000
     98 C32A      12.5887    1.3780   15.6145 C.ar      2 RES2    0.0000
     99 C33A      11.6031    2.3353   15.4939 C.ar      2 RES2    0.0000
    100 C34A      11.3174    2.8810   14.2621 C.ar      2 RES2    0.0000
    101 C35A      14.0876    3.8879    9.4567 C.1       2 RES2    0.0000
    102 C36A      14.9315    3.4189   10.1666 C.1       2 RES2    0.0000
    103 C37A      15.8719    2.8658   11.0870 C.ar      2 RES2    0.0000
    104 C38A      16.9646    2.1179   10.6562 C.ar      2 RES2    0.0000
    105 C39A      17.8531    1.5895   11.5751 C.ar      2 RES2    0.0000
    106 C40A      17.6541    1.7785   12.9230 C.ar      2 RES2    0.0000
    107 C41A      16.5840    2.5209   13.3506 C.ar      2 RES2    0.0000
    108 C42A      15.7015    3.0740   12.4480 C.ar      2 RES2    0.0000
    109 H1A        7.3922   -1.8978    9.4176 H         1 RES1    0.0000
    110 H2A        6.3576   -0.7866    7.6653 H         1 RES1    0.0000
    111 H3A        9.0195   -4.1260   12.9460 H         1 RES1    0.0000
    112 H4A        9.7111   -4.8679   15.0391 H         1 RES1    0.0000
    113 H5A       11.2782   -3.6525   16.2545 H         1 RES1    0.0000
    114 H6A       12.0937   -1.6382   15.4087 H         1 RES1    0.0000
    115 H7A       11.4005   -0.8731   13.3299 H         1 RES1    0.0000
    116 H8A       12.7079   -3.3649   11.5919 H         1 RES1    0.0000
    117 H9A       14.1037   -4.3594   13.1626 H         1 RES1    0.0000
    118 H10A      16.0426   -3.2866   13.8651 H         1 RES1    0.0000
    119 H11A      16.6315   -1.2249   12.9507 H         1 RES1    0.0000
    120 H12A      15.2602   -0.2111   11.3673 H         1 RES1    0.0000
    121 H13A       9.2613    4.3725   10.4721 H         2 RES2    0.0000
    122 H14A      14.9102    4.6619    7.2272 H         2 RES2    0.0000
    123 H15A      13.4608    1.1810   12.4856 H         2 RES2    0.0000
    124 H16A      13.9425    0.2821   14.5755 H         2 RES2    0.0000
    125 H17A      12.7972    1.0135   16.4664 H         2 RES2    0.0000
    126 H18A      11.1207    2.6190   16.2625 H         2 RES2    0.0000
    127 H19A      10.6383    3.5410   14.1853 H         2 RES2    0.0000
    128 H20A      17.1000    1.9700    9.7282 H         2 RES2    0.0000
    129 H21A      18.6051    1.0936   11.2733 H         2 RES2    0.0000
    130 H22A      18.2542    1.3969   13.5529 H         2 RES2    0.0000
    131 H23A      16.4489    2.6558   14.2808 H         2 RES2    0.0000
    132 H24A      14.9732    3.5993   12.7580 H         2 RES2    0.0000
@<TRIPOS>BOND
     1    1    2 ar
     2    2    3 ar
     3    3   44 1
     4    4    5 ar
     5    5    1 ar
     6    6    1 1
     7    7    6 3
     8    8    7 1
     9    9    8 ar
    10   10    9 ar
    11   11   10 ar
    12   12   11 ar
    13   13    8 ar
    14   14    4 1
    15   15   14 3
    16   16   15 1
    17   17   16 ar
    18   18   17 ar
    19   19   18 ar
    20   20   19 ar
    21   21   16 ar
    22   22   23 ar
    23   23   55 1
    24   24   25 ar
    25   25   26 ar
    26   26   22 ar
    27   27   22 1
    28   28   27 3
    29   29   28 1
    30   30   29 ar
    31   31   30 ar
    32   32   31 ar
    33   33   32 ar
    34   34   29 ar
    35   35   25 1
    36   36   35 3
    37   37   36 1
    38   38   37 ar
    39   39   38 ar
    40   40   39 ar
    41   41   40 ar
    42   42   37 ar
    43   43    2 1
    44   45    9 1
    45   46   10 1
    46   47   11 1
    47   48   12 1
    48   49   13 1
    49   50   17 1
    50   51   18 1
    51   52   19 1
    52   53   20 1
    53   54   21 1
    54   56   24 1
    55   57   30 1
    56   58   31 1
    57   59   32 1
    58   60   33 1
    59   61   34 1
    60   62   38 1
    61   63   39 1
    62   64   40 1
    63   65   41 1
    64   66   42 1
    65   67   68 ar
    66   68   69 ar
    67   69    4 ar
    68   70    3 ar
    69   71    5 ar
    70   72   67 1
    71   73   72 3
    72   74   73 1
    73   75   74 ar
    74   76   75 ar
    75   77   76 ar
    76   78   77 ar
    77   79   74 ar
    78   80   70 1
    79   81   80 3
    80   82   81 1
    81   83   82 ar
    82   84   83 ar
    83   85   84 ar
    84   86   85 ar
    85   87   82 ar
    86   88   89 ar
    87   89   24 ar
    88   90   23 ar
    89   91   90 ar
    90   92   26 ar
    91   93   88 1
    92   94   93 3
    93   95   94 1
    94   96   95 ar
    95   97   96 ar
    96   98   97 ar
    97   99   98 ar
    98  100   95 ar
    99  101   91 1
   100  102  101 3
   101  103  102 1
   102  104  103 ar
   103  105  104 ar
   104  106  105 ar
   105  107  106 ar
   106  108  103 ar
   107  109   68 1
   108  110   69 1
   109  111   75 1
   110  112   76 1
   111  113   77 1
   112  114   78 1
   113  115   79 1
   114  116   83 1
   115  117   84 1
   116  118   85 1
   117  119   86 1
   118  120   87 1
   119  121   89 1
   120  122   90 1
   121  123   96 1
   122  124   97 1
   123  125   98 1
   124  126   99 1
   125  127  100 1
   126  128  104 1
   127  129  105 1
   128  130  106 1
   129  131  107 1
   130  132  108 1
   131   12   13 ar
   132   20   21 ar
   133   33   34 ar
   134   41   42 ar
   135   67   71 ar
   136   70   71 ar
   137   78   79 ar
   138   86   87 ar
   139   88   92 ar
   140   91   92 ar
   141   99  100 ar
   142  107  108 ar
@<TRIPOS>SUBSTRUCTURE
     1 RES1 1
     2 RES2 22

@<TRIPOS>CRYSIN
   9.3787   10.1906   15.9496  87.2630  88.1650  67.9610   2 1

