# MOL2 file generated by ConQuest
# Please check atom types

@<TRIPOS>MOLECULE
GEPPID
   122   133     1
SMALL
NO_CHARGES
****
Generated from CSD

@<TRIPOS>ATOM
      1 C1        30.3508   11.8632    1.9072 C.ar      1 RES1    0.0000
      2 C2        31.0106   10.6312    2.0203 C.ar      1 RES1    0.0000
      3 C3        30.2749    9.4647    1.8495 C.ar      1 RES1    0.0000
      4 H1        30.7235    8.6338    1.9530 H         1 RES1    0.0000
      5 C4        28.9234    9.4423    1.5373 C.ar      1 RES1    0.0000
      6 C5        28.2296    8.1862    1.3181 C.ar      1 RES1    0.0000
      7 C6        26.9407    8.3304    0.9774 C.ar      1 RES1    0.0000
      8 C7        25.6870    7.6261    0.5922 C.ar      1 RES1    0.0000
      9 C8        25.0598    6.3783    0.4537 C.ar      1 RES1    0.0000
     10 H2        25.5129    5.5592    0.6149 H         1 RES1    0.0000
     11 C9        23.7373    6.4297    0.0692 C.ar      1 RES1    0.0000
     12 H3        23.2823    5.6136   -0.1018 H         1 RES1    0.0000
     13 C10       23.6665    8.9253    0.0846 C.ar      1 RES1    0.0000
     14 C11       25.0228    8.8275    0.4384 C.ar      1 RES1    0.0000
     15 C12       26.2867    9.5964    0.7721 C.ar      1 RES1    0.0000
     16 C13       26.8703   10.7829    0.9590 C.ar      1 RES1    0.0000
     17 C14       28.2767   10.7034    1.3443 C.ar      1 RES1    0.0000
     18 C15       29.0085   11.8551    1.5704 C.ar      1 RES1    0.0000
     19 H4        28.5630   12.6909    1.4901 H         1 RES1    0.0000
     20 C16       28.8866    6.8536    1.5442 C.3       1 RES1    0.0000
     21 H5        28.2178    6.1418    1.4627 H         1 RES1    0.0000
     22 H6        29.2800    6.8310    2.4414 H         1 RES1    0.0000
     23 H7        29.5903    6.7186    0.8755 H         1 RES1    0.0000
     24 C17       26.2130   12.1368    0.7883 C.3       1 RES1    0.0000
     25 H8        25.2793   12.0148    0.5169 H         1 RES1    0.0000
     26 H9        26.6892   12.6470    0.1002 H         1 RES1    0.0000
     27 H10       26.2450   12.6253    1.6375 H         1 RES1    0.0000
     28 C18       30.9580   13.2110    2.1402 C.ar      1 RES1    0.0000
     29 C19       31.9450   13.7287    1.2881 C.ar      1 RES1    0.0000
     30 C20       32.4386   15.0020    1.5335 C.ar      1 RES1    0.0000
     31 H11       33.1288   15.3472    0.9792 H         1 RES1    0.0000
     32 C21       31.9544   15.7706    2.5540 C.ar      1 RES1    0.0000
     33 H12       32.2950   16.6461    2.6945 H         1 RES1    0.0000
     34 C22       30.9747   15.2734    3.3738 C.ar      1 RES1    0.0000
     35 H13       30.6322   15.8178    4.0730 H         1 RES1    0.0000
     36 C23       30.4739   13.9913    3.2030 C.ar      1 RES1    0.0000
     37 C24       32.4583   12.9642    0.0992 C.3       1 RES1    0.0000
     38 H14       33.1999   12.3871    0.3768 H         1 RES1    0.0000
     39 H15       32.7718   13.5937   -0.5835 H         1 RES1    0.0000
     40 H16       31.7369   12.4136   -0.2713 H         1 RES1    0.0000
     41 C25       29.4362   13.5089    4.1905 C.3       1 RES1    0.0000
     42 H17       28.5433   13.6023    3.7977 H         1 RES1    0.0000
     43 H18       29.4906   14.0447    5.0093 H         1 RES1    0.0000
     44 H19       29.6021   12.5672    4.4047 H         1 RES1    0.0000
     45 C26       32.4748   10.4792    2.2594 C.ar      1 RES1    0.0000
     46 C27       33.0932   10.8845    3.4507 C.ar      1 RES1    0.0000
     47 C28       34.4566   10.6623    3.6268 C.ar      1 RES1    0.0000
     48 H20       34.8736   10.9489    4.4311 H         1 RES1    0.0000
     49 C29       35.2054   10.0425    2.6709 C.ar      1 RES1    0.0000
     50 H21       36.1348    9.9010    2.8091 H         1 RES1    0.0000
     51 C30       34.6113    9.6266    1.5142 C.ar      1 RES1    0.0000
     52 H22       35.1358    9.1916    0.8527 H         1 RES1    0.0000
     53 C31       33.2559    9.8256    1.2843 C.ar      1 RES1    0.0000
     54 C32       32.3395   11.5127    4.5773 C.3       1 RES1    0.0000
     55 H23       32.3393   12.4865    4.4677 H         1 RES1    0.0000
     56 H24       32.7683   11.2798    5.4273 H         1 RES1    0.0000
     57 H25       31.4162   11.1838    4.5765 H         1 RES1    0.0000
     58 C33       32.6855    9.3200   -0.0123 C.3       1 RES1    0.0000
     59 H26       33.3993    9.2570   -0.6804 H         1 RES1    0.0000
     60 H27       31.9951    9.9392   -0.3286 H         1 RES1    0.0000
     61 H28       32.2904    8.4342    0.1284 H         1 RES1    0.0000
     62 C1D       16.3412    4.7081   -1.9072 C.ar      1 RES1    0.0000
     63 C2D       15.6814    5.9401   -2.0203 C.ar      1 RES1    0.0000
     64 C3D       16.4171    7.1066   -1.8495 C.ar      1 RES1    0.0000
     65 H1D       15.9685    7.9375   -1.9530 H         1 RES1    0.0000
     66 C4D       17.7686    7.1290   -1.5373 C.ar      1 RES1    0.0000
     67 C5D       18.4624    8.3851   -1.3181 C.ar      1 RES1    0.0000
     68 C6D       19.7513    8.2409   -0.9774 C.ar      1 RES1    0.0000
     69 C7D       21.0050    8.9452   -0.5922 C.ar      1 RES1    0.0000
     70 C8D       21.6322   10.1930   -0.4537 C.ar      1 RES1    0.0000
     71 H2D       21.1791   11.0121   -0.6149 H         1 RES1    0.0000
     72 C9D       22.9547   10.1416   -0.0692 C.ar      1 RES1    0.0000
     73 H3D       23.4097   10.9577    0.1018 H         1 RES1    0.0000
     74 C10D      23.0255    7.6460   -0.0846 C.ar      1 RES1    0.0000
     75 C11D      21.6692    7.7438   -0.4384 C.ar      1 RES1    0.0000
     76 C12D      20.4053    6.9749   -0.7721 C.ar      1 RES1    0.0000
     77 C13D      19.8217    5.7884   -0.9590 C.ar      1 RES1    0.0000
     78 C14D      18.4153    5.8679   -1.3443 C.ar      1 RES1    0.0000
     79 C15D      17.6835    4.7162   -1.5704 C.ar      1 RES1    0.0000
     80 H4D       18.1290    3.8804   -1.4901 H         1 RES1    0.0000
     81 C16D      17.8054    9.7177   -1.5442 C.3       1 RES1    0.0000
     82 H5D       18.4742   10.4295   -1.4627 H         1 RES1    0.0000
     83 H6D       17.4120    9.7403   -2.4414 H         1 RES1    0.0000
     84 H7D       17.1017    9.8527   -0.8755 H         1 RES1    0.0000
     85 C17D      20.4790    4.4345   -0.7883 C.3       1 RES1    0.0000
     86 H8D       21.4127    4.5565   -0.5169 H         1 RES1    0.0000
     87 H9D       20.0028    3.9243   -0.1002 H         1 RES1    0.0000
     88 H10D      20.4470    3.9460   -1.6375 H         1 RES1    0.0000
     89 C18D      15.7340    3.3603   -2.1402 C.ar      1 RES1    0.0000
     90 C19D      14.7470    2.8426   -1.2881 C.ar      1 RES1    0.0000
     91 C20D      14.2534    1.5693   -1.5335 C.ar      1 RES1    0.0000
     92 H11D      13.5632    1.2241   -0.9792 H         1 RES1    0.0000
     93 C21D      14.7376    0.8007   -2.5540 C.ar      1 RES1    0.0000
     94 H12D      14.3970   -0.0748   -2.6945 H         1 RES1    0.0000
     95 C22D      15.7173    1.2979   -3.3738 C.ar      1 RES1    0.0000
     96 H13D      16.0598    0.7535   -4.0730 H         1 RES1    0.0000
     97 C23D      16.2181    2.5800   -3.2030 C.ar      1 RES1    0.0000
     98 C24D      14.2337    3.6071   -0.0992 C.3       1 RES1    0.0000
     99 H14D      13.4921    4.1842   -0.3768 H         1 RES1    0.0000
    100 H15D      13.9202    2.9776    0.5835 H         1 RES1    0.0000
    101 H16D      14.9551    4.1577    0.2713 H         1 RES1    0.0000
    102 C25D      17.2558    3.0624   -4.1905 C.3       1 RES1    0.0000
    103 H17D      18.1487    2.9690   -3.7977 H         1 RES1    0.0000
    104 H18D      17.2014    2.5266   -5.0093 H         1 RES1    0.0000
    105 H19D      17.0899    4.0041   -4.4047 H         1 RES1    0.0000
    106 C26D      14.2172    6.0921   -2.2594 C.ar      1 RES1    0.0000
    107 C27D      13.5988    5.6868   -3.4507 C.ar      1 RES1    0.0000
    108 C28D      12.2354    5.9090   -3.6268 C.ar      1 RES1    0.0000
    109 H20D      11.8184    5.6224   -4.4311 H         1 RES1    0.0000
    110 C29D      11.4866    6.5288   -2.6709 C.ar      1 RES1    0.0000
    111 H21D      10.5572    6.6703   -2.8091 H         1 RES1    0.0000
    112 C30D      12.0807    6.9447   -1.5142 C.ar      1 RES1    0.0000
    113 H22D      11.5562    7.3797   -0.8527 H         1 RES1    0.0000
    114 C31D      13.4361    6.7457   -1.2843 C.ar      1 RES1    0.0000
    115 C32D      14.3525    5.0586   -4.5773 C.3       1 RES1    0.0000
    116 H23D      14.3527    4.0848   -4.4677 H         1 RES1    0.0000
    117 H24D      13.9237    5.2915   -5.4273 H         1 RES1    0.0000
    118 H25D      15.2758    5.3875   -4.5765 H         1 RES1    0.0000
    119 C33D      14.0065    7.2513    0.0123 C.3       1 RES1    0.0000
    120 H26D      13.2927    7.3143    0.6804 H         1 RES1    0.0000
    121 H27D      14.6969    6.6321    0.3286 H         1 RES1    0.0000
    122 H28D      14.4016    8.1371   -0.1284 H         1 RES1    0.0000
@<TRIPOS>BOND
     1    1    2 ar
     2    2    3 ar
     3    3    4 1
     4    5    3 ar
     5    6    5 ar
     6    7    6 ar
     7    8    7 1
     8    9    8 ar
     9   10    9 1
    10   11    9 ar
    11   12   11 1
    12   13   14 ar
    13   14    8 ar
    14   15    7 ar
    15   16   15 ar
    16   17    5 ar
    17   18    1 ar
    18   19   18 1
    19   20    6 1
    20   21   20 1
    21   22   20 1
    22   23   20 1
    23   24   16 1
    24   25   24 1
    25   26   24 1
    26   27   24 1
    27   28    1 1
    28   29   28 ar
    29   30   29 ar
    30   31   30 1
    31   32   30 ar
    32   33   32 1
    33   34   32 ar
    34   35   34 1
    35   36   28 ar
    36   37   29 1
    37   38   37 1
    38   39   37 1
    39   40   37 1
    40   41   36 1
    41   42   41 1
    42   43   41 1
    43   44   41 1
    44   45    2 1
    45   46   45 ar
    46   47   46 ar
    47   48   47 1
    48   49   47 ar
    49   50   49 1
    50   51   49 ar
    51   52   51 1
    52   53   45 ar
    53   54   46 1
    54   55   54 1
    55   56   54 1
    56   57   54 1
    57   58   53 1
    58   59   58 1
    59   60   58 1
    60   61   58 1
    61   62   63 ar
    62   63   64 ar
    63   64   65 1
    64   66   64 ar
    65   67   66 ar
    66   68   67 ar
    67   69   68 1
    68   70   69 ar
    69   71   70 1
    70   72   13 ar
    71   73   72 1
    72   74   11 ar
    73   75   69 ar
    74   76   68 ar
    75   77   76 ar
    76   78   66 ar
    77   79   62 ar
    78   80   79 1
    79   81   67 1
    80   82   81 1
    81   83   81 1
    82   84   81 1
    83   85   77 1
    84   86   85 1
    85   87   85 1
    86   88   85 1
    87   89   62 1
    88   90   89 ar
    89   91   90 ar
    90   92   91 1
    91   93   91 ar
    92   94   93 1
    93   95   93 ar
    94   96   95 1
    95   97   89 ar
    96   98   90 1
    97   99   98 1
    98  100   98 1
    99  101   98 1
   100  102   97 1
   101  103  102 1
   102  104  102 1
   103  105  102 1
   104  106   63 1
   105  107  106 ar
   106  108  107 ar
   107  109  108 1
   108  110  108 ar
   109  111  110 1
   110  112  110 ar
   111  113  112 1
   112  114  106 ar
   113  115  107 1
   114  116  115 1
   115  117  115 1
   116  118  115 1
   117  119  114 1
   118  120  119 1
   119  121  119 1
   120  122  119 1
   121   13   74 ar
   122   14   15 1
   123   16   17 ar
   124   17   18 ar
   125   34   36 ar
   126   51   53 ar
   127   70   72 ar
   128   74   75 ar
   129   75   76 1
   130   77   78 ar
   131   78   79 ar
   132   95   97 ar
   133  112  114 ar
@<TRIPOS>SUBSTRUCTURE
     1 RES1 1

@<TRIPOS>CRYSIN
  46.6920   16.5713    7.7012  90.0000  93.0400  90.0000  15 1

