# MOL2 file generated by ConQuest
# Please check atom types

@<TRIPOS>MOLECULE
GIBPUE
   116   126     2
SMALL
NO_CHARGES
****
Generated from CSD

@<TRIPOS>ATOM
      1 C1         2.8592   11.2436    2.1143 C.3       1 RES1    0.0000
      2 C2         3.1587   10.4647    0.8342 C.3       1 RES1    0.0000
      3 H1         3.7295   10.9886    0.2678 H         1 RES1    0.0000
      4 H2         2.3371   10.2764    0.3756 H         1 RES1    0.0000
      5 H3         3.5988    9.6405    1.0562 H         1 RES1    0.0000
      6 C3         4.1835   11.5334    2.8329 C.3       1 RES1    0.0000
      7 H4         4.7663   12.0203    2.2464 H         1 RES1    0.0000
      8 H5         4.6007   10.7051    3.0813 H         1 RES1    0.0000
      9 H6         4.0134   12.0549    3.6206 H         1 RES1    0.0000
     10 C4         2.1911   12.5676    1.7307 C.3       1 RES1    0.0000
     11 H7         2.7629   13.0535    1.1306 H         1 RES1    0.0000
     12 H8         2.0380   13.0909    2.5216 H         1 RES1    0.0000
     13 H9         1.3527   12.3890    1.2980 H         1 RES1    0.0000
     14 C5         1.9505   10.4666    3.0759 C.ar      1 RES1    0.0000
     15 C6         1.6652    9.1257    2.9078 C.ar      1 RES1    0.0000
     16 H10        2.0438    8.6741    2.1869 H         1 RES1    0.0000
     17 C7         0.8322    8.4222    3.7781 C.ar      1 RES1    0.0000
     18 C8         0.2664    9.0803    4.8924 C.ar      1 RES1    0.0000
     19 C9         0.5666   10.4539    5.0897 C.ar      1 RES1    0.0000
     20 C10        1.3897   11.1027    4.1757 C.ar      1 RES1    0.0000
     21 H11        1.5727   12.0056    4.3068 H         1 RES1    0.0000
     22 C11       -0.0099   11.1112    6.2201 C.ar      1 RES1    0.0000
     23 H12        0.1466   12.0192    6.3449 H         1 RES1    0.0000
     24 C12       -0.7725   10.4488    7.1097 C.ar      1 RES1    0.0000
     25 H13       -1.1176   10.9125    7.8381 H         1 RES1    0.0000
     26 C13       -1.0689    9.0509    6.9699 C.ar      1 RES1    0.0000
     27 C14       -1.8408    8.3331    7.9107 C.ar      1 RES1    0.0000
     28 C15       -2.1695    7.0187    7.6128 C.ar      1 RES1    0.0000
     29 H14       -2.7049    6.5568    8.2175 H         1 RES1    0.0000
     30 C16       -1.7525    6.3437    6.4713 C.ar      1 RES1    0.0000
     31 C17       -0.9048    7.0163    5.5691 C.ar      1 RES1    0.0000
     32 C18       -0.5844    8.3828    5.8131 C.ar      1 RES1    0.0000
     33 C19       -0.3089    6.3789    4.4206 C.ar      1 RES1    0.0000
     34 H15       -0.5080    5.4863    4.2510 H         1 RES1    0.0000
     35 C20        0.5229    7.0266    3.5847 C.ar      1 RES1    0.0000
     36 H16        0.9047    6.5673    2.8712 H         1 RES1    0.0000
     37 C21       -2.2468    4.9708    6.2341 C.ar      1 RES1    0.0000
     38 C22       -2.8889    4.6232    5.0354 C.ar      1 RES1    0.0000
     39 H17       -2.9496    5.2490    4.3496 H         1 RES1    0.0000
     40 C23       -3.4317    3.3605    4.8572 C.ar      1 RES1    0.0000
     41 H18       -3.8567    3.1472    4.0576 H         1 RES1    0.0000
     42 C24       -3.3455    2.4315    5.8540 C.ar      1 RES1    0.0000
     43 H19       -3.7118    1.5852    5.7331 H         1 RES1    0.0000
     44 C25       -2.7180    2.7482    7.0329 C.ar      1 RES1    0.0000
     45 H20       -2.6538    2.1088    7.7061 H         1 RES1    0.0000
     46 C26       -2.1811    3.9996    7.2295 C.ar      1 RES1    0.0000
     47 H21       -1.7685    4.1997    8.0390 H         1 RES1    0.0000
     48 C27       -3.6426    8.7561    9.5886 C.ar      1 RES1    0.0000
     49 H22       -4.2422    8.3265    9.0227 H         1 RES1    0.0000
     50 C28       -1.4702    9.5730   10.0667 C.ar      1 RES1    0.0000
     51 H23       -0.5790    9.6889    9.8298 H         1 RES1    0.0000
     52 C29       -2.3213    8.9173    9.1908 C.ar      1 RES1    0.0000
     53 C30       -1.9123   10.0609   11.2810 C.ar      1 RES1    0.0000
     54 H24       -1.3280   10.5132   11.8455 H         1 RES1    0.0000
     55 C31       -3.2107    9.8752   11.6456 C.ar      1 RES1    0.0000
     56 H25       -3.5081   10.1936   12.4685 H         1 RES1    0.0000
     57 C32       -4.0832    9.2265   10.8151 C.ar      1 RES1    0.0000
     58 H26       -4.9675    9.1012   11.0738 H         1 RES1    0.0000
     59 C33        6.9875   10.3683   -0.1953 C.3       2 RES2    0.0000
     60 H27        7.5376   10.8358   -0.8275 H         2 RES2    0.0000
     61 H28        7.0368   10.8064    0.6583 H         2 RES2    0.0000
     62 H29        6.0772   10.3674   -0.5021 H         2 RES2    0.0000
     63 C34        7.4454    8.3422   -1.4430 C.3       2 RES2    0.0000
     64 H30        7.7401    7.4304   -1.3965 H         2 RES2    0.0000
     65 H31        8.0289    8.8378   -2.0232 H         2 RES2    0.0000
     66 H32        6.5501    8.3718   -1.7889 H         2 RES2    0.0000
     67 C35        7.4716    8.9551   -0.0586 C.3       2 RES2    0.0000
     68 C36        6.5921    8.2086    0.9428 C.ar      2 RES2    0.0000
     69 C37        5.7710    7.1463    0.5659 C.ar      2 RES2    0.0000
     70 H33        5.7584    6.8938   -0.3291 H         2 RES2    0.0000
     71 C38        4.9694    6.4456    1.4654 C.ar      2 RES2    0.0000
     72 C39        6.5769    8.5648    2.2880 C.ar      2 RES2    0.0000
     73 H34        7.1290    9.2584    2.5699 H         2 RES2    0.0000
     74 C40        5.7683    7.9243    3.2353 C.ar      2 RES2    0.0000
     75 C41        5.7246    8.3333    4.6095 C.ar      2 RES2    0.0000
     76 H35        6.2500    9.0486    4.8888 H         2 RES2    0.0000
     77 C42        4.9401    7.7073    5.5038 C.ar      2 RES2    0.0000
     78 H36        4.9142    8.0197    6.3802 H         2 RES2    0.0000
     79 C43        4.1394    6.5669    5.1423 C.ar      2 RES2    0.0000
     80 C44        3.3939    5.8445    6.0810 C.ar      2 RES2    0.0000
     81 C45        4.9534    6.8279    2.8297 C.ar      2 RES2    0.0000
     82 C46        4.1660    6.1246    3.7906 C.ar      2 RES2    0.0000
     83 C47        3.4491    4.9538    3.3830 C.ar      2 RES2    0.0000
     84 C48        2.7702    4.2061    4.3717 C.ar      2 RES2    0.0000
     85 C49        2.7474    4.6827    5.6779 C.ar      2 RES2    0.0000
     86 H37        2.2741    4.1979    6.3151 H         2 RES2    0.0000
     87 C50        2.1091    2.8899    4.1074 C.ar      2 RES2    0.0000
     88 C51        2.7555    1.8804    3.4053 C.ar      2 RES2    0.0000
     89 H38        3.5906    2.0435    3.0293 H         2 RES2    0.0000
     90 C52        2.1698    0.6364    3.2576 C.ar      2 RES2    0.0000
     91 H39        2.6081   -0.0240    2.7708 H         2 RES2    0.0000
     92 C53        0.9550    0.3688    3.8214 C.ar      2 RES2    0.0000
     93 H40        0.5734   -0.4749    3.7303 H         2 RES2    0.0000
     94 C54        0.2910    1.3626    4.5333 C.ar      2 RES2    0.0000
     95 H41       -0.5364    1.1848    4.9205 H         2 RES2    0.0000
     96 C55        0.8578    2.6099    4.6648 C.ar      2 RES2    0.0000
     97 H42        0.4033    3.2734    5.1306 H         2 RES2    0.0000
     98 C56        3.2814    6.2385    7.5161 C.ar      2 RES2    0.0000
     99 C57        4.0422    5.6404    8.4758 C.ar      2 RES2    0.0000
    100 H43        4.6778    5.0086    8.2268 H         2 RES2    0.0000
    101 C58        3.8839    5.9593    9.8264 C.ar      2 RES2    0.0000
    102 H44        4.4274    5.5510   10.4620 H         2 RES2    0.0000
    103 C59        2.2277    7.4730    9.2719 C.ar      2 RES2    0.0000
    104 H45        1.6093    8.1181    9.5285 H         2 RES2    0.0000
    105 C60        2.9593    6.8442   10.2167 C.ar      2 RES2    0.0000
    106 H46        2.8224    7.0212   11.1203 H         2 RES2    0.0000
    107 C61        2.3815    7.1747    7.9177 C.ar      2 RES2    0.0000
    108 H47        1.8659    7.6197    7.2858 H         2 RES2    0.0000
    109 C62        4.1617    5.3339    1.0860 C.ar      2 RES2    0.0000
    110 H48        4.1262    5.0892    0.1897 H         2 RES2    0.0000
    111 C63        3.4478    4.6258    1.9847 C.ar      2 RES2    0.0000
    112 H49        2.9398    3.9048    1.6904 H         2 RES2    0.0000
    113 C64        8.9016    8.9289    0.3924 C.3       2 RES2    0.0000
    114 H50        9.1923    8.0192    0.4835 H         2 RES2    0.0000
    115 H51        8.9791    9.3761    1.2385 H         2 RES2    0.0000
    116 H52        9.4507    9.3762   -0.2566 H         2 RES2    0.0000
@<TRIPOS>BOND
     1    1    2 1
     2    2    3 1
     3    4    2 1
     4    5    2 1
     5    6    1 1
     6    7    6 1
     7    8    6 1
     8    9    6 1
     9   10    1 1
    10   11   10 1
    11   12   10 1
    12   13   10 1
    13   14    1 1
    14   15   14 ar
    15   16   15 1
    16   17   15 ar
    17   18   17 ar
    18   19   18 ar
    19   20   14 ar
    20   21   20 1
    21   22   19 ar
    22   23   22 1
    23   24   22 ar
    24   25   24 1
    25   26   24 ar
    26   27   26 ar
    27   28   27 ar
    28   29   28 1
    29   30   28 ar
    30   31   30 ar
    31   32   18 ar
    32   33   31 ar
    33   34   33 1
    34   35   17 ar
    35   36   35 1
    36   37   30 1
    37   38   37 ar
    38   39   38 1
    39   40   38 ar
    40   41   40 1
    41   42   40 ar
    42   43   42 1
    43   44   42 ar
    44   45   44 1
    45   46   37 ar
    46   47   46 1
    47   48   49 1
    48   50   51 1
    49   52   27 1
    50   53   50 ar
    51   54   53 1
    52   55   53 ar
    53   56   55 1
    54   57   48 ar
    55   58   57 1
    56   59   60 1
    57   61   59 1
    58   62   59 1
    59   63   64 1
    60   65   63 1
    61   66   63 1
    62   67   59 1
    63   68   67 1
    64   69   68 ar
    65   70   69 1
    66   71   69 ar
    67   72   68 ar
    68   73   72 1
    69   74   72 ar
    70   75   74 ar
    71   76   75 1
    72   77   75 ar
    73   78   77 1
    74   79   77 ar
    75   80   79 ar
    76   81   71 ar
    77   82   79 ar
    78   83   82 ar
    79   84   83 ar
    80   85   80 ar
    81   86   85 1
    82   87   84 1
    83   88   87 ar
    84   89   88 1
    85   90   88 ar
    86   91   90 1
    87   92   90 ar
    88   93   92 1
    89   94   92 ar
    90   95   94 1
    91   96   87 ar
    92   97   96 1
    93   98   80 1
    94   99   98 ar
    95  100   99 1
    96  101   99 ar
    97  102  101 1
    98  103  104 1
    99  105  101 ar
   100  106  105 1
   101  107   98 ar
   102  108  107 1
   103  109   71 ar
   104  110  109 1
   105  111   83 ar
   106  112  111 1
   107  113   67 1
   108  114  113 1
   109  115  113 1
   110  116  113 1
   111   19   20 ar
   112   26   32 ar
   113   31   32 ar
   114   33   35 ar
   115   44   46 ar
   116   48   52 ar
   117   50   52 ar
   118   55   57 ar
   119   63   67 1
   120   74   81 ar
   121   81   82 ar
   122   84   85 ar
   123   94   96 ar
   124  103  105 ar
   125  103  107 ar
   126  109  111 ar
@<TRIPOS>SUBSTRUCTURE
     1 RES1 1
     2 RES2 59

@<TRIPOS>CRYSIN
   9.9370   12.9760   19.0180 100.0970  93.5750 105.8950   2 1

