# MOL2 file generated by ConQuest
# Please check atom types

@<TRIPOS>MOLECULE
GIJRIC
   144   160     2
SMALL
NO_CHARGES
****
Generated from CSD

@<TRIPOS>ATOM
      1 C1         2.1236    6.4734    2.9738 C.ar      1 RES1    0.0000
      2 C2         2.9848    6.6126    1.9055 C.ar      1 RES1    0.0000
      3 H1         3.8648    6.9298    2.0673 H         1 RES1    0.0000
      4 C3         2.6121    6.3062    0.5987 C.ar      1 RES1    0.0000
      5 H2         3.2540    6.3741   -0.0984 H         1 RES1    0.0000
      6 C4         1.3222    5.9040    0.2980 C.ar      1 RES1    0.0000
      7 C5         0.4220    5.6547    1.3812 C.ar      1 RES1    0.0000
      8 C6        -0.8831    5.1454    1.0929 C.ar      1 RES1    0.0000
      9 C7        -1.7042    4.8074    2.1574 C.ar      1 RES1    0.0000
     10 H3        -2.5822    4.4885    1.9864 H         1 RES1    0.0000
     11 C8        -1.2678    4.9251    3.4667 C.ar      1 RES1    0.0000
     12 H4        -1.8493    4.6535    4.1662 H         1 RES1    0.0000
     13 C9        -0.0264    5.4191    3.7970 C.ar      1 RES1    0.0000
     14 C10        0.8420    5.8658    2.7423 C.ar      1 RES1    0.0000
     15 C11        2.5742    7.0474    4.2732 C.ar      1 RES1    0.0000
     16 C12        3.8388    6.7570    4.7876 C.ar      1 RES1    0.0000
     17 H5         4.4075    6.1559    4.3191 H         1 RES1    0.0000
     18 C13        4.2778    7.3310    5.9685 C.ar      1 RES1    0.0000
     19 H6         5.1392    7.1176    6.3072 H         1 RES1    0.0000
     20 C14        3.4683    8.2117    6.6532 C.ar      1 RES1    0.0000
     21 H7         3.7675    8.5982    7.4674 H         1 RES1    0.0000
     22 C15        2.2188    8.5302    6.1492 C.ar      1 RES1    0.0000
     23 H8         1.6613    9.1443    6.6131 H         1 RES1    0.0000
     24 C16        1.7813    7.9528    4.9698 C.ar      1 RES1    0.0000
     25 H9         0.9242    8.1792    4.6302 H         1 RES1    0.0000
     26 C17        0.3638    5.3416    5.2304 C.ar      1 RES1    0.0000
     27 C18        1.5102    4.6591    5.6262 C.ar      1 RES1    0.0000
     28 H10        2.0419    4.2161    4.9748 H         1 RES1    0.0000
     29 C19        1.8832    4.6186    6.9554 C.ar      1 RES1    0.0000
     30 H11        2.6733    4.1564    7.2108 H         1 RES1    0.0000
     31 C20        1.1106    5.2483    7.9192 C.ar      1 RES1    0.0000
     32 H12        1.3847    5.2451    8.8280 H         1 RES1    0.0000
     33 C21       -0.0629    5.8824    7.5478 C.ar      1 RES1    0.0000
     34 H13       -0.6135    6.2872    8.2075 H         1 RES1    0.0000
     35 C22       -0.4352    5.9275    6.2146 C.ar      1 RES1    0.0000
     36 H14       -1.2424    6.3621    5.9662 H         1 RES1    0.0000
     37 C23       -0.0486    1.5791   11.9277 C.ar      2 RES2    0.0000
     38 C24        0.2696    2.4786   10.9362 C.ar      2 RES2    0.0000
     39 H15        0.7727    3.2511   11.1660 H         2 RES2    0.0000
     40 C25       -0.1159    2.3036    9.6141 C.ar      2 RES2    0.0000
     41 H16        0.1057    2.9688    8.9739 H         2 RES2    0.0000
     42 C26       -0.8138    1.1851    9.2093 C.ar      2 RES2    0.0000
     43 C27       -1.1774    0.2185   10.1974 C.ar      2 RES2    0.0000
     44 C28       -1.8567   -0.9712    9.7885 C.ar      2 RES2    0.0000
     45 C29       -2.1652   -1.9201   10.7471 C.ar      2 RES2    0.0000
     46 H17       -2.5423   -2.7507   10.4804 H         2 RES2    0.0000
     47 C30       -1.9310   -1.6722   12.0922 C.ar      2 RES2    0.0000
     48 H18       -2.1900   -2.3306   12.7270 H         2 RES2    0.0000
     49 C31       -1.3393   -0.5146   12.5484 C.ar      2 RES2    0.0000
     50 C32       -0.8507    0.4367   11.5835 C.ar      2 RES2    0.0000
     51 C33        0.5662    1.8226   13.2631 C.ar      2 RES2    0.0000
     52 C34        1.4202    0.8941   13.8569 C.ar      2 RES2    0.0000
     53 H19        1.5807    0.0619   13.4266 H         2 RES2    0.0000
     54 C35        2.0391    1.1692   15.0674 C.ar      2 RES2    0.0000
     55 H20        2.6288    0.5319   15.4534 H         2 RES2    0.0000
     56 C36        1.7998    2.3712   15.7138 C.ar      2 RES2    0.0000
     57 H21        2.2104    2.5520   16.5521 H         2 RES2    0.0000
     58 C37        0.9679    3.2997   15.1402 C.ar      2 RES2    0.0000
     59 H22        0.8080    4.1282   15.5782 H         2 RES2    0.0000
     60 C38        0.3591    3.0320   13.9227 C.ar      2 RES2    0.0000
     61 H23       -0.2087    3.6853   13.5321 H         2 RES2    0.0000
     62 C39       -1.3379   -0.3152   14.0201 C.ar      2 RES2    0.0000
     63 C40       -0.8783   -1.3184   14.8654 C.ar      2 RES2    0.0000
     64 H24       -0.5072   -2.1091   14.4936 H         2 RES2    0.0000
     65 C41       -0.9541   -1.1827   16.2417 C.ar      2 RES2    0.0000
     66 H25       -0.6445   -1.8833   16.8035 H         2 RES2    0.0000
     67 C42       -1.4761   -0.0380   16.7982 C.ar      2 RES2    0.0000
     68 H26       -1.5038    0.0640   17.7422 H         2 RES2    0.0000
     69 C43       -1.9604    0.9661   15.9743 C.ar      2 RES2    0.0000
     70 H27       -2.3372    1.7509   16.3552 H         2 RES2    0.0000
     71 C44       -1.8969    0.8278   14.6009 C.ar      2 RES2    0.0000
     72 H28       -2.2382    1.5175   14.0436 H         2 RES2    0.0000
     73 C1B       -2.1236    4.3816   -2.9738 C.ar      1 RES1    0.0000
     74 C2B       -2.9848    4.2424   -1.9055 C.ar      1 RES1    0.0000
     75 H1B       -3.8648    3.9252   -2.0673 H         1 RES1    0.0000
     76 C3B       -2.6121    4.5488   -0.5987 C.ar      1 RES1    0.0000
     77 H2B       -3.2540    4.4809    0.0984 H         1 RES1    0.0000
     78 C4B       -1.3222    4.9510   -0.2980 C.ar      1 RES1    0.0000
     79 C5B       -0.4220    5.2003   -1.3812 C.ar      1 RES1    0.0000
     80 C6B        0.8831    5.7096   -1.0929 C.ar      1 RES1    0.0000
     81 C7B        1.7042    6.0476   -2.1574 C.ar      1 RES1    0.0000
     82 H3B        2.5822    6.3665   -1.9864 H         1 RES1    0.0000
     83 C8B        1.2678    5.9299   -3.4667 C.ar      1 RES1    0.0000
     84 H4B        1.8493    6.2015   -4.1662 H         1 RES1    0.0000
     85 C9B        0.0264    5.4359   -3.7970 C.ar      1 RES1    0.0000
     86 C10B      -0.8420    4.9892   -2.7423 C.ar      1 RES1    0.0000
     87 C11B      -2.5742    3.8076   -4.2732 C.ar      1 RES1    0.0000
     88 C12B      -3.8388    4.0980   -4.7876 C.ar      1 RES1    0.0000
     89 H5B       -4.4075    4.6991   -4.3191 H         1 RES1    0.0000
     90 C13B      -4.2778    3.5240   -5.9685 C.ar      1 RES1    0.0000
     91 H6B       -5.1392    3.7374   -6.3072 H         1 RES1    0.0000
     92 C14B      -3.4683    2.6433   -6.6532 C.ar      1 RES1    0.0000
     93 H7B       -3.7675    2.2568   -7.4674 H         1 RES1    0.0000
     94 C15B      -2.2188    2.3248   -6.1492 C.ar      1 RES1    0.0000
     95 H8B       -1.6613    1.7107   -6.6131 H         1 RES1    0.0000
     96 C16B      -1.7813    2.9022   -4.9698 C.ar      1 RES1    0.0000
     97 H9B       -0.9242    2.6758   -4.6302 H         1 RES1    0.0000
     98 C17B      -0.3638    5.5134   -5.2304 C.ar      1 RES1    0.0000
     99 C18B      -1.5102    6.1959   -5.6262 C.ar      1 RES1    0.0000
    100 H10B      -2.0419    6.6389   -4.9748 H         1 RES1    0.0000
    101 C19B      -1.8832    6.2364   -6.9554 C.ar      1 RES1    0.0000
    102 H11B      -2.6733    6.6986   -7.2108 H         1 RES1    0.0000
    103 C20B      -1.1106    5.6067   -7.9192 C.ar      1 RES1    0.0000
    104 H12B      -1.3847    5.6099   -8.8280 H         1 RES1    0.0000
    105 C21B       0.0629    4.9726   -7.5478 C.ar      1 RES1    0.0000
    106 H13B       0.6135    4.5678   -8.2075 H         1 RES1    0.0000
    107 C22B       0.4352    4.9275   -6.2146 C.ar      1 RES1    0.0000
    108 H14B       1.2424    4.4929   -5.9662 H         1 RES1    0.0000
    109 C23B      -2.9701   -1.5791    5.6510 C.ar      2 RES2    0.0000
    110 C24B      -3.2882   -2.4786    6.6425 C.ar      2 RES2    0.0000
    111 H15B      -3.7914   -3.2511    6.4127 H         2 RES2    0.0000
    112 C25B      -2.9028   -2.3036    7.9646 C.ar      2 RES2    0.0000
    113 H16B      -3.1244   -2.9688    8.6048 H         2 RES2    0.0000
    114 C26B      -2.2049   -1.1851    8.3694 C.ar      2 RES2    0.0000
    115 C27B      -1.8413   -0.2185    7.3813 C.ar      2 RES2    0.0000
    116 C28B      -1.1620    0.9712    7.7902 C.ar      2 RES2    0.0000
    117 C29B      -0.8534    1.9201    6.8316 C.ar      2 RES2    0.0000
    118 H17B      -0.4764    2.7507    7.0983 H         2 RES2    0.0000
    119 C30B      -1.0877    1.6722    5.4865 C.ar      2 RES2    0.0000
    120 H18B      -0.8287    2.3306    4.8517 H         2 RES2    0.0000
    121 C31B      -1.6793    0.5146    5.0303 C.ar      2 RES2    0.0000
    122 C32B      -2.1680   -0.4367    5.9952 C.ar      2 RES2    0.0000
    123 C33B      -3.5848   -1.8226    4.3156 C.ar      2 RES2    0.0000
    124 C34B      -4.4389   -0.8941    3.7218 C.ar      2 RES2    0.0000
    125 H19B      -4.5993   -0.0619    4.1521 H         2 RES2    0.0000
    126 C35B      -5.0578   -1.1692    2.5113 C.ar      2 RES2    0.0000
    127 H20B      -5.6475   -0.5319    2.1253 H         2 RES2    0.0000
    128 C36B      -4.8184   -2.3712    1.8649 C.ar      2 RES2    0.0000
    129 H21B      -5.2291   -2.5520    1.0266 H         2 RES2    0.0000
    130 C37B      -3.9866   -3.2997    2.4385 C.ar      2 RES2    0.0000
    131 H22B      -3.8267   -4.1282    2.0005 H         2 RES2    0.0000
    132 C38B      -3.3778   -3.0320    3.6560 C.ar      2 RES2    0.0000
    133 H23B      -2.8100   -3.6853    4.0466 H         2 RES2    0.0000
    134 C39B      -1.6808    0.3152    3.5586 C.ar      2 RES2    0.0000
    135 C40B      -2.1404    1.3184    2.7133 C.ar      2 RES2    0.0000
    136 H24B      -2.5115    2.1091    3.0851 H         2 RES2    0.0000
    137 C41B      -2.0646    1.1827    1.3370 C.ar      2 RES2    0.0000
    138 H25B      -2.3742    1.8833    0.7752 H         2 RES2    0.0000
    139 C42B      -1.5426    0.0380    0.7805 C.ar      2 RES2    0.0000
    140 H26B      -1.5149   -0.0640   -0.1635 H         2 RES2    0.0000
    141 C43B      -1.0583   -0.9661    1.6044 C.ar      2 RES2    0.0000
    142 H27B      -0.6814   -1.7509    1.2235 H         2 RES2    0.0000
    143 C44B      -1.1217   -0.8278    2.9778 C.ar      2 RES2    0.0000
    144 H28B      -0.7805   -1.5175    3.5351 H         2 RES2    0.0000
@<TRIPOS>BOND
     1    1    2 ar
     2    2    3 1
     3    4    2 ar
     4    5    4 1
     5    6    4 ar
     6    7    6 ar
     7    8    7 ar
     8    9    8 ar
     9   10    9 1
    10   11    9 ar
    11   12   11 1
    12   13   11 ar
    13   14    1 ar
    14   15    1 1
    15   16   15 ar
    16   17   16 1
    17   18   16 ar
    18   19   18 1
    19   20   18 ar
    20   21   20 1
    21   22   20 ar
    22   23   22 1
    23   24   15 ar
    24   25   24 1
    25   26   13 1
    26   27   26 ar
    27   28   27 1
    28   29   27 ar
    29   30   29 1
    30   31   29 ar
    31   32   31 1
    32   33   31 ar
    33   34   33 1
    34   35   26 ar
    35   36   35 1
    36   37   38 ar
    37   38   39 1
    38   40   38 ar
    39   41   40 1
    40   42   40 ar
    41   43   42 ar
    42   44   43 ar
    43   45   44 ar
    44   46   45 1
    45   47   45 ar
    46   48   47 1
    47   49   47 ar
    48   50   37 ar
    49   51   37 1
    50   52   51 ar
    51   53   52 1
    52   54   52 ar
    53   55   54 1
    54   56   54 ar
    55   57   56 1
    56   58   56 ar
    57   59   58 1
    58   60   51 ar
    59   61   60 1
    60   62   49 1
    61   63   62 ar
    62   64   63 1
    63   65   63 ar
    64   66   65 1
    65   67   65 ar
    66   68   67 1
    67   69   67 ar
    68   70   69 1
    69   71   62 ar
    70   72   71 1
    71   73   74 ar
    72   74   75 1
    73   76   74 ar
    74   77   76 1
    75   78    8 ar
    76   79   78 ar
    77   80    6 ar
    78   81   80 ar
    79   82   81 1
    80   83   81 ar
    81   84   83 1
    82   85   83 ar
    83   86   73 ar
    84   87   73 1
    85   88   87 ar
    86   89   88 1
    87   90   88 ar
    88   91   90 1
    89   92   90 ar
    90   93   92 1
    91   94   92 ar
    92   95   94 1
    93   96   87 ar
    94   97   96 1
    95   98   85 1
    96   99   98 ar
    97  100   99 1
    98  101   99 ar
    99  102  101 1
   100  103  101 ar
   101  104  103 1
   102  105  103 ar
   103  106  105 1
   104  107   98 ar
   105  108  107 1
   106  109  110 ar
   107  110  111 1
   108  112  110 ar
   109  113  112 1
   110  114   44 ar
   111  115  114 ar
   112  116   42 ar
   113  117  116 ar
   114  118  117 1
   115  119  117 ar
   116  120  119 1
   117  121  119 ar
   118  122  109 ar
   119  123  109 1
   120  124  123 ar
   121  125  124 1
   122  126  124 ar
   123  127  126 1
   124  128  126 ar
   125  129  128 1
   126  130  128 ar
   127  131  130 1
   128  132  123 ar
   129  133  132 1
   130  134  121 1
   131  135  134 ar
   132  136  135 1
   133  137  135 ar
   134  138  137 1
   135  139  137 ar
   136  140  139 1
   137  141  139 ar
   138  142  141 1
   139  143  134 ar
   140  144  143 1
   141    7   14 ar
   142   13   14 ar
   143   22   24 ar
   144   33   35 ar
   145   43   50 ar
   146   49   50 ar
   147   58   60 ar
   148   69   71 ar
   149   76   78 ar
   150   79   80 ar
   151   79   86 ar
   152   85   86 ar
   153   94   96 ar
   154  105  107 ar
   155  112  114 ar
   156  115  116 ar
   157  115  122 ar
   158  121  122 ar
   159  130  132 ar
   160  141  143 ar
@<TRIPOS>SUBSTRUCTURE
     1 RES1 1
     2 RES2 37

@<TRIPOS>CRYSIN
  14.8220   10.8550   17.8360  90.0000  99.7440  90.0000 231 1

