# MOL2 file generated by ConQuest
# Please check atom types

@<TRIPOS>MOLECULE
GIJROI
    62    69     1
SMALL
NO_CHARGES
****
Generated from CSD

@<TRIPOS>ATOM
      1 C1         4.9053   11.4830    5.2829 C.ar      1 RES1    0.0000
      2 H1         5.3598   10.9436    5.9203 H         1 RES1    0.0000
      3 C2         4.8604   12.8533    5.4577 C.ar      1 RES1    0.0000
      4 H2         5.2233   13.2243    6.2524 H         1 RES1    0.0000
      5 C3         4.3116   13.6994    4.5273 C.ar      1 RES1    0.0000
      6 C4         3.8086   13.1448    3.2956 C.ar      1 RES1    0.0000
      7 C5         3.4449   13.9322    2.1366 C.ar      1 RES1    0.0000
      8 C6         2.7321   13.2962    1.1254 C.ar      1 RES1    0.0000
      9 H3         2.4233   13.8129    0.3913 H         1 RES1    0.0000
     10 C7         2.4554   11.9316    1.1510 C.ar      1 RES1    0.0000
     11 H4         1.9194   11.5530    0.4652 H         1 RES1    0.0000
     12 C8         2.9410   11.1215    2.1473 C.ar      1 RES1    0.0000
     13 C9         3.6630   11.7177    3.2203 C.ar      1 RES1    0.0000
     14 C10        4.2924   10.8811    4.1857 C.ar      1 RES1    0.0000
     15 C11        4.2805    9.4332    4.0365 C.ar      1 RES1    0.0000
     16 C12        5.0501    8.6004    4.8365 C.ar      1 RES1    0.0000
     17 H5         5.6209    8.9865    5.4913 H         1 RES1    0.0000
     18 C13        5.0052    7.2169    4.7034 C.ar      1 RES1    0.0000
     19 H6         5.5723    6.6850    5.2507 H         1 RES1    0.0000
     20 C14        4.1715    6.5923    3.8119 C.ar      1 RES1    0.0000
     21 C15        3.3661    7.4099    2.9380 C.ar      1 RES1    0.0000
     22 C16        2.4472    6.8686    2.0142 C.ar      1 RES1    0.0000
     23 H7         2.3372    5.9260    1.9658 H         1 RES1    0.0000
     24 C17        1.7133    7.6673    1.1886 C.ar      1 RES1    0.0000
     25 H8         1.0921    7.2755    0.5849 H         1 RES1    0.0000
     26 C18        1.8663    9.0528    1.2236 C.ar      1 RES1    0.0000
     27 H9         1.3624    9.5960    0.6279 H         1 RES1    0.0000
     28 C19        2.7431    9.6490    2.1124 C.ar      1 RES1    0.0000
     29 C20        3.4596    8.8370    3.0294 C.ar      1 RES1    0.0000
     30 C21        4.1870   15.1511    4.9024 C.ar      1 RES1    0.0000
     31 C22        5.2397   15.8097    5.5169 C.ar      1 RES1    0.0000
     32 H10        6.0313   15.3309    5.7307 H         1 RES1    0.0000
     33 C23        5.1545   17.1479    5.8194 C.ar      1 RES1    0.0000
     34 H11        5.8957   17.5870    6.2188 H         1 RES1    0.0000
     35 C24        4.0111   17.8557    5.5532 C.ar      1 RES1    0.0000
     36 H12        3.9598   18.7813    5.7562 H         1 RES1    0.0000
     37 C25        2.9346   17.2046    4.9858 C.ar      1 RES1    0.0000
     38 H13        2.1329   17.6854    4.8164 H         1 RES1    0.0000
     39 C26        3.0042   15.8703    4.6617 C.ar      1 RES1    0.0000
     40 H14        2.2539   15.4350    4.2758 H         1 RES1    0.0000
     41 C27        3.8691   15.3403    1.9282 C.ar      1 RES1    0.0000
     42 C28        5.1683   15.7832    2.2199 C.ar      1 RES1    0.0000
     43 H15        5.8170   15.1567    2.5171 H         1 RES1    0.0000
     44 C29        5.5238   17.1157    2.0841 C.ar      1 RES1    0.0000
     45 H16        6.4033   17.3996    2.3033 H         1 RES1    0.0000
     46 C30        4.5911   18.0242    1.6270 C.ar      1 RES1    0.0000
     47 H17        4.8229   18.9421    1.5611 H         1 RES1    0.0000
     48 C31        3.3295   17.6116    1.2680 C.ar      1 RES1    0.0000
     49 H18        2.6982   18.2343    0.9278 H         1 RES1    0.0000
     50 C32        2.9877   16.2678    1.4078 C.ar      1 RES1    0.0000
     51 H19        2.1228   15.9801    1.1375 H         1 RES1    0.0000
     52 C33        4.1357    5.1122    3.7931 C.ar      1 RES1    0.0000
     53 C34        4.0505    4.3967    4.9912 C.ar      1 RES1    0.0000
     54 H20        3.9901    4.8756    5.8087 H         1 RES1    0.0000
     55 C35        4.0514    3.0302    5.0275 C.ar      1 RES1    0.0000
     56 H21        3.9736    2.5760    5.8571 H         1 RES1    0.0000
     57 C36        4.1660    2.3015    3.8361 C.ar      1 RES1    0.0000
     58 H22        4.1760    1.3514    3.8496 H         1 RES1    0.0000
     59 C37        4.2658    2.9829    2.6475 C.ar      1 RES1    0.0000
     60 H23        4.3318    2.4946    1.8354 H         1 RES1    0.0000
     61 C38        4.2713    4.3665    2.6099 C.ar      1 RES1    0.0000
     62 H24        4.3666    4.8150    1.7776 H         1 RES1    0.0000
@<TRIPOS>BOND
     1    1    2 1
     2    3    1 ar
     3    4    3 1
     4    5    3 ar
     5    6    5 ar
     6    7    6 ar
     7    8    7 ar
     8    9    8 1
     9   10    8 ar
    10   11   10 1
    11   12   10 ar
    12   13    6 ar
    13   14    1 ar
    14   15   14 ar
    15   16   15 ar
    16   17   16 1
    17   18   16 ar
    18   19   18 1
    19   20   18 ar
    20   21   20 ar
    21   22   21 ar
    22   23   22 1
    23   24   22 ar
    24   25   24 1
    25   26   24 ar
    26   27   26 1
    27   28   12 ar
    28   29   15 ar
    29   30    5 1
    30   31   30 ar
    31   32   31 1
    32   33   31 ar
    33   34   33 1
    34   35   33 ar
    35   36   35 1
    36   37   35 ar
    37   38   37 1
    38   39   30 ar
    39   40   39 1
    40   41    7 1
    41   42   41 ar
    42   43   42 1
    43   44   42 ar
    44   45   44 1
    45   46   44 ar
    46   47   46 1
    47   48   46 ar
    48   49   48 1
    49   50   41 ar
    50   51   50 1
    51   52   20 1
    52   53   52 ar
    53   54   53 1
    54   55   53 ar
    55   56   55 1
    56   57   55 ar
    57   58   57 1
    58   59   57 ar
    59   60   59 1
    60   61   52 ar
    61   62   61 1
    62   12   13 ar
    63   13   14 ar
    64   21   29 ar
    65   26   28 ar
    66   28   29 ar
    67   37   39 ar
    68   48   50 ar
    69   59   61 ar
@<TRIPOS>SUBSTRUCTURE
     1 RES1 1

@<TRIPOS>CRYSIN
   9.1620   18.9270   13.4460  90.0000  90.0000  90.0000  29 1

