# MOL2 file generated by ConQuest
# Please check atom types

@<TRIPOS>MOLECULE
GILBUZ
   132   144     2
SMALL
NO_CHARGES
****
Generated from CSD

@<TRIPOS>ATOM
      1 C1        13.5897    5.2262    2.5645 C.ar      1 RES1    0.0000
      2 C2        12.8666    5.5448    3.6904 C.ar      1 RES1    0.0000
      3 H1        12.9614    6.2541    4.0450 H         1 RES1    0.0000
      4 C3        12.0441    4.5830    4.3139 C.ar      1 RES1    0.0000
      5 H2        11.5842    4.8928    5.0415 H         1 RES1    0.0000
      6 C4        11.9147    3.3648    3.7946 C.ar      1 RES1    0.0000
      7 H3        11.3791    2.8311    4.0836 H         1 RES1    0.0000
      8 C5        12.9962    0.1647    0.0723 C.ar      1 RES1    0.0000
      9 H4        12.4424   -0.4834    0.4705 H         1 RES1    0.0000
     10 C6        13.7155   -0.0957   -1.0285 C.ar      1 RES1    0.0000
     11 H5        13.5942   -0.8977   -1.3780 H         1 RES1    0.0000
     12 C7        14.6726    0.7961   -1.5259 C.ar      1 RES1    0.0000
     13 H6        15.2264    0.5820   -2.1174 H         1 RES1    0.0000
     14 C8        14.8843    1.9877   -0.8957 C.ar      1 RES1    0.0000
     15 C9        14.2532    3.5345    0.9108 C.ar      1 RES1    0.0000
     16 H7        14.8224    4.1234    0.5546 H         1 RES1    0.0000
     17 C10       12.4536    1.6730    2.0082 C.ar      1 RES1    0.0000
     18 C11       13.5023    3.9034    2.0082 C.ar      1 RES1    0.0000
     19 C12       12.6117    2.9426    2.6082 C.ar      1 RES1    0.0000
     20 C13       14.1185    2.3172    0.2874 C.ar      1 RES1    0.0000
     21 C14       13.1652    1.3633    0.8150 C.ar      1 RES1    0.0000
     22 C15       14.4656    6.1870    1.9393 C.1       1 RES1    0.0000
     23 C16       15.8314    2.9189   -1.4419 C.1       1 RES1    0.0000
     24 C17       11.5004    0.6491    2.6367 C.3       1 RES1    0.0000
     25 H8        11.1806    1.0259    3.4282 H         1 RES1    0.0000
     26 C18       10.2104    0.5070    1.8502 C.3       1 RES1    0.0000
     27 H9         9.8239    1.3741    1.7108 H         1 RES1    0.0000
     28 H10        9.5952   -0.0424    2.3426 H         1 RES1    0.0000
     29 H11       10.3972    0.0986    1.0016 H         1 RES1    0.0000
     30 C19       12.1617   -0.6639    3.0300 C.3       1 RES1    0.0000
     31 H12       11.5446   -1.1946    3.5375 H         1 RES1    0.0000
     32 H13       12.9407   -0.4824    3.5627 H         1 RES1    0.0000
     33 H14       12.4210   -1.1413    2.2384 H         1 RES1    0.0000
     34 C20       11.4690    2.9455    8.5572 C.ar      2 RES2    0.0000
     35 C21       11.1359    4.2486    8.7387 C.ar      2 RES2    0.0000
     36 H15       11.6756    4.8928    9.3772 H         2 RES2    0.0000
     37 C22       10.0795    4.8188    8.0009 C.ar      2 RES2    0.0000
     38 H16        9.8690    5.7115    8.1001 H         2 RES2    0.0000
     39 C23        9.3337    4.0780    7.1304 C.ar      2 RES2    0.0000
     40 H17        8.5755    4.5377    6.6834 H         2 RES2    0.0000
     41 C24        8.4191   -0.3788    5.0651 C.ar      2 RES2    0.0000
     42 H18        7.5959   -0.0691    4.5206 H         2 RES2    0.0000
     43 C25        8.7601   -1.6937    4.9659 C.ar      2 RES2    0.0000
     44 H19        8.1781   -2.2787    4.2685 H         2 RES2    0.0000
     45 C26        9.8827   -2.2116    5.6179 C.ar      2 RES2    0.0000
     46 H20       10.1388   -3.1369    5.4112 H         2 RES2    0.0000
     47 C27       10.6722   -1.3909    6.3775 C.ar      2 RES2    0.0000
     48 C28       11.0484    0.7980    7.4178 C.ar      2 RES2    0.0000
     49 H21       11.8467    0.4143    7.9488 H         2 RES2    0.0000
     50 C29        8.8364    1.8910    6.0297 C.ar      2 RES2    0.0000
     51 C30       10.7177    2.1337    7.6245 C.ar      2 RES2    0.0000
     52 C31        9.6012    2.7009    6.9086 C.ar      2 RES2    0.0000
     53 C32       10.3233   -0.0059    6.5641 C.ar      2 RES2    0.0000
     54 C33        9.1835    0.5278    5.8667 C.ar      2 RES2    0.0000
     55 C34       12.5790    2.3685    9.2647 C.1       2 RES2    0.0000
     56 C35       11.8549   -1.9177    7.0077 C.1       2 RES2    0.0000
     57 C36        7.6264    2.4572    5.2684 C.3       2 RES2    0.0000
     58 H22        7.2368    1.5685    4.7558 H         2 RES2    0.0000
     59 C37        6.4990    2.9860    6.1557 C.3       2 RES2    0.0000
     60 H23        6.7778    3.8018    6.5775 H         2 RES2    0.0000
     61 H24        6.2878    2.3339    6.8279 H         2 RES2    0.0000
     62 H25        5.7217    3.1547    5.6179 H         2 RES2    0.0000
     63 C38        8.0342    3.4526    4.1929 C.3       2 RES2    0.0000
     64 H26        8.3982    4.2398    4.6063 H         2 RES2    0.0000
     65 H27        7.2658    3.6923    3.6702 H         2 RES2    0.0000
     66 H28        8.6972    3.0550    3.6232 H         2 RES2    0.0000
     67 C1B       17.4857    4.6383   -2.5645 C.ar      1 RES1    0.0000
     68 C2B       18.2088    4.3197   -3.6904 C.ar      1 RES1    0.0000
     69 H1B       18.1140    3.6104   -4.0450 H         1 RES1    0.0000
     70 C3B       19.0313    5.2815   -4.3139 C.ar      1 RES1    0.0000
     71 H2B       19.4912    4.9717   -5.0415 H         1 RES1    0.0000
     72 C4B       19.1607    6.4997   -3.7946 C.ar      1 RES1    0.0000
     73 H3B       19.6963    7.0334   -4.0836 H         1 RES1    0.0000
     74 C5B       18.0792    9.6998   -0.0723 C.ar      1 RES1    0.0000
     75 H4B       18.6330   10.3479   -0.4705 H         1 RES1    0.0000
     76 C6B       17.3599    9.9602    1.0285 C.ar      1 RES1    0.0000
     77 H5B       17.4812   10.7622    1.3780 H         1 RES1    0.0000
     78 C7B       16.4028    9.0684    1.5259 C.ar      1 RES1    0.0000
     79 H6B       15.8490    9.2825    2.1174 H         1 RES1    0.0000
     80 C8B       16.1911    7.8768    0.8957 C.ar      1 RES1    0.0000
     81 C9B       16.8222    6.3300   -0.9108 C.ar      1 RES1    0.0000
     82 H7B       16.2530    5.7411   -0.5546 H         1 RES1    0.0000
     83 C10B      18.6218    8.1915   -2.0082 C.ar      1 RES1    0.0000
     84 C11B      17.5731    5.9611   -2.0082 C.ar      1 RES1    0.0000
     85 C12B      18.4637    6.9219   -2.6082 C.ar      1 RES1    0.0000
     86 C13B      16.9569    7.5473   -0.2874 C.ar      1 RES1    0.0000
     87 C14B      17.9102    8.5012   -0.8150 C.ar      1 RES1    0.0000
     88 C15B      16.6098    3.6775   -1.9393 C.1       1 RES1    0.0000
     89 C16B      15.2440    6.9456    1.4419 C.1       1 RES1    0.0000
     90 C17B      19.5750    9.2154   -2.6367 C.3       1 RES1    0.0000
     91 H8B       19.8948    8.8386   -3.4282 H         1 RES1    0.0000
     92 C18B      20.8650    9.3575   -1.8502 C.3       1 RES1    0.0000
     93 H9B       21.2515    8.4904   -1.7108 H         1 RES1    0.0000
     94 H10B      21.4802    9.9069   -2.3426 H         1 RES1    0.0000
     95 H11B      20.6782    9.7659   -1.0016 H         1 RES1    0.0000
     96 C19B      18.9137   10.5284   -3.0300 C.3       1 RES1    0.0000
     97 H12B      19.5308   11.0591   -3.5375 H         1 RES1    0.0000
     98 H13B      18.1347   10.3469   -3.5627 H         1 RES1    0.0000
     99 H14B      18.6544   11.0058   -2.2384 H         1 RES1    0.0000
    100 C20B      13.9381   -2.9455    8.2479 C.ar      2 RES2    0.0000
    101 C21B      14.2713   -4.2486    8.0664 C.ar      2 RES2    0.0000
    102 H15B      13.7315   -4.8928    7.4279 H         2 RES2    0.0000
    103 C22B      15.3276   -4.8188    8.8042 C.ar      2 RES2    0.0000
    104 H16B      15.5382   -5.7115    8.7050 H         2 RES2    0.0000
    105 C23B      16.0734   -4.0780    9.6747 C.ar      2 RES2    0.0000
    106 H17B      16.8316   -4.5377   10.1217 H         2 RES2    0.0000
    107 C24B      16.9881    0.3788   11.7400 C.ar      2 RES2    0.0000
    108 H18B      17.8113    0.0691   12.2845 H         2 RES2    0.0000
    109 C25B      16.6470    1.6937   11.8392 C.ar      2 RES2    0.0000
    110 H19B      17.2290    2.2787   12.5366 H         2 RES2    0.0000
    111 C26B      15.5244    2.2116   11.1872 C.ar      2 RES2    0.0000
    112 H20B      15.2683    3.1369   11.3939 H         2 RES2    0.0000
    113 C27B      14.7350    1.3909   10.4276 C.ar      2 RES2    0.0000
    114 C28B      14.3587   -0.7980    9.3873 C.ar      2 RES2    0.0000
    115 H21B      13.5605   -0.4143    8.8563 H         2 RES2    0.0000
    116 C29B      16.5707   -1.8910   10.7754 C.ar      2 RES2    0.0000
    117 C30B      14.6894   -2.1337    9.1806 C.ar      2 RES2    0.0000
    118 C31B      15.8060   -2.7009    9.8965 C.ar      2 RES2    0.0000
    119 C32B      15.0838    0.0059   10.2410 C.ar      2 RES2    0.0000
    120 C33B      16.2236   -0.5278   10.9384 C.ar      2 RES2    0.0000
    121 C34B      12.8281   -2.3685    7.5404 C.1       2 RES2    0.0000
    122 C35B      13.5522    1.9177    9.7974 C.1       2 RES2    0.0000
    123 C36B      17.7807   -2.4572   11.5367 C.3       2 RES2    0.0000
    124 H22B      18.1703   -1.5685   12.0493 H         2 RES2    0.0000
    125 C37B      18.9082   -2.9860   10.6494 C.3       2 RES2    0.0000
    126 H23B      18.6294   -3.8018   10.2276 H         2 RES2    0.0000
    127 H24B      19.1193   -2.3339    9.9772 H         2 RES2    0.0000
    128 H25B      19.6854   -3.1547   11.1872 H         2 RES2    0.0000
    129 C38B      17.3729   -3.4526   12.6122 C.3       2 RES2    0.0000
    130 H26B      17.0089   -4.2398   12.1988 H         2 RES2    0.0000
    131 H27B      18.1413   -3.6923   13.1349 H         2 RES2    0.0000
    132 H28B      16.7099   -3.0550   13.1819 H         2 RES2    0.0000
@<TRIPOS>BOND
     1    1    2 ar
     2    2    3 1
     3    4    2 ar
     4    5    4 1
     5    6    4 ar
     6    7    6 1
     7    8    9 1
     8   10    8 ar
     9   11   10 1
    10   12   10 ar
    11   13   12 1
    12   14   12 ar
    13   15   16 1
    14   17   19 ar
    15   18    1 ar
    16   19    6 ar
    17   20   14 ar
    18   21    8 ar
    19   22    1 1
    20   23   14 1
    21   24   17 1
    22   25   24 1
    23   26   24 1
    24   27   26 1
    25   28   26 1
    26   29   26 1
    27   30   24 1
    28   31   30 1
    29   32   30 1
    30   33   30 1
    31   34   35 ar
    32   35   36 1
    33   37   35 ar
    34   38   37 1
    35   39   37 ar
    36   40   39 1
    37   41   42 1
    38   43   41 ar
    39   44   43 1
    40   45   43 ar
    41   46   45 1
    42   47   45 ar
    43   48   49 1
    44   50   52 ar
    45   51   34 ar
    46   52   39 ar
    47   53   47 ar
    48   54   41 ar
    49   55   34 1
    50   56   47 1
    51   57   50 1
    52   58   57 1
    53   59   57 1
    54   60   59 1
    55   61   59 1
    56   62   59 1
    57   63   57 1
    58   64   63 1
    59   65   63 1
    60   66   63 1
    61   67   68 ar
    62   68   69 1
    63   70   68 ar
    64   71   70 1
    65   72   70 ar
    66   73   72 1
    67   74   75 1
    68   76   74 ar
    69   77   76 1
    70   78   76 ar
    71   79   78 1
    72   80   78 ar
    73   81   82 1
    74   83   85 ar
    75   84   67 ar
    76   85   72 ar
    77   86   80 ar
    78   87   74 ar
    79   88   23 3
    80   89   22 3
    81   90   83 1
    82   91   90 1
    83   92   90 1
    84   93   92 1
    85   94   92 1
    86   95   92 1
    87   96   90 1
    88   97   96 1
    89   98   96 1
    90   99   96 1
    91  100  101 ar
    92  101  102 1
    93  103  101 ar
    94  104  103 1
    95  105  103 ar
    96  106  105 1
    97  107  108 1
    98  109  107 ar
    99  110  109 1
   100  111  109 ar
   101  112  111 1
   102  113  111 ar
   103  114  115 1
   104  116  118 ar
   105  117  100 ar
   106  118  105 ar
   107  119  113 ar
   108  120  107 ar
   109  121   56 3
   110  122   55 3
   111  123  116 1
   112  124  123 1
   113  125  123 1
   114  126  125 1
   115  127  125 1
   116  128  125 1
   117  129  123 1
   118  130  129 1
   119  131  129 1
   120  132  129 1
   121   15   18 ar
   122   15   20 ar
   123   17   21 ar
   124   18   19 ar
   125   20   21 ar
   126   48   51 ar
   127   48   53 ar
   128   50   54 ar
   129   51   52 ar
   130   53   54 ar
   131   67   88 1
   132   80   89 1
   133   81   84 ar
   134   81   86 ar
   135   83   87 ar
   136   84   85 ar
   137   86   87 ar
   138  100  121 1
   139  113  122 1
   140  114  117 ar
   141  114  119 ar
   142  116  120 ar
   143  117  118 ar
   144  119  120 ar
@<TRIPOS>SUBSTRUCTURE
     1 RES1 1
     2 RES2 34

@<TRIPOS>CRYSIN
  15.5377    9.8645   17.7353  90.0000 108.6390  90.0000  14 2

