# MOL2 file generated by ConQuest
# Please check atom types

@<TRIPOS>MOLECULE
GIMWIK
   104   116     2
SMALL
NO_CHARGES
****
Generated from CSD

@<TRIPOS>ATOM
      1 C1         9.4047    4.8922    6.3744 C.ar      1 RES1    0.0000
      2 C2        13.7450    3.8077    2.8051 C.ar      1 RES1    0.0000
      3 C3        11.8485    2.4972    2.0869 C.ar      1 RES1    0.0000
      4 H1        10.9338    2.3353    2.1028 H         1 RES1    0.0000
      5 C4        14.0304    1.9166    1.2611 C.ar      1 RES1    0.0000
      6 C5        12.3667    3.5513    2.8358 C.ar      1 RES1    0.0000
      7 C6        16.0008    3.1847    1.9919 C.ar      1 RES1    0.0000
      8 C7        14.5911    2.9556    2.0121 C.ar      1 RES1    0.0000
      9 C8        11.4442    4.4100    3.6141 C.2       1 RES1    0.0000
     10 H2        11.6573    5.3142    3.6570 H         1 RES1    0.0000
     11 C9        16.5839    4.2172    2.7542 C.ar      1 RES1    0.0000
     12 C10       16.8327    2.3500    1.1900 C.ar      1 RES1    0.0000
     13 C11        8.5868    5.8448    7.0926 C.ar      1 RES1    0.0000
     14 C12        7.8747    6.8447    5.0017 C.ar      1 RES1    0.0000
     15 C13       14.3778    4.8227    3.5684 C.ar      1 RES1    0.0000
     16 H3        13.8501    5.3691    4.1045 H         1 RES1    0.0000
     17 C14        8.6942    5.9095    4.2771 C.ar      1 RES1    0.0000
     18 C15        9.4691    4.9612    4.9680 C.ar      1 RES1    0.0000
     19 C16       15.7040    5.0307    3.5528 C.ar      1 RES1    0.0000
     20 H4        16.0635    5.7156    4.0708 H         1 RES1    0.0000
     21 C17       10.3619    4.0320    4.2483 C.2       1 RES1    0.0000
     22 H5        10.1438    3.1277    4.2455 H         1 RES1    0.0000
     23 C18       18.2031    2.5879    1.1823 C.ar      1 RES1    0.0000
     24 H6        18.7556    2.0562    0.6560 H         1 RES1    0.0000
     25 C19       18.7602    3.5997    1.9413 C.ar      1 RES1    0.0000
     26 H7        19.6825    3.7284    1.9342 H         1 RES1    0.0000
     27 C20       17.9578    4.4187    2.7082 C.ar      1 RES1    0.0000
     28 H8        18.3401    5.1111    3.1972 H         1 RES1    0.0000
     29 C21       12.6618    1.6869    1.3199 C.ar      1 RES1    0.0000
     30 H9        12.2911    0.9825    0.8399 H         1 RES1    0.0000
     31 C22        7.8650    6.7779    6.3876 C.ar      1 RES1    0.0000
     32 H10        7.3485    7.3905    6.8603 H         1 RES1    0.0000
     33 C23       14.9061    1.0916    0.4524 C.ar      1 RES1    0.0000
     34 H11       14.5459    0.4019   -0.0582 H         1 RES1    0.0000
     35 C24       16.2303    1.3100    0.4295 C.ar      1 RES1    0.0000
     36 H12       16.7700    0.7658   -0.0981 H         1 RES1    0.0000
     37 C25        9.3089    4.8825    9.1804 C.ar      1 RES1    0.0000
     38 H13        9.2992    4.8841   10.1096 H         1 RES1    0.0000
     39 C26        8.6663    5.9801    2.8526 C.ar      1 RES1    0.0000
     40 H14        9.1547    5.3637    2.3542 H         1 RES1    0.0000
     41 C27        7.9450    6.9240    2.2150 C.ar      1 RES1    0.0000
     42 H15        7.9534    6.9522    1.2844 H         1 RES1    0.0000
     43 C28        7.1468    7.8217    4.2921 C.ar      1 RES1    0.0000
     44 H16        6.6388    8.4425    4.7605 H         1 RES1    0.0000
     45 C29        8.5801    5.7884    8.5177 C.ar      1 RES1    0.0000
     46 H17        8.0586    6.3928    8.9968 H         1 RES1    0.0000
     47 C30       10.1326    3.9456    7.1395 C.ar      1 RES1    0.0000
     48 H18       10.6579    3.3178    6.6978 H         1 RES1    0.0000
     49 C31       10.0872    3.9261    8.4993 C.ar      1 RES1    0.0000
     50 H19       10.5659    3.2868    8.9754 H         1 RES1    0.0000
     51 C32        7.1764    7.8711    2.9277 C.ar      1 RES1    0.0000
     52 H20        6.6951    8.5234    2.4707 H         1 RES1    0.0000
     53 C33       23.0303    3.3553   -0.9892 C.ar      2 RES2    0.0000
     54 C34       22.1425    2.2680   -1.1734 C.ar      2 RES2    0.0000
     55 C35       21.6904    1.9323   -2.4857 C.ar      2 RES2    0.0000
     56 C36       21.6736    1.5288   -0.0475 C.ar      2 RES2    0.0000
     57 C37       22.9773    2.9632    1.3877 C.ar      2 RES2    0.0000
     58 H21       23.2558    3.2108    2.2408 H         2 RES2    0.0000
     59 C38       19.9633    0.7886    5.4355 C.ar      2 RES2    0.0000
     60 C39       22.1769    2.6639   -3.6055 C.ar      2 RES2    0.0000
     61 C40       20.7660    0.4524   -0.2921 C.ar      2 RES2    0.0000
     62 H22       20.4500   -0.0478    0.4261 H         2 RES2    0.0000
     63 C41       19.5846   -0.1255    6.4740 C.ar      2 RES2    0.0000
     64 C42       22.1178   -0.3351    5.2461 C.ar      2 RES2    0.0000
     65 C43       21.2115    0.6468    4.8034 C.ar      2 RES2    0.0000
     66 C44       22.1149    1.8840    1.2476 C.ar      2 RES2    0.0000
     67 C45       23.4289    3.6741    0.3059 C.ar      2 RES2    0.0000
     68 H23       24.0151    4.3844    0.4414 H         2 RES2    0.0000
     69 C46       20.4078    0.5100   -3.9779 C.ar      2 RES2    0.0000
     70 H24       19.8204   -0.1977   -4.1137 H         2 RES2    0.0000
     71 C47       21.7091    1.0992    2.4265 C.2       2 RES2    0.0000
     72 H25       21.5430    0.1961    2.2806 H         2 RES2    0.0000
     73 C48       20.3573    0.1450   -1.5379 C.ar      2 RES2    0.0000
     74 H26       19.7571   -0.5561   -1.6492 H         2 RES2    0.0000
     75 C49       21.7248   -1.2366    6.2877 C.ar      2 RES2    0.0000
     76 C50       20.8015    0.8423   -2.6853 C.ar      2 RES2    0.0000
     77 C51       17.8229    1.9068    5.6844 C.ar      2 RES2    0.0000
     78 H27       17.2421    2.5911    5.4410 H         2 RES2    0.0000
     79 C52       19.0254    1.7982    5.0738 C.ar      2 RES2    0.0000
     80 H28       19.2469    2.3994    4.3988 H         2 RES2    0.0000
     81 C53       21.5544    1.5267    3.6603 C.2       2 RES2    0.0000
     82 H29       21.6670    2.4347    3.8256 H         2 RES2    0.0000
     83 C54       23.0790    3.7262   -3.3802 C.ar      2 RES2    0.0000
     84 H30       23.3970    4.2047   -4.1106 H         2 RES2    0.0000
     85 C55       18.2903    0.0141    7.0666 C.ar      2 RES2    0.0000
     86 H31       18.0276   -0.5827    7.7278 H         2 RES2    0.0000
     87 C56       20.4733   -1.1166    6.8658 C.ar      2 RES2    0.0000
     88 H32       20.2217   -1.7140    7.5316 H         2 RES2    0.0000
     89 C57       17.4455    0.9912    6.6865 C.ar      2 RES2    0.0000
     90 H33       16.6087    1.0612    7.0871 H         2 RES2    0.0000
     91 C58       20.8850    1.2236   -5.0591 C.ar      2 RES2    0.0000
     92 H34       20.6227    0.9868   -5.9192 H         2 RES2    0.0000
     93 C59       22.6527   -2.2359    6.7131 C.ar      2 RES2    0.0000
     94 H35       22.4013   -2.8437    7.3722 H         2 RES2    0.0000
     95 C60       24.2945   -1.3979    5.1826 C.ar      2 RES2    0.0000
     96 H36       25.1551   -1.4474    4.8310 H         2 RES2    0.0000
     97 C61       21.7366    2.2729   -4.8764 C.ar      2 RES2    0.0000
     98 H37       22.0347    2.7443   -5.6188 H         2 RES2    0.0000
     99 C62       23.4956    4.0716   -2.1519 C.ar      2 RES2    0.0000
    100 H38       24.0894    4.7798   -2.0507 H         2 RES2    0.0000
    101 C63       23.4411   -0.4448    4.7338 C.ar      2 RES2    0.0000
    102 H39       23.7255    0.1499    4.0769 H         2 RES2    0.0000
    103 C64       23.8921   -2.3131    6.1727 C.ar      2 RES2    0.0000
    104 H40       24.4818   -2.9740    6.4587 H         2 RES2    0.0000
@<TRIPOS>BOND
     1    1   13 ar
     2    2    6 ar
     3    3    4 1
     4    5    8 ar
     5    6    3 ar
     6    7    8 ar
     7    8    2 ar
     8    9    6 1
     9   10    9 1
    10   11    7 ar
    11   12    7 ar
    12   13   31 ar
    13   14   17 ar
    14   15    2 ar
    15   16   15 1
    16   17   18 ar
    17   18    1 ar
    18   19   11 ar
    19   20   19 1
    20   21    9 2
    21   22   21 1
    22   23   12 ar
    23   24   23 1
    24   25   23 ar
    25   26   25 1
    26   27   11 ar
    27   28   27 1
    28   29    3 ar
    29   30   29 1
    30   31   14 ar
    31   32   31 1
    32   33    5 ar
    33   34   33 1
    34   35   12 ar
    35   36   35 1
    36   37   38 1
    37   39   17 ar
    38   40   39 1
    39   41   39 ar
    40   42   41 1
    41   43   14 ar
    42   44   43 1
    43   45   13 ar
    44   46   45 1
    45   47    1 ar
    46   48   47 1
    47   49   37 ar
    48   50   49 1
    49   51   41 ar
    50   52   51 1
    51   53   54 ar
    52   54   55 ar
    53   55   60 ar
    54   56   54 ar
    55   57   58 1
    56   59   63 ar
    57   60   83 ar
    58   61   56 ar
    59   62   61 1
    60   63   85 ar
    61   64   65 ar
    62   65   59 ar
    63   66   56 ar
    64   67   53 ar
    65   68   67 1
    66   69   70 1
    67   71   66 1
    68   72   71 1
    69   73   61 ar
    70   74   73 1
    71   75   64 ar
    72   76   55 ar
    73   77   78 1
    74   79   59 ar
    75   80   79 1
    76   81   65 1
    77   82   81 1
    78   83   84 1
    79   85   86 1
    80   87   63 ar
    81   88   87 1
    82   89   77 ar
    83   90   89 1
    84   91   69 ar
    85   92   91 1
    86   93   75 ar
    87   94   93 1
    88   95   96 1
    89   97   60 ar
    90   98   97 1
    91   99   53 ar
    92  100   99 1
    93  101   64 ar
    94  102  101 1
    95  103   93 ar
    96  104  103 1
    97    5   29 ar
    98   15   19 ar
    99   18   21 1
   100   25   27 ar
   101   33   35 ar
   102   37   45 ar
   103   43   51 ar
   104   47   49 ar
   105   57   66 ar
   106   57   67 ar
   107   69   76 ar
   108   71   81 2
   109   73   76 ar
   110   75   87 ar
   111   77   79 ar
   112   83   99 ar
   113   85   89 ar
   114   91   97 ar
   115   95  101 ar
   116   95  103 ar
@<TRIPOS>SUBSTRUCTURE
     1 RES1 1
     2 RES2 53

@<TRIPOS>CRYSIN
  24.8226    5.4310   30.8937  90.0000  97.1480  90.0000  14 1

