# MOL2 file generated by ConQuest
# Please check atom types

@<TRIPOS>MOLECULE
GIMXOR
    52    58     1
SMALL
NO_CHARGES
****
Generated from CSD

@<TRIPOS>ATOM
      1 C1         7.3321    3.7594    1.4643 C.ar      1 RES1    0.0000
      2 C2         6.6226    1.5719    2.3642 C.ar      1 RES1    0.0000
      3 C3         7.0582    2.9179    2.5721 C.ar      1 RES1    0.0000
      4 C4        10.3091    6.8593    1.3247 C.ar      1 RES1    0.0000
      5 C5        11.1359    5.7376    1.5480 C.ar      1 RES1    0.0000
      6 C6         6.4726    1.0724    1.0447 C.ar      1 RES1    0.0000
      7 C7        10.6572    8.1074    1.8781 C.ar      1 RES1    0.0000
      8 C8        12.2886    5.8559    2.3884 C.ar      1 RES1    0.0000
      9 C9         7.1801    3.2081    0.1450 C.ar      1 RES1    0.0000
     10 H1         7.3760    3.7369   -0.5949 H         1 RES1    0.0000
     11 C10       11.8101    8.2243    2.7095 C.ar      1 RES1    0.0000
     12 C11        6.7604    1.9354   -0.0429 C.ar      1 RES1    0.0000
     13 H2         6.6564    1.6188   -0.9116 H         1 RES1    0.0000
     14 C12        7.2074    3.4052    3.8971 C.ar      1 RES1    0.0000
     15 C13        7.7710    5.0806    1.6847 C.ar      1 RES1    0.0000
     16 C14        6.3466    0.7200    3.4727 C.ar      1 RES1    0.0000
     17 C15       12.5853    7.0942    2.9525 C.ar      1 RES1    0.0000
     18 H3        13.3266    7.1689    3.5101 H         1 RES1    0.0000
     19 C16        7.9014    5.5305    3.0042 C.ar      1 RES1    0.0000
     20 H4         8.1852    6.4035    3.1560 H         1 RES1    0.0000
     21 C17        7.6225    4.7250    4.0819 C.ar      1 RES1    0.0000
     22 H5         7.7110    5.0630    4.9440 H         1 RES1    0.0000
     23 C18        8.0702    5.9891    0.5575 C.2       1 RES1    0.0000
     24 H6         7.4474    6.0167   -0.1331 H         1 RES1    0.0000
     25 C19       13.1320    4.7227    2.5732 C.ar      1 RES1    0.0000
     26 H7        13.8766    4.7929    3.1263 H         1 RES1    0.0000
     27 C20        9.8926    9.2844    1.6539 C.ar      1 RES1    0.0000
     28 H8         9.1188    9.2297    1.1403 H         1 RES1    0.0000
     29 C21        6.0505   -0.2523    0.8665 C.ar      1 RES1    0.0000
     30 H9         5.9424   -0.5853    0.0044 H         1 RES1    0.0000
     31 C22       10.9158    4.4691    0.9226 C.ar      1 RES1    0.0000
     32 H10       10.1805    4.3611    0.3640 H         1 RES1    0.0000
     33 C23        5.9365   -0.5914    3.2308 C.ar      1 RES1    0.0000
     34 H11        5.7550   -1.1542    3.9499 H         1 RES1    0.0000
     35 C24        6.9151    2.5244    4.9924 C.ar      1 RES1    0.0000
     36 H12        7.0118    2.8364    5.8633 H         1 RES1    0.0000
     37 C25       12.1419    9.5052    3.2418 C.ar      1 RES1    0.0000
     38 H13       12.8859    9.5879    3.7938 H         1 RES1    0.0000
     39 C26        5.7951   -1.0683    1.9442 C.ar      1 RES1    0.0000
     40 H14        5.5241   -1.9462    1.8045 H         1 RES1    0.0000
     41 C27        9.1333    6.7674    0.4300 C.2       1 RES1    0.0000
     42 H15        9.1433    7.3244   -0.3145 H         1 RES1    0.0000
     43 C28       12.8690    3.5478    1.9585 C.ar      1 RES1    0.0000
     44 H16       13.4329    2.8201    2.0882 H         1 RES1    0.0000
     45 C29       11.4075   10.5962    2.9690 C.ar      1 RES1    0.0000
     46 H17       11.6599   11.4236    3.3099 H         1 RES1    0.0000
     47 C30       11.7481    3.4238    1.1238 C.ar      1 RES1    0.0000
     48 H18       11.5752    2.6113    0.7049 H         1 RES1    0.0000
     49 C31       10.2593   10.4873    2.1685 C.ar      1 RES1    0.0000
     50 H19        9.7473   11.2435    1.9904 H         1 RES1    0.0000
     51 C32        6.5053    1.2586    4.7945 C.ar      1 RES1    0.0000
     52 H20        6.3211    0.7204    5.5301 H         1 RES1    0.0000
@<TRIPOS>BOND
     1    1    3 ar
     2    2    3 ar
     3    3   14 ar
     4    4    5 ar
     5    5    8 ar
     6    6    2 ar
     7    7    4 ar
     8    8   17 ar
     9    9    1 ar
    10   10    9 1
    11   11    7 ar
    12   12    6 ar
    13   13   12 1
    14   14   21 ar
    15   15    1 ar
    16   16    2 ar
    17   17   11 ar
    18   18   17 1
    19   19   15 ar
    20   20   19 1
    21   21   19 ar
    22   22   21 1
    23   23   15 1
    24   24   23 1
    25   25    8 ar
    26   26   25 1
    27   27    7 ar
    28   28   27 1
    29   29    6 ar
    30   30   29 1
    31   31    5 ar
    32   32   31 1
    33   33   16 ar
    34   34   33 1
    35   35   14 ar
    36   36   35 1
    37   37   11 ar
    38   38   37 1
    39   39   29 ar
    40   40   39 1
    41   41    4 1
    42   42   41 1
    43   43   25 ar
    44   44   43 1
    45   45   37 ar
    46   46   45 1
    47   47   31 ar
    48   48   47 1
    49   49   27 ar
    50   50   49 1
    51   51   16 ar
    52   52   51 1
    53    9   12 ar
    54   23   41 2
    55   33   39 ar
    56   35   51 ar
    57   43   47 ar
    58   45   49 ar
@<TRIPOS>SUBSTRUCTURE
     1 RES1 1

@<TRIPOS>CRYSIN
   9.3708   20.4650   11.5950  90.0000 108.4900  90.0000 231 1

