# MOL2 file generated by ConQuest
# Please check atom types

@<TRIPOS>MOLECULE
GISPUV
    88   104     1
SMALL
NO_CHARGES
****
Generated from CSD

@<TRIPOS>ATOM
      1 C1         1.3839    1.6885    4.9077 C.ar      1 RES1    0.0000
      2 C2         0.4147    2.6137    4.4543 C.ar      1 RES1    0.0000
      3 C3         1.0816    3.7957    4.0583 C.ar      1 RES1    0.0000
      4 C4         2.4724    3.6042    4.2436 C.ar      1 RES1    0.0000
      5 C5         2.6661    2.3062    4.7768 C.ar      1 RES1    0.0000
      6 C6         1.1062    0.7216    5.8434 C.ar      1 RES1    0.0000
      7 C7        -0.2938    0.5676    6.1507 C.ar      1 RES1    0.0000
      8 H1        -0.5721   -0.1717    6.6787 H         1 RES1    0.0000
      9 C8        -1.2438    1.4648    5.6997 C.ar      1 RES1    0.0000
     10 H2        -2.1577    1.3188    5.9177 H         1 RES1    0.0000
     11 C9        -0.8879    2.6157    4.9090 C.ar      1 RES1    0.0000
     12 C10       -1.5680    3.8824    4.7748 C.ar      1 RES1    0.0000
     13 H3        -2.5011    3.9210    4.9488 H         1 RES1    0.0000
     14 C11       -0.9145    5.0371    4.4040 C.ar      1 RES1    0.0000
     15 H4        -1.4068    5.8459    4.3384 H         1 RES1    0.0000
     16 C12        0.4993    5.0489    4.1129 C.ar      1 RES1    0.0000
     17 C13        1.4252    6.1549    4.1201 C.ar      1 RES1    0.0000
     18 H5         1.0898    7.0367    4.0086 H         1 RES1    0.0000
     19 C14        2.7812    5.9716    4.2841 C.ar      1 RES1    0.0000
     20 H6         3.3571    6.7274    4.2782 H         1 RES1    0.0000
     21 C15        3.3443    4.6510    4.4642 C.ar      1 RES1    0.0000
     22 C16        4.5747    4.2677    5.0973 C.ar      1 RES1    0.0000
     23 H7         5.2791    4.9025    5.1596 H         1 RES1    0.0000
     24 C17        4.7651    2.9991    5.6190 C.ar      1 RES1    0.0000
     25 H8         5.5957    2.7923    6.0313 H         1 RES1    0.0000
     26 C18        3.7465    1.9837    5.5567 C.ar      1 RES1    0.0000
     27 C19        3.5688    0.8097    6.4236 C.ar      1 RES1    0.0000
     28 C20        2.2702    0.2042    6.5792 C.ar      1 RES1    0.0000
     29 C21        2.0639    3.6498   13.1153 C.ar      1 RES1    0.0000
     30 C22        1.1291    4.7136   13.1558 C.ar      1 RES1    0.0000
     31 C23        1.8166    5.9055   12.8337 C.ar      1 RES1    0.0000
     32 C24        3.1794    5.5941   12.6315 C.ar      1 RES1    0.0000
     33 C25        3.3405    4.1999   12.8013 C.ar      1 RES1    0.0000
     34 C26        1.7017    2.3562   12.8415 C.ar      1 RES1    0.0000
     35 C27        0.2786    2.1255   12.8311 C.ar      1 RES1    0.0000
     36 H9        -0.0414    1.2332   12.7784 H         1 RES1    0.0000
     37 C28       -0.6391    3.1645   12.8956 C.ar      1 RES1    0.0000
     38 H10       -1.5671    2.9622   12.9030 H         1 RES1    0.0000
     39 C29       -0.2223    4.5429   12.9513 C.ar      1 RES1    0.0000
     40 C30       -0.9185    5.7499   12.5600 C.ar      1 RES1    0.0000
     41 H11       -1.8678    5.7473   12.5403 H         1 RES1    0.0000
     42 C31       -0.2437    6.9044   12.2147 C.ar      1 RES1    0.0000
     43 H12       -0.7424    7.6676   11.9477 H         1 RES1    0.0000
     44 C32        1.1976    6.9867   12.2465 C.ar      1 RES1    0.0000
     45 C33        2.0970    7.9021   11.5774 C.ar      1 RES1    0.0000
     46 H13        1.7576    8.7290   11.2566 H         1 RES1    0.0000
     47 C34        3.4290    7.6113   11.3917 C.ar      1 RES1    0.0000
     48 H14        3.9821    8.2472   10.9528 H         1 RES1    0.0000
     49 C35        4.0171    6.3635   11.8452 C.ar      1 RES1    0.0000
     50 C36        5.1989    5.6694   11.4066 C.ar      1 RES1    0.0000
     51 H15        5.8915    6.1631   10.9829 H         1 RES1    0.0000
     52 C37        5.3600    4.3035   11.5824 C.ar      1 RES1    0.0000
     53 H16        6.1603    3.8927   11.2771 H         1 RES1    0.0000
     54 C38        4.3538    3.4883   12.2120 C.ar      1 RES1    0.0000
     55 C39        4.0932    2.0485   12.0475 C.ar      1 RES1    0.0000
     56 C40        2.7902    1.5012   12.3397 C.ar      1 RES1    0.0000
     57 C41        2.1321   -0.7958    7.5513 C.ar      1 RES1    0.0000
     58 H17        1.2816   -1.2068    7.6558 H         1 RES1    0.0000
     59 C42        3.1723   -1.2186    8.3702 C.ar      1 RES1    0.0000
     60 C43        4.4581   -0.6746    8.1688 C.ar      1 RES1    0.0000
     61 C44        4.6248    0.3115    7.2045 C.ar      1 RES1    0.0000
     62 H18        5.4950    0.6659    7.0660 H         1 RES1    0.0000
     63 C45        2.5371    0.1768   11.9552 C.ar      1 RES1    0.0000
     64 H19        1.6964   -0.2041   12.1776 H         1 RES1    0.0000
     65 C46        3.4537   -0.6039   11.2656 C.ar      1 RES1    0.0000
     66 C47        4.7458   -0.0831   11.0193 C.ar      1 RES1    0.0000
     67 C48        5.0372    1.2087   11.4371 C.ar      1 RES1    0.0000
     68 H20        5.9172    1.5398   11.3031 H         1 RES1    0.0000
     69 C49        5.6507   -1.1542    8.9312 C.ar      1 RES1    0.0000
     70 C50        6.6745   -1.8241    8.2601 C.ar      1 RES1    0.0000
     71 H21        6.5818   -2.0129    7.3342 H         1 RES1    0.0000
     72 C51        7.8272   -2.2186    8.9275 C.ar      1 RES1    0.0000
     73 H22        8.5071   -2.6925    8.4633 H         1 RES1    0.0000
     74 C52        7.9822   -1.9186   10.2709 C.ar      1 RES1    0.0000
     75 H23        8.7738   -2.1775   10.7283 H         1 RES1    0.0000
     76 C53        6.9776   -1.2388   10.9478 C.ar      1 RES1    0.0000
     77 H24        7.0943   -1.0234   11.8656 H         1 RES1    0.0000
     78 C54        5.7952   -0.8660   10.2956 C.ar      1 RES1    0.0000
     79 C55        2.8755   -2.2375    9.4258 C.ar      1 RES1    0.0000
     80 C56        2.3216   -3.4561    9.0326 C.ar      1 RES1    0.0000
     81 H25        2.2456   -3.6583    8.1075 H         1 RES1    0.0000
     82 C57        1.8785   -4.3783    9.9745 C.ar      1 RES1    0.0000
     83 H26        1.5081   -5.2066    9.6937 H         1 RES1    0.0000
     84 C58        1.9794   -4.0841   11.3275 C.ar      1 RES1    0.0000
     85 H27        1.6644   -4.7037   11.9751 H         1 RES1    0.0000
     86 C59        2.5421   -2.8804   11.7304 C.ar      1 RES1    0.0000
     87 H28        2.6165   -2.6873   12.6580 H         1 RES1    0.0000
     88 C60        3.0021   -1.9474   10.7930 C.ar      1 RES1    0.0000
@<TRIPOS>BOND
     1    1    2 ar
     2    2    3 ar
     3    3    4 ar
     4    4    5 ar
     5    5    1 ar
     6    6    1 ar
     7    7    6 ar
     8    8    7 1
     9    9    7 ar
    10   10    9 1
    11   11    2 ar
    12   12   11 ar
    13   13   12 1
    14   14   12 ar
    15   15   14 1
    16   16    3 ar
    17   17   16 ar
    18   18   17 1
    19   19   17 ar
    20   20   19 1
    21   21    4 ar
    22   22   21 ar
    23   23   22 1
    24   24   22 ar
    25   25   24 1
    26   26    5 ar
    27   27   26 ar
    28   28    6 ar
    29   29   30 ar
    30   30   31 ar
    31   31   32 ar
    32   32   33 ar
    33   33   29 ar
    34   34   29 ar
    35   35   34 ar
    36   36   35 1
    37   37   35 ar
    38   38   37 1
    39   39   30 ar
    40   40   39 ar
    41   41   40 1
    42   42   40 ar
    43   43   42 1
    44   44   31 ar
    45   45   44 ar
    46   46   45 1
    47   47   45 ar
    48   48   47 1
    49   49   32 ar
    50   50   49 ar
    51   51   50 1
    52   52   50 ar
    53   53   52 1
    54   54   33 ar
    55   55   54 ar
    56   56   34 ar
    57   57   28 ar
    58   58   57 1
    59   59   57 ar
    60   60   59 ar
    61   61   27 ar
    62   62   61 1
    63   63   56 ar
    64   64   63 1
    65   65   63 ar
    66   66   65 ar
    67   67   55 ar
    68   68   67 1
    69   69   60 1
    70   70   69 ar
    71   71   70 1
    72   72   70 ar
    73   73   72 1
    74   74   72 ar
    75   75   74 1
    76   76   74 ar
    77   77   76 1
    78   78   66 1
    79   79   59 1
    80   80   79 ar
    81   81   80 1
    82   82   80 ar
    83   83   82 1
    84   84   82 ar
    85   85   84 1
    86   86   84 ar
    87   87   86 1
    88   88   65 1
    89    9   11 ar
    90   14   16 ar
    91   19   21 ar
    92   24   26 ar
    93   27   28 ar
    94   37   39 ar
    95   42   44 ar
    96   47   49 ar
    97   52   54 ar
    98   55   56 ar
    99   60   61 ar
   100   66   67 ar
   101   69   78 ar
   102   76   78 ar
   103   79   88 ar
   104   86   88 ar
@<TRIPOS>SUBSTRUCTURE
     1 RES1 1

@<TRIPOS>CRYSIN
   9.8507   14.1479   15.1646 105.6070 102.8090 110.3670   2 1

