# MOL2 file generated by ConQuest
# Please check atom types

@<TRIPOS>MOLECULE
GOGFUD
    60    68     1
SMALL
NO_CHARGES
****
Generated from CSD

@<TRIPOS>ATOM
      1 C1        -0.3723    3.4654    3.8616 C.ar      1 RES1    0.0000
      2 C2         0.0212    3.9395    2.5839 C.ar      1 RES1    0.0000
      3 C3         1.0588    4.9882    2.2857 C.3       1 RES1    0.0000
      4 C4         2.5544    4.4222    2.0175 C.3       1 RES1    0.0000
      5 C5         2.6216    2.9199    2.0175 C.ar      1 RES1    0.0000
      6 C6         2.6444    2.1333    3.1862 C.ar      1 RES1    0.0000
      7 C7         2.7075    2.6306    4.5183 C.ar      1 RES1    0.0000
      8 C8         2.7942    4.0779    4.9528 C.3       1 RES1    0.0000
      9 C9         1.3902    4.8235    5.2324 C.3       1 RES1    0.0000
     10 C10        0.2004    3.8787    5.1091 C.ar      1 RES1    0.0000
     11 C11       -0.6176    3.4251    1.4812 C.ar      1 RES1    0.0000
     12 C12       -1.6456    2.4702    1.5429 C.ar      1 RES1    0.0000
     13 C13       -2.0609    2.0477    2.7546 C.ar      1 RES1    0.0000
     14 C14       -1.4667    2.5176    3.9476 C.ar      1 RES1    0.0000
     15 C15       -1.9307    2.0725    5.1951 C.ar      1 RES1    0.0000
     16 C16       -1.3919    2.5004    6.3623 C.ar      1 RES1    0.0000
     17 C17       -0.3146    3.4221    6.2949 C.ar      1 RES1    0.0000
     18 C18        2.6300    2.3424    0.7872 C.ar      1 RES1    0.0000
     19 C19        2.6439    0.9377    0.6266 C.ar      1 RES1    0.0000
     20 C20        2.6370    0.1463    1.7193 C.ar      1 RES1    0.0000
     21 C21        2.6580    0.6968    2.9926 C.ar      1 RES1    0.0000
     22 C22        2.6882   -0.1570    4.0867 C.ar      1 RES1    0.0000
     23 C23        2.7157    0.3375    5.3543 C.ar      1 RES1    0.0000
     24 C24        2.7348    1.7308    5.5536 C.ar      1 RES1    0.0000
     25 C25        3.6512    5.1030    2.8205 C.ar      1 RES1    0.0000
     26 C26        3.7676    4.9093    4.1813 C.ar      1 RES1    0.0000
     27 C27        4.8231    5.5285    4.8639 C.ar      1 RES1    0.0000
     28 C28        5.7369    6.3411    4.1813 C.ar      1 RES1    0.0000
     29 C29        5.5943    6.5203    2.8463 C.ar      1 RES1    0.0000
     30 C30        4.5636    5.9116    2.1380 C.ar      1 RES1    0.0000
     31 C31        1.0265    6.2120    3.1460 C.ar      1 RES1    0.0000
     32 C32        0.8673    7.4683    2.5753 C.ar      1 RES1    0.0000
     33 C33        0.8156    8.6109    3.3281 C.ar      1 RES1    0.0000
     34 C34        0.9374    8.5230    4.6846 C.ar      1 RES1    0.0000
     35 C35        1.1249    7.2988    5.2711 C.ar      1 RES1    0.0000
     36 C36        1.1818    6.1286    4.5312 C.ar      1 RES1    0.0000
     37 H1         0.7876    5.3256    1.4067 H         1 RES1    0.0000
     38 H2         2.7443    4.6728    1.0898 H         1 RES1    0.0000
     39 H3         3.2005    4.0212    5.8418 H         1 RES1    0.0000
     40 H4         1.4220    5.0583    6.1845 H         1 RES1    0.0000
     41 H5        -0.3531    3.7276    0.6438 H         1 RES1    0.0000
     42 H6        -2.0322    2.1359    0.7643 H         1 RES1    0.0000
     43 H7        -2.7555    1.4322    2.8062 H         1 RES1    0.0000
     44 H8        -2.6334    1.4636    5.2209 H         1 RES1    0.0000
     45 H9        -1.7163    2.2002    7.1811 H         1 RES1    0.0000
     46 H10        0.0581    3.7290    7.0893 H         1 RES1    0.0000
     47 H11        2.6277    2.8855    0.0315 H         1 RES1    0.0000
     48 H12        2.6572    0.5633   -0.2237 H         1 RES1    0.0000
     49 H13        2.6176   -0.7778    1.6175 H         1 RES1    0.0000
     50 H14        2.6892   -1.0771    3.9519 H         1 RES1    0.0000
     51 H15        2.7229   -0.2398    6.0827 H         1 RES1    0.0000
     52 H16        2.7658    2.0545    6.4240 H         1 RES1    0.0000
     53 H17        4.9175    5.3989    5.7801 H         1 RES1    0.0000
     54 H18        6.4345    6.7525    4.6387 H         1 RES1    0.0000
     55 H19        6.1985    7.0620    2.3947 H         1 RES1    0.0000
     56 H20        4.4828    6.0411    1.2203 H         1 RES1    0.0000
     57 H21        0.7934    7.5356    1.6504 H         1 RES1    0.0000
     58 H22        0.6979    9.4383    2.9195 H         1 RES1    0.0000
     59 H23        0.8932    9.2906    5.2080 H         1 RES1    0.0000
     60 H24        1.2169    7.2512    6.1945 H         1 RES1    0.0000
@<TRIPOS>BOND
     1    1    2 ar
     2    2    3 1
     3    3    4 1
     4    4    5 1
     5    5    6 ar
     6    6    7 ar
     7    7    8 1
     8    8    9 1
     9    9   10 1
    10   10    1 ar
    11   11    2 ar
    12   12   11 ar
    13   13   12 ar
    14   14    1 ar
    15   15   14 ar
    16   16   15 ar
    17   17   10 ar
    18   18    5 ar
    19   19   18 ar
    20   20   19 ar
    21   21    6 ar
    22   22   21 ar
    23   23   22 ar
    24   24    7 ar
    25   25    4 1
    26   26    8 1
    27   27   26 ar
    28   28   27 ar
    29   29   28 ar
    30   30   25 ar
    31   31    3 1
    32   32   31 ar
    33   33   32 ar
    34   34   33 ar
    35   35   34 ar
    36   36    9 1
    37   37    3 1
    38   38    4 1
    39   39    8 1
    40   40    9 1
    41   41   11 1
    42   42   12 1
    43   43   13 1
    44   44   15 1
    45   45   16 1
    46   46   17 1
    47   47   18 1
    48   48   19 1
    49   49   20 1
    50   50   22 1
    51   51   23 1
    52   52   24 1
    53   53   27 1
    54   54   28 1
    55   55   29 1
    56   56   30 1
    57   57   32 1
    58   58   33 1
    59   59   34 1
    60   60   35 1
    61   13   14 ar
    62   16   17 ar
    63   20   21 ar
    64   23   24 ar
    65   25   26 ar
    66   29   30 ar
    67   31   36 ar
    68   35   36 ar
@<TRIPOS>SUBSTRUCTURE
     1 RES1 1

@<TRIPOS>CRYSIN
   8.2711   10.0185   14.8885  83.0380  75.2450  82.0790   2 1

