# MOL2 file generated by ConQuest
# Please check atom types

@<TRIPOS>MOLECULE
GOJDAK
    66    71     1
SMALL
NO_CHARGES
****
Generated from CSD

@<TRIPOS>ATOM
      1 C1        -0.9149    3.9527    9.6010 C.ar      1 RES1    0.0000
      2 C2         0.1580    4.8127    9.4475 C.ar      1 RES1    0.0000
      3 C3         0.9533    5.3189   10.4943 C.ar      1 RES1    0.0000
      4 C4         0.5496    4.9966   11.7665 C.ar      1 RES1    0.0000
      5 C5        -0.9283    3.8122   13.3302 C.ar      1 RES1    0.0000
      6 C6        -1.9653    2.9895   13.5683 C.ar      1 RES1    0.0000
      7 C7        -3.5258    1.2296   12.7821 C.ar      1 RES1    0.0000
      8 C8        -3.9617    0.3992   11.8048 C.ar      1 RES1    0.0000
      9 C9        -3.6350   -0.6563    9.5928 C.ar      1 RES1    0.0000
     10 C10       -2.9148   -0.8119    8.4655 C.ar      1 RES1    0.0000
     11 C11       -0.8382   -0.4762    7.1814 C.ar      1 RES1    0.0000
     12 C12        0.4012    0.0297    7.0602 C.ar      1 RES1    0.0000
     13 C13        2.3757    1.0733    8.1040 C.ar      1 RES1    0.0000
     14 C14        3.0209    1.5362    9.2111 C.ar      1 RES1    0.0000
     15 C15        2.3200    1.6554   10.4169 C.ar      1 RES1    0.0000
     16 C16        0.9825    1.3875   10.4715 C.ar      1 RES1    0.0000
     17 C17        0.2641    0.9691    9.3258 C.ar      1 RES1    0.0000
     18 C18        1.0117    0.7249    8.1477 C.ar      1 RES1    0.0000
     19 C19       -1.1549    0.6547    9.3450 C.ar      1 RES1    0.0000
     20 C20       -1.6415   -0.2046    8.3304 C.ar      1 RES1    0.0000
     21 C21       -2.0736    1.0626   10.3875 C.ar      1 RES1    0.0000
     22 C22       -3.2304    0.2674   10.5983 C.ar      1 RES1    0.0000
     23 C23       -1.8915    2.2107   11.2475 C.ar      1 RES1    0.0000
     24 C24       -2.4737    2.1489   12.5299 C.ar      1 RES1    0.0000
     25 C25       -1.1055    3.3881   10.9054 C.ar      1 RES1    0.0000
     26 C26       -0.4684    4.0550   11.9916 C.ar      1 RES1    0.0000
     27 C27       -1.9169    3.9152    8.4022 C.3       1 RES1    0.0000
     28 C28       -2.2836    5.3926    8.1002 C.3       1 RES1    0.0000
     29 C29       -1.2758    3.3076    7.1479 C.3       1 RES1    0.0000
     30 C30       -3.2596    3.2303    8.6659 C.3       1 RES1    0.0000
     31 C31        2.1449    6.2247   10.1900 C.3       1 RES1    0.0000
     32 C32        2.6586    6.9343   11.4471 C.3       1 RES1    0.0000
     33 C33        3.2737    5.3586    9.6268 C.3       1 RES1    0.0000
     34 C34        1.7625    7.3036    9.1707 C.3       1 RES1    0.0000
     35 H1         0.3573    5.1694    8.5136 H         1 RES1    0.0000
     36 H2         0.9764    5.4144   12.5890 H         1 RES1    0.0000
     37 H3        -0.4864    4.3444   14.0709 H         1 RES1    0.0000
     38 H4        -2.3869    2.9325   14.4951 H         1 RES1    0.0000
     39 H5        -3.9708    1.2512   13.6928 H         1 RES1    0.0000
     40 H6        -4.7774   -0.1646   11.9527 H         1 RES1    0.0000
     41 H7        -4.4977   -1.1444    9.7349 H         1 RES1    0.0000
     42 H8        -3.2220   -1.4236    7.7343 H         1 RES1    0.0000
     43 H9        -1.2426   -1.0562    6.4465 H         1 RES1    0.0000
     44 H10        0.9868   -0.1382    6.2268 H         1 RES1    0.0000
     45 H11        2.9384    0.9612    7.2054 H         1 RES1    0.0000
     46 H12        4.0214    1.7783    9.1600 H         1 RES1    0.0000
     47 H13        0.5054    1.4550   11.3472 H         1 RES1    0.0000
     48 H14        2.8029    1.9165   11.2833 H         1 RES1    0.0000
     49 H15       -2.9399    5.4301    7.3050 H         1 RES1    0.0000
     50 H16       -1.4331    5.9513    7.8493 H         1 RES1    0.0000
     51 H17       -2.7626    5.8200    8.9352 H         1 RES1    0.0000
     52 H18       -1.8851    3.4646    6.3571 H         1 RES1    0.0000
     53 H19       -0.3498    3.7203    6.9166 H         1 RES1    0.0000
     54 H20       -1.1439    2.3349    7.2744 H         1 RES1    0.0000
     55 H21       -3.9272    3.5194    7.9463 H         1 RES1    0.0000
     56 H22       -3.2099    2.2173    8.6132 H         1 RES1    0.0000
     57 H23       -3.6303    3.4744    9.6123 H         1 RES1    0.0000
     58 H24        2.9700    6.2541   12.1904 H         1 RES1    0.0000
     59 H25        1.8901    7.4994   11.8812 H         1 RES1    0.0000
     60 H26        3.4895    7.5033   11.2041 H         1 RES1    0.0000
     61 H27        2.9751    4.8804    8.7563 H         1 RES1    0.0000
     62 H28        4.1124    5.9200    9.3593 H         1 RES1    0.0000
     63 H29        3.5772    4.6472   10.3635 H         1 RES1    0.0000
     64 H30        2.5540    7.8982    9.0399 H         1 RES1    0.0000
     65 H31        0.9309    7.7992    9.4998 H         1 RES1    0.0000
     66 H32        1.5483    6.9125    8.2351 H         1 RES1    0.0000
@<TRIPOS>BOND
     1    1    2 ar
     2    2    3 ar
     3    3    4 ar
     4    4   26 ar
     5    5    6 ar
     6    6   24 ar
     7    7    8 ar
     8    8   22 ar
     9    9   10 ar
    10   10   20 ar
    11   11   12 ar
    12   12   18 ar
    13   13   14 ar
    14   14   15 ar
    15   15   16 ar
    16   16   17 ar
    17   17   18 ar
    18   18   13 ar
    19   19   17 ar
    20   20   11 ar
    21   21   19 ar
    22   22    9 ar
    23   23   21 ar
    24   24    7 ar
    25   25    1 ar
    26   26    5 ar
    27   27    1 1
    28   28   27 1
    29   29   27 1
    30   30   27 1
    31   31    3 1
    32   32   31 1
    33   33   31 1
    34   34   31 1
    35   35    2 1
    36   36    4 1
    37   37    5 1
    38   38    6 1
    39   39    7 1
    40   40    8 1
    41   41    9 1
    42   42   10 1
    43   43   11 1
    44   44   12 1
    45   45   13 1
    46   46   14 1
    47   47   16 1
    48   48   15 1
    49   49   28 1
    50   50   28 1
    51   51   28 1
    52   52   29 1
    53   53   29 1
    54   54   29 1
    55   55   30 1
    56   56   30 1
    57   57   30 1
    58   58   32 1
    59   59   32 1
    60   60   32 1
    61   61   33 1
    62   62   33 1
    63   63   33 1
    64   64   34 1
    65   65   34 1
    66   66   34 1
    67   19   20 ar
    68   21   22 ar
    69   23   24 ar
    70   23   25 ar
    71   25   26 ar
@<TRIPOS>SUBSTRUCTURE
     1 RES1 1

@<TRIPOS>CRYSIN
   9.7430    9.7980   25.9140  90.0000  99.6020  90.0000 231 1

