# MOL2 file generated by ConQuest
# Please check atom types

@<TRIPOS>MOLECULE
GUMZIY
   126   135     3
SMALL
NO_CHARGES
****
Generated from CSD

@<TRIPOS>ATOM
      1 C1         2.8115    3.7117    9.3214 C.ar      1 RES1    0.0000
      2 C2         3.5684    2.7882    8.6879 C.ar      1 RES1    0.0000
      3 C3         4.5113    3.1407    7.6806 C.ar      1 RES1    0.0000
      4 C4         4.7167    4.4273    7.3059 C.ar      1 RES1    0.0000
      5 C5         3.9295    5.4610    7.9326 C.ar      1 RES1    0.0000
      6 C6         2.9582    5.1001    8.9486 C.ar      1 RES1    0.0000
      7 C7         2.1762    6.0949    9.5120 C.ar      1 RES1    0.0000
      8 C8         2.2816    7.4443    9.1244 C.ar      1 RES1    0.0000
      9 C9         4.0478    6.7926    7.5659 C.ar      1 RES1    0.0000
     10 C10        1.8377    3.3213   10.3989 C.3       1 RES1    0.0000
     11 C11        5.7310    4.7873    6.2576 C.3       1 RES1    0.0000
     12 H1         3.4570    1.8334    8.9017 H         1 RES1    0.0000
     13 H2         5.0056    2.4336    7.2787 H         1 RES1    0.0000
     14 H3         1.4815    5.8779   10.1764 H         1 RES1    0.0000
     15 H4         4.7032    7.0612    6.8958 H         1 RES1    0.0000
     16 H5         1.8157    2.3280   10.5041 H         1 RES1    0.0000
     17 H6         0.9073    3.5902   10.1764 H         1 RES1    0.0000
     18 H7         2.0701    3.7651   11.2975 H         1 RES1    0.0000
     19 H8         6.1866    4.0022    5.9506 H         1 RES1    0.0000
     20 H9         6.4500    5.4110    6.6060 H         1 RES1    0.0000
     21 H10        5.2862    5.2075    5.4676 H         1 RES1    0.0000
     22 C12        5.6705    5.9323   14.2864 C.ar      2 RES2    0.0000
     23 C13        5.0195    5.9593   13.0909 C.ar      2 RES2    0.0000
     24 C14        4.0522    6.9515   12.7777 C.ar      2 RES2    0.0000
     25 C15        3.7087    7.9250   13.6625 C.ar      2 RES2    0.0000
     26 C16        4.3744    7.9634   14.9444 C.ar      2 RES2    0.0000
     27 C17        5.3774    6.9617   15.2559 C.ar      2 RES2    0.0000
     28 C18        6.0508    7.0473   16.4666 C.ar      2 RES2    0.0000
     29 C19        5.8030    8.0676   17.3968 C.ar      2 RES2    0.0000
     30 C20        4.1071    8.9553   15.8762 C.ar      2 RES2    0.0000
     31 C21        6.6758    4.8664   14.6108 C.3       2 RES2    0.0000
     32 C22        2.6596    8.9415   13.3276 C.3       2 RES2    0.0000
     33 H11        5.2412    5.2474   12.3841 H         2 RES2    0.0000
     34 H12        3.6351    6.9056   11.8839 H         2 RES2    0.0000
     35 H13        6.7663    6.3681   16.6806 H         2 RES2    0.0000
     36 H14        3.4075    9.6450   15.6854 H         2 RES2    0.0000
     37 H15        6.7746    4.2518   13.8157 H         2 RES2    0.0000
     38 H16        6.3968    4.3453   15.4198 H         2 RES2    0.0000
     39 H17        7.5897    5.2412   14.7989 H         2 RES2    0.0000
     40 H18        2.3636    8.8346   12.4014 H         2 RES2    0.0000
     41 H19        2.9911    9.9061   13.4018 H         2 RES2    0.0000
     42 H20        1.8796    8.8975   13.9709 H         2 RES2    0.0000
     43 C23        9.2048   15.8505    2.8549 C.ar      3 RES3    0.0000
     44 C24        8.7847   15.8764    4.1439 C.ar      3 RES3    0.0000
     45 C25        7.7980   14.9747    4.6377 C.ar      3 RES3    0.0000
     46 C26        7.2115   14.0499    3.8439 C.ar      3 RES3    0.0000
     47 C27        7.6112   13.9679    2.4561 C.ar      3 RES3    0.0000
     48 C28        8.6295   14.8733    1.9609 C.ar      3 RES3    0.0000
     49 C29        9.0300   14.7714    0.6358 C.ar      3 RES3    0.0000
     50 C30        8.4817   13.8202   -0.2448 C.ar      3 RES3    0.0000
     51 C31        7.0539   13.0455    1.5860 C.ar      3 RES3    0.0000
     52 C32       10.2479   16.8081    2.3578 C.3       3 RES3    0.0000
     53 C33        6.1661   13.1142    4.3827 C.3       3 RES3    0.0000
     54 H21        9.1404   16.5427    4.7622 H         3 RES3    0.0000
     55 H22        7.5466   15.0554    5.6056 H         3 RES3    0.0000
     56 H23        9.7333   15.3993    0.2570 H         3 RES3    0.0000
     57 H24        6.3398   12.4097    1.9283 H         3 RES3    0.0000
     58 H25       10.5130   17.4164    3.0702 H         3 RES3    0.0000
     59 H26        9.8801   17.3550    1.6386 H         3 RES3    0.0000
     60 H27       11.0526   16.3451    1.9490 H         3 RES3    0.0000
     61 H28        6.0235   13.2845    5.3124 H         3 RES3    0.0000
     62 H29        6.4454   12.1404    4.2603 H         3 RES3    0.0000
     63 H30        5.2901   13.2172    3.9498 H         3 RES3    0.0000
     64 C1A        2.7158   11.5341    7.9267 C.ar      1 RES1    0.0000
     65 C2A        1.9589   12.4575    8.5602 C.ar      1 RES1    0.0000
     66 C3A        1.0160   12.1050    9.5675 C.ar      1 RES1    0.0000
     67 C4A        0.8106   10.8185    9.9421 C.ar      1 RES1    0.0000
     68 C5A        1.5978    9.7847    9.3155 C.ar      1 RES1    0.0000
     69 C6A        2.5690   10.1456    8.2994 C.ar      1 RES1    0.0000
     70 C7A        3.3511    9.1508    7.7361 C.ar      1 RES1    0.0000
     71 C8A        3.2457    7.8015    8.1237 C.ar      1 RES1    0.0000
     72 C9A        1.4795    8.4532    9.6822 C.ar      1 RES1    0.0000
     73 C10A       3.6896   11.9244    6.8492 C.3       1 RES1    0.0000
     74 C11A      -0.2037   10.4584   10.9905 C.3       1 RES1    0.0000
     75 H1A        2.0702   13.4123    8.3463 H         1 RES1    0.0000
     76 H2A        0.5217   12.8121    9.9694 H         1 RES1    0.0000
     77 H3A        4.0458    9.3679    7.0717 H         1 RES1    0.0000
     78 H4A        0.8240    8.1846   10.3523 H         1 RES1    0.0000
     79 H5A        3.7116   12.9177    6.7440 H         1 RES1    0.0000
     80 H6A        4.6200   11.6555    7.0717 H         1 RES1    0.0000
     81 H7A        3.4572   11.4806    5.9506 H         1 RES1    0.0000
     82 H8A       -0.6593   11.2435   11.2975 H         1 RES1    0.0000
     83 H9A       -0.9227    9.8347   10.6421 H         1 RES1    0.0000
     84 H10A       0.2411   10.0383   11.7804 H         1 RES1    0.0000
     85 C12A       4.9263   11.1811   20.2097 C.ar      2 RES2    0.0000
     86 C13A       5.5773   11.1540   21.4052 C.ar      2 RES2    0.0000
     87 C14A       6.5446   10.1618   21.7184 C.ar      2 RES2    0.0000
     88 C15A       6.8881    9.1884   20.8336 C.ar      2 RES2    0.0000
     89 C16A       6.2223    9.1499   19.5517 C.ar      2 RES2    0.0000
     90 C17A       5.2193   10.1517   19.2402 C.ar      2 RES2    0.0000
     91 C18A       4.5459   10.0661   18.0296 C.ar      2 RES2    0.0000
     92 C19A       4.7937    9.0457   17.0994 C.ar      2 RES2    0.0000
     93 C20A       6.4896    8.1580   18.6200 C.ar      2 RES2    0.0000
     94 C21A       3.9210   12.2470   19.8853 C.3       2 RES2    0.0000
     95 C22A       7.9372    8.1718   21.1686 C.3       2 RES2    0.0000
     96 H11A       5.3556   11.8660   22.1120 H         2 RES2    0.0000
     97 H12A       6.9617   10.2077   22.6122 H         2 RES2    0.0000
     98 H13A       3.8304   10.7452   17.8155 H         2 RES2    0.0000
     99 H14A       7.1892    7.4683   18.8108 H         2 RES2    0.0000
    100 H15A       3.8221   12.8615   20.6804 H         2 RES2    0.0000
    101 H16A       4.1999   12.7681   19.0764 H         2 RES2    0.0000
    102 H17A       3.0071   11.8721   19.6973 H         2 RES2    0.0000
    103 H18A       8.2332    8.2788   22.0948 H         2 RES2    0.0000
    104 H19A       7.6056    7.2072   21.0944 H         2 RES2    0.0000
    105 H20A       8.7172    8.2158   20.5252 H         2 RES2    0.0000
    106 C23A       6.7376   10.9058   -2.8549 C.ar      3 RES3    0.0000
    107 C24A       7.1577   10.8799   -4.1439 C.ar      3 RES3    0.0000
    108 C25A       8.1443   11.7817   -4.6377 C.ar      3 RES3    0.0000
    109 C26A       8.7308   12.7064   -3.8439 C.ar      3 RES3    0.0000
    110 C27A       8.3311   12.7885   -2.4561 C.ar      3 RES3    0.0000
    111 C28A       7.3128   11.8830   -1.9609 C.ar      3 RES3    0.0000
    112 C29A       6.9123   11.9849   -0.6358 C.ar      3 RES3    0.0000
    113 C30A       7.4606   12.9362    0.2448 C.ar      3 RES3    0.0000
    114 C31A       8.8885   13.7108   -1.5860 C.ar      3 RES3    0.0000
    115 C32A       5.6944    9.9482   -2.3578 C.3       3 RES3    0.0000
    116 C33A       9.7762   13.6421   -4.3827 C.3       3 RES3    0.0000
    117 H21A       6.8019   10.2137   -4.7622 H         3 RES3    0.0000
    118 H22A       8.3957   11.7009   -5.6056 H         3 RES3    0.0000
    119 H23A       6.2090   11.3570   -0.2570 H         3 RES3    0.0000
    120 H24A       9.6025   14.3467   -1.9283 H         3 RES3    0.0000
    121 H25A       5.4293    9.3400   -3.0702 H         3 RES3    0.0000
    122 H26A       6.0622    9.4013   -1.6386 H         3 RES3    0.0000
    123 H27A       4.8897   10.4112   -1.9490 H         3 RES3    0.0000
    124 H28A       9.9189   13.4719   -5.3124 H         3 RES3    0.0000
    125 H29A       9.4970   14.6159   -4.2603 H         3 RES3    0.0000
    126 H30A      10.6522   13.5391   -3.9498 H         3 RES3    0.0000
@<TRIPOS>BOND
     1    1    2 ar
     2    2    3 ar
     3    3    4 ar
     4    4    5 ar
     5    5    6 ar
     6    6    1 ar
     7    7    6 ar
     8    8    7 ar
     9    9    5 ar
    10   10    1 1
    11   11    4 1
    12   12    2 1
    13   13    3 1
    14   14    7 1
    15   15    9 1
    16   16   10 1
    17   17   10 1
    18   18   10 1
    19   19   11 1
    20   20   11 1
    21   21   11 1
    22   22   23 ar
    23   23   24 ar
    24   24   25 ar
    25   25   26 ar
    26   26   27 ar
    27   27   22 ar
    28   28   27 ar
    29   29   28 ar
    30   30   26 ar
    31   31   22 1
    32   32   25 1
    33   33   23 1
    34   34   24 1
    35   35   28 1
    36   36   30 1
    37   37   31 1
    38   38   31 1
    39   39   31 1
    40   40   32 1
    41   41   32 1
    42   42   32 1
    43   43   44 ar
    44   44   45 ar
    45   45   46 ar
    46   46   47 ar
    47   47   48 ar
    48   48   43 ar
    49   49   48 ar
    50   50   49 ar
    51   51   47 ar
    52   52   43 1
    53   53   46 1
    54   54   44 1
    55   55   45 1
    56   56   49 1
    57   57   51 1
    58   58   52 1
    59   59   52 1
    60   60   52 1
    61   61   53 1
    62   62   53 1
    63   63   53 1
    64   64   65 ar
    65   65   66 ar
    66   66   67 ar
    67   67   68 ar
    68   68   69 ar
    69   69   64 ar
    70   70   69 ar
    71   71    8 ar
    72   72    8 ar
    73   73   64 1
    74   74   67 1
    75   75   65 1
    76   76   66 1
    77   77   70 1
    78   78   72 1
    79   79   73 1
    80   80   73 1
    81   81   73 1
    82   82   74 1
    83   83   74 1
    84   84   74 1
    85   85   86 ar
    86   86   87 ar
    87   87   88 ar
    88   88   89 ar
    89   89   90 ar
    90   90   85 ar
    91   91   90 ar
    92   92   29 ar
    93   93   29 ar
    94   94   85 1
    95   95   88 1
    96   96   86 1
    97   97   87 1
    98   98   91 1
    99   99   93 1
   100  100   94 1
   101  101   94 1
   102  102   94 1
   103  103   95 1
   104  104   95 1
   105  105   95 1
   106  106  107 ar
   107  107  108 ar
   108  108  109 ar
   109  109  110 ar
   110  110  111 ar
   111  111  106 ar
   112  112  111 ar
   113  113   50 ar
   114  114   50 ar
   115  115  106 1
   116  116  109 1
   117  117  107 1
   118  118  108 1
   119  119  112 1
   120  120  114 1
   121  121  115 1
   122  122  115 1
   123  123  115 1
   124  124  116 1
   125  125  116 1
   126  126  116 1
   127    9   71 ar
   128   30   92 ar
   129   51  113 ar
   130   68   72 ar
   131   70   71 ar
   132   89   93 ar
   133   91   92 ar
   134  110  114 ar
   135  112  113 ar
@<TRIPOS>SUBSTRUCTURE
     1 RES1 1
     2 RES2 22
     3 RES3 43

@<TRIPOS>CRYSIN
   5.0089   13.3860   17.3490  83.8170  89.8000  88.0400   2 1

