# MOL2 file generated by ConQuest
# Please check atom types

@<TRIPOS>MOLECULE
GUMZOE
    54    57     1
SMALL
NO_CHARGES
****
Generated from CSD

@<TRIPOS>ATOM
      1 C1         3.7306    5.0786    3.8704 C.ar      1 RES1    0.0000
      2 C2         4.3598    6.1283    4.4576 C.ar      1 RES1    0.0000
      3 C3         4.8095    7.2576    3.7126 C.ar      1 RES1    0.0000
      4 C4         4.6338    7.3560    2.3708 C.ar      1 RES1    0.0000
      5 C5         3.9807    6.2588    1.6816 C.ar      1 RES1    0.0000
      6 C6         3.5125    5.1158    2.4375 C.ar      1 RES1    0.0000
      7 C7         2.8760    4.0855    1.7702 C.ar      1 RES1    0.0000
      8 C8         2.6723    4.0968    0.3749 C.ar      1 RES1    0.0000
      9 C9         3.7863    6.2709    0.3057 C.ar      1 RES1    0.0000
     10 C10        3.2488    3.8749    4.6529 C.3       1 RES1    0.0000
     11 C11        3.4984    3.9275    6.1562 C.3       1 RES1    0.0000
     12 C12        5.0994    8.5599    1.5761 C.3       1 RES1    0.0000
     13 C13        5.6801    9.7035    2.3987 C.3       1 RES1    0.0000
     14 H1         4.5106    6.1083    5.4234 H         1 RES1    0.0000
     15 H2         5.2883    7.9531    4.2101 H         1 RES1    0.0000
     16 H3         2.5202    3.3120    2.2203 H         1 RES1    0.0000
     17 H4         4.1016    7.0297   -0.2305 H         1 RES1    0.0000
     18 H5         2.2610    3.7640    4.4891 H         1 RES1    0.0000
     19 H6         3.7257    3.0763    4.2950 H         1 RES1    0.0000
     20 H7         3.0579    4.7301    6.5396 H         1 RES1    0.0000
     21 H8         4.4944    3.9629    6.3819 H         1 RES1    0.0000
     22 H9         3.1233    3.1274    6.6124 H         1 RES1    0.0000
     23 H10        5.7915    8.2686    0.9100 H         1 RES1    0.0000
     24 H11        4.3383    8.9287    1.0556 H         1 RES1    0.0000
     25 H12        5.9506   10.4734    1.8199 H         1 RES1    0.0000
     26 H13        6.4804    9.4541    2.8997 H         1 RES1    0.0000
     27 H14        5.0227   10.0534    3.0817 H         1 RES1    0.0000
     28 C1A        2.0893    4.2359   -3.8704 C.ar      1 RES1    0.0000
     29 C2A        1.4601    3.1863   -4.4576 C.ar      1 RES1    0.0000
     30 C3A        1.0104    2.0569   -3.7126 C.ar      1 RES1    0.0000
     31 C4A        1.1861    1.9585   -2.3708 C.ar      1 RES1    0.0000
     32 C5A        1.8392    3.0557   -1.6816 C.ar      1 RES1    0.0000
     33 C6A        2.3074    4.1987   -2.4375 C.ar      1 RES1    0.0000
     34 C7A        2.9438    5.2291   -1.7702 C.ar      1 RES1    0.0000
     35 C8A        3.1476    5.2178   -0.3749 C.ar      1 RES1    0.0000
     36 C9A        2.0336    3.0437   -0.3057 C.ar      1 RES1    0.0000
     37 C10A       2.5710    5.4396   -4.6529 C.3       1 RES1    0.0000
     38 C11A       2.3215    5.3871   -6.1562 C.3       1 RES1    0.0000
     39 C12A       0.7205    0.7547   -1.5761 C.3       1 RES1    0.0000
     40 C13A       0.1398   -0.3890   -2.3987 C.3       1 RES1    0.0000
     41 H1A        1.3093    3.2062   -5.4234 H         1 RES1    0.0000
     42 H2A        0.5316    1.3614   -4.2101 H         1 RES1    0.0000
     43 H3A        3.2997    6.0026   -2.2203 H         1 RES1    0.0000
     44 H4A        1.7183    2.2848    0.2305 H         1 RES1    0.0000
     45 H5A        3.5589    5.5505   -4.4891 H         1 RES1    0.0000
     46 H6A        2.0942    6.2382   -4.2950 H         1 RES1    0.0000
     47 H7A        2.7620    4.5845   -6.5396 H         1 RES1    0.0000
     48 H8A        1.3255    5.3516   -6.3819 H         1 RES1    0.0000
     49 H9A        2.6966    6.1872   -6.6124 H         1 RES1    0.0000
     50 H10A       0.0284    1.0459   -0.9100 H         1 RES1    0.0000
     51 H11A       1.4816    0.3858   -1.0556 H         1 RES1    0.0000
     52 H12A      -0.1308   -1.1589   -1.8199 H         1 RES1    0.0000
     53 H13A      -0.6605   -0.1395   -2.8997 H         1 RES1    0.0000
     54 H14A       0.7972   -0.7388   -3.0817 H         1 RES1    0.0000
@<TRIPOS>BOND
     1    1    2 ar
     2    2    3 ar
     3    3    4 ar
     4    4    5 ar
     5    5    6 ar
     6    6    1 ar
     7    7    6 ar
     8    8    7 ar
     9    9    5 ar
    10   10    1 1
    11   11   10 1
    12   12    4 1
    13   13   12 1
    14   14    2 1
    15   15    3 1
    16   16    7 1
    17   17    9 1
    18   18   10 1
    19   19   10 1
    20   20   11 1
    21   21   11 1
    22   22   11 1
    23   23   12 1
    24   24   12 1
    25   25   13 1
    26   26   13 1
    27   27   13 1
    28   28   29 ar
    29   29   30 ar
    30   30   31 ar
    31   31   32 ar
    32   32   33 ar
    33   33   28 ar
    34   34   33 ar
    35   35    8 ar
    36   36    8 ar
    37   37   28 1
    38   38   37 1
    39   39   31 1
    40   40   39 1
    41   41   29 1
    42   42   30 1
    43   43   34 1
    44   44   36 1
    45   45   37 1
    46   46   37 1
    47   47   38 1
    48   48   38 1
    49   49   38 1
    50   50   39 1
    51   51   39 1
    52   52   40 1
    53   53   40 1
    54   54   40 1
    55    9   35 ar
    56   32   36 ar
    57   34   35 ar
@<TRIPOS>SUBSTRUCTURE
     1 RES1 1

@<TRIPOS>CRYSIN
   3.9992    9.4908   12.9789  69.2200  87.0000  78.9400   2 1

