# MOL2 file generated by ConQuest
# Please check atom types

@<TRIPOS>MOLECULE
GUMZUK
    66    69     1
SMALL
NO_CHARGES
****
Generated from CSD

@<TRIPOS>ATOM
      1 C1         2.9968    3.2607    3.6662 C.ar      1 RES1    0.0000
      2 C2         3.5508    2.2122    4.3235 C.ar      1 RES1    0.0000
      3 C3         4.5545    1.3836    3.7443 C.ar      1 RES1    0.0000
      4 C4         5.0538    1.6056    2.4991 C.ar      1 RES1    0.0000
      5 C5         4.5211    2.7376    1.7475 C.ar      1 RES1    0.0000
      6 C6         3.4708    3.5551    2.3242 C.ar      1 RES1    0.0000
      7 C7         2.9357    4.5904    1.5702 C.ar      1 RES1    0.0000
      8 C8         3.4030    4.8999    0.2753 C.ar      1 RES1    0.0000
      9 C9         4.9924    3.0536    0.4800 C.ar      1 RES1    0.0000
     10 C10        1.9320    4.1061    4.3136 C.3       1 RES1    0.0000
     11 C11        2.4348    5.4484    4.8370 C.3       1 RES1    0.0000
     12 C12        1.3300    6.2774    5.4646 C.3       1 RES1    0.0000
     13 C13        6.0991    0.7330    1.8591 C.3       1 RES1    0.0000
     14 C14        6.5155   -0.5104    2.6306 C.3       1 RES1    0.0000
     15 C15        7.5510   -1.3186    1.8616 C.3       1 RES1    0.0000
     16 H1         3.2326    2.0283    5.1967 H         1 RES1    0.0000
     17 H2         4.8923    0.6487    4.2789 H         1 RES1    0.0000
     18 H3         2.2064    5.1384    1.9100 H         1 RES1    0.0000
     19 H4         5.7099    2.5260    0.0992 H         1 RES1    0.0000
     20 H5         1.5770    3.6137    5.0603 H         1 RES1    0.0000
     21 H6         1.1824    4.2565    3.6712 H         1 RES1    0.0000
     22 H7         3.1531    5.2758    5.5068 H         1 RES1    0.0000
     23 H8         2.8858    5.9461    4.0805 H         1 RES1    0.0000
     24 H9         0.8707    5.8163    6.2509 H         1 RES1    0.0000
     25 H10        0.6395    6.4266    4.8122 H         1 RES1    0.0000
     26 H11        1.6443    7.1959    5.7548 H         1 RES1    0.0000
     27 H12        6.9490    1.3039    1.6744 H         1 RES1    0.0000
     28 H13        5.7891    0.4258    1.0170 H         1 RES1    0.0000
     29 H14        6.9193   -0.2190    3.5099 H         1 RES1    0.0000
     30 H15        5.7046   -1.0696    2.8154 H         1 RES1    0.0000
     31 H16        8.3583   -0.8093    1.7240 H         1 RES1    0.0000
     32 H17        7.8228   -2.1782    2.3193 H         1 RES1    0.0000
     33 H18        7.1804   -1.6143    0.9922 H         1 RES1    0.0000
     34 C1A        4.8681    5.7545   -3.6662 C.ar      1 RES1    0.0000
     35 C2A        4.3141    6.8030   -4.3235 C.ar      1 RES1    0.0000
     36 C3A        3.3104    7.6316   -3.7443 C.ar      1 RES1    0.0000
     37 C4A        2.8111    7.4096   -2.4991 C.ar      1 RES1    0.0000
     38 C5A        3.3438    6.2776   -1.7475 C.ar      1 RES1    0.0000
     39 C6A        4.3941    5.4601   -2.3242 C.ar      1 RES1    0.0000
     40 C7A        4.9292    4.4248   -1.5702 C.ar      1 RES1    0.0000
     41 C8A        4.4619    4.1153   -0.2753 C.ar      1 RES1    0.0000
     42 C9A        2.8725    5.9616   -0.4800 C.ar      1 RES1    0.0000
     43 C10A       5.9329    4.9091   -4.3136 C.3       1 RES1    0.0000
     44 C11A       5.4301    3.5668   -4.8370 C.3       1 RES1    0.0000
     45 C12A       6.5349    2.7378   -5.4646 C.3       1 RES1    0.0000
     46 C13A       1.7658    8.2822   -1.8591 C.3       1 RES1    0.0000
     47 C14A       1.3494    9.5256   -2.6306 C.3       1 RES1    0.0000
     48 C15A       0.3140   10.3338   -1.8616 C.3       1 RES1    0.0000
     49 H1A        4.6323    6.9869   -5.1967 H         1 RES1    0.0000
     50 H2A        2.9726    8.3665   -4.2789 H         1 RES1    0.0000
     51 H3A        5.6585    3.8768   -1.9100 H         1 RES1    0.0000
     52 H4A        2.1550    6.4892   -0.0992 H         1 RES1    0.0000
     53 H5A        6.2879    5.4015   -5.0603 H         1 RES1    0.0000
     54 H6A        6.6825    4.7587   -3.6712 H         1 RES1    0.0000
     55 H7A        4.7118    3.7394   -5.5068 H         1 RES1    0.0000
     56 H8A        4.9791    3.0691   -4.0805 H         1 RES1    0.0000
     57 H9A        6.9942    3.1989   -6.2509 H         1 RES1    0.0000
     58 H10A       7.2254    2.5886   -4.8122 H         1 RES1    0.0000
     59 H11A       6.2207    1.8193   -5.7548 H         1 RES1    0.0000
     60 H12A       0.9159    7.7113   -1.6744 H         1 RES1    0.0000
     61 H13A       2.0758    8.5894   -1.0170 H         1 RES1    0.0000
     62 H14A       0.9456    9.2342   -3.5099 H         1 RES1    0.0000
     63 H15A       2.1603   10.0848   -2.8154 H         1 RES1    0.0000
     64 H16A      -0.4934    9.8245   -1.7240 H         1 RES1    0.0000
     65 H17A       0.0421   11.1934   -2.3193 H         1 RES1    0.0000
     66 H18A       0.6845   10.6295   -0.9922 H         1 RES1    0.0000
@<TRIPOS>BOND
     1    1    2 ar
     2    2    3 ar
     3    3    4 ar
     4    4    5 ar
     5    5    6 ar
     6    6    1 ar
     7    7    6 ar
     8    8    7 ar
     9    9    5 ar
    10   10    1 1
    11   11   10 1
    12   12   11 1
    13   13    4 1
    14   14   13 1
    15   15   14 1
    16   16    2 1
    17   17    3 1
    18   18    7 1
    19   19    9 1
    20   20   10 1
    21   21   10 1
    22   22   11 1
    23   23   11 1
    24   24   12 1
    25   25   12 1
    26   26   12 1
    27   27   13 1
    28   28   13 1
    29   29   14 1
    30   30   14 1
    31   31   15 1
    32   32   15 1
    33   33   15 1
    34   34   35 ar
    35   35   36 ar
    36   36   37 ar
    37   37   38 ar
    38   38   39 ar
    39   39   34 ar
    40   40   39 ar
    41   41    8 ar
    42   42    8 ar
    43   43   34 1
    44   44   43 1
    45   45   44 1
    46   46   37 1
    47   47   46 1
    48   48   47 1
    49   49   35 1
    50   50   36 1
    51   51   40 1
    52   52   42 1
    53   53   43 1
    54   54   43 1
    55   55   44 1
    56   56   44 1
    57   57   45 1
    58   58   45 1
    59   59   45 1
    60   60   46 1
    61   61   46 1
    62   62   47 1
    63   63   47 1
    64   64   48 1
    65   65   48 1
    66   66   48 1
    67    9   41 ar
    68   38   42 ar
    69   40   41 ar
@<TRIPOS>SUBSTRUCTURE
     1 RES1 1

@<TRIPOS>CRYSIN
   5.0580    9.2920   12.8000 103.7600  90.4500 104.0200   2 1

