# MOL2 file generated by ConQuest
# Please check atom types

@<TRIPOS>MOLECULE
GUNBAT
    90    93     1
SMALL
NO_CHARGES
****
Generated from CSD

@<TRIPOS>ATOM
      1 C1        -0.4033   -0.8439    3.1050 C.ar      1 RES1    0.0000
      2 C2         0.1549   -1.8912    2.4358 C.ar      1 RES1    0.0000
      3 C3         1.1731   -2.7161    2.9946 C.ar      1 RES1    0.0000
      4 C4         1.6761   -2.4794    4.2334 C.ar      1 RES1    0.0000
      5 C5         1.1726   -1.3529    4.9888 C.ar      1 RES1    0.0000
      6 C6         0.1067   -0.5442    4.4219 C.ar      1 RES1    0.0000
      7 C7        -0.4073    0.5001    5.1827 C.ar      1 RES1    0.0000
      8 C8         0.0857    0.8232    6.4645 C.ar      1 RES1    0.0000
      9 C9         1.6731   -1.0270    6.2437 C.ar      1 RES1    0.0000
     10 C10       -1.4978   -0.0359    2.4749 C.3       1 RES1    0.0000
     11 C11       -1.0750    1.3111    1.9120 C.3       1 RES1    0.0000
     12 C12       -2.2419    2.0772    1.3074 C.3       1 RES1    0.0000
     13 C13       -1.9211    3.4752    0.8631 C.3       1 RES1    0.0000
     14 C14       -3.0879    4.2036    0.2276 C.3       1 RES1    0.0000
     15 C15        2.7283   -3.3595    4.8703 C.3       1 RES1    0.0000
     16 C16        3.1656   -4.5887    4.0812 C.3       1 RES1    0.0000
     17 C17        4.1550   -5.4316    4.8635 C.3       1 RES1    0.0000
     18 C18        4.6003   -6.6846    4.1378 C.3       1 RES1    0.0000
     19 C19        5.5863   -7.5253    4.9376 C.3       1 RES1    0.0000
     20 H1        -0.2025   -2.1230    1.5350 H         1 RES1    0.0000
     21 H2         1.5470   -3.4931    2.4506 H         1 RES1    0.0000
     22 H3        -1.2404    1.0262    4.8743 H         1 RES1    0.0000
     23 H4         2.4797   -1.6067    6.6382 H         1 RES1    0.0000
     24 H5        -1.9581   -0.6015    1.7639 H         1 RES1    0.0000
     25 H6        -2.2303    0.1303    3.0835 H         1 RES1    0.0000
     26 H7        -0.3842    1.1697    1.1849 H         1 RES1    0.0000
     27 H8        -0.6138    1.8423    2.6257 H         1 RES1    0.0000
     28 H9        -2.5907    1.6091    0.5521 H         1 RES1    0.0000
     29 H10       -3.0088    2.0911    1.9794 H         1 RES1    0.0000
     30 H11       -1.1347    3.4422    0.2424 H         1 RES1    0.0000
     31 H12       -1.5668    3.9688    1.6697 H         1 RES1    0.0000
     32 H13       -3.4315    3.7580   -0.5790 H         1 RES1    0.0000
     33 H14       -2.8459    5.1997   -0.0269 H         1 RES1    0.0000
     34 H15       -3.8592    4.2168    0.8348 H         1 RES1    0.0000
     35 H16        2.4123   -3.6933    5.7765 H         1 RES1    0.0000
     36 H17        3.5896   -2.8349    5.0628 H         1 RES1    0.0000
     37 H18        2.3518   -5.1328    3.8644 H         1 RES1    0.0000
     38 H19        3.5240   -4.3481    3.2181 H         1 RES1    0.0000
     39 H20        3.7406   -5.6922    5.7630 H         1 RES1    0.0000
     40 H21        4.9648   -4.9307    5.1032 H         1 RES1    0.0000
     41 H22        3.7928   -7.2595    3.9452 H         1 RES1    0.0000
     42 H23        4.9873   -6.3727    3.3258 H         1 RES1    0.0000
     43 H24        5.2035   -7.6532    5.8169 H         1 RES1    0.0000
     44 H25        6.3882   -7.0017    5.1840 H         1 RES1    0.0000
     45 H26        5.8253   -8.4160    4.3627 H         1 RES1    0.0000
     46 C1A        1.6502    1.7053   10.3600 C.ar      1 RES1    0.0000
     47 C2A        1.0920    2.7527   11.0292 C.ar      1 RES1    0.0000
     48 C3A        0.0738    3.5776   10.4704 C.ar      1 RES1    0.0000
     49 C4A       -0.4292    3.3409    9.2316 C.ar      1 RES1    0.0000
     50 C5A        0.0743    2.2144    8.4762 C.ar      1 RES1    0.0000
     51 C6A        1.1403    1.4057    9.0431 C.ar      1 RES1    0.0000
     52 C7A        1.6543    0.3614    8.2823 C.ar      1 RES1    0.0000
     53 C8A        1.1613    0.0383    7.0004 C.ar      1 RES1    0.0000
     54 C9A       -0.4261    1.8885    7.2213 C.ar      1 RES1    0.0000
     55 C10A       2.7448    0.8974   10.9901 C.3       1 RES1    0.0000
     56 C11A       2.3219   -0.4496   11.5529 C.3       1 RES1    0.0000
     57 C12A       3.4888   -1.2157   12.1575 C.3       1 RES1    0.0000
     58 C13A       3.1680   -2.6137   12.6019 C.3       1 RES1    0.0000
     59 C14A       4.3348   -3.3421   13.2374 C.3       1 RES1    0.0000
     60 C15A      -1.4813    4.2210    8.5947 C.3       1 RES1    0.0000
     61 C16A      -1.9187    5.4502    9.3837 C.3       1 RES1    0.0000
     62 C17A      -2.9081    6.2931    8.6014 C.3       1 RES1    0.0000
     63 C18A      -3.3534    7.5461    9.3272 C.3       1 RES1    0.0000
     64 C19A      -4.3394    8.3868    8.5274 C.3       1 RES1    0.0000
     65 H1A        1.4494    2.9845   11.9300 H         1 RES1    0.0000
     66 H2A       -0.3001    4.3546   11.0143 H         1 RES1    0.0000
     67 H3A        2.4873   -0.1647    8.5907 H         1 RES1    0.0000
     68 H4A       -1.2328    2.4682    6.8267 H         1 RES1    0.0000
     69 H5A        3.2050    1.4630   11.7011 H         1 RES1    0.0000
     70 H6A        3.4772    0.7312   10.3815 H         1 RES1    0.0000
     71 H7A        1.6311   -0.3082   12.2801 H         1 RES1    0.0000
     72 H8A        1.8608   -0.9808   10.8393 H         1 RES1    0.0000
     73 H9A        3.8377   -0.7476   12.9129 H         1 RES1    0.0000
     74 H10A       4.2557   -1.2296   11.4856 H         1 RES1    0.0000
     75 H11A       2.3816   -2.5807   13.2226 H         1 RES1    0.0000
     76 H12A       2.8137   -3.1073   11.7953 H         1 RES1    0.0000
     77 H13A       4.6784   -2.8965   14.0440 H         1 RES1    0.0000
     78 H14A       4.0928   -4.3382   13.4919 H         1 RES1    0.0000
     79 H15A       5.1062   -3.3553   12.6301 H         1 RES1    0.0000
     80 H16A      -1.1654    4.5548    7.6885 H         1 RES1    0.0000
     81 H17A      -2.3427    3.6964    8.4021 H         1 RES1    0.0000
     82 H18A      -1.1049    5.9943    9.6005 H         1 RES1    0.0000
     83 H19A      -2.2771    5.2096   10.2468 H         1 RES1    0.0000
     84 H20A      -2.4936    6.5537    7.7020 H         1 RES1    0.0000
     85 H21A      -3.7179    5.7922    8.3617 H         1 RES1    0.0000
     86 H22A      -2.5459    8.1210    9.5197 H         1 RES1    0.0000
     87 H23A      -3.7404    7.2342   10.1391 H         1 RES1    0.0000
     88 H24A      -3.9565    8.5147    7.6481 H         1 RES1    0.0000
     89 H25A      -5.1413    7.8632    8.2810 H         1 RES1    0.0000
     90 H26A      -4.5784    9.2775    9.1023 H         1 RES1    0.0000
@<TRIPOS>BOND
     1    1    2 ar
     2    2    3 ar
     3    3    4 ar
     4    4    5 ar
     5    5    6 ar
     6    6    1 ar
     7    7    6 ar
     8    8    7 ar
     9    9    5 ar
    10   10    1 1
    11   11   10 1
    12   12   11 1
    13   13   12 1
    14   14   13 1
    15   15    4 1
    16   16   15 1
    17   17   16 1
    18   18   17 1
    19   19   18 1
    20   20    2 1
    21   21    3 1
    22   22    7 1
    23   23    9 1
    24   24   10 1
    25   25   10 1
    26   26   11 1
    27   27   11 1
    28   28   12 1
    29   29   12 1
    30   30   13 1
    31   31   13 1
    32   32   14 1
    33   33   14 1
    34   34   14 1
    35   35   15 1
    36   36   15 1
    37   37   16 1
    38   38   16 1
    39   39   17 1
    40   40   17 1
    41   41   18 1
    42   42   18 1
    43   43   19 1
    44   44   19 1
    45   45   19 1
    46   46   47 ar
    47   47   48 ar
    48   48   49 ar
    49   49   50 ar
    50   50   51 ar
    51   51   46 ar
    52   52   51 ar
    53   53    8 ar
    54   54    8 ar
    55   55   46 1
    56   56   55 1
    57   57   56 1
    58   58   57 1
    59   59   58 1
    60   60   49 1
    61   61   60 1
    62   62   61 1
    63   63   62 1
    64   64   63 1
    65   65   47 1
    66   66   48 1
    67   67   52 1
    68   68   54 1
    69   69   55 1
    70   70   55 1
    71   71   56 1
    72   72   56 1
    73   73   57 1
    74   74   57 1
    75   75   58 1
    76   76   58 1
    77   77   59 1
    78   78   59 1
    79   79   59 1
    80   80   60 1
    81   81   60 1
    82   82   61 1
    83   83   61 1
    84   84   62 1
    85   85   62 1
    86   86   63 1
    87   87   63 1
    88   88   64 1
    89   89   64 1
    90   90   64 1
    91    9   53 ar
    92   50   54 ar
    93   52   53 ar
@<TRIPOS>SUBSTRUCTURE
     1 RES1 1

@<TRIPOS>CRYSIN
   5.1460   11.2800   13.5500  85.6300  84.7200  81.7000   2 1

