# MOL2 file generated by ConQuest
# Please check atom types

@<TRIPOS>MOLECULE
GUNBEX
   102   105     1
SMALL
NO_CHARGES
****
Generated from CSD

@<TRIPOS>ATOM
      1 C1        28.6829    1.9546   -0.0337 C.ar      1 RES1    0.0000
      2 C2        29.6243    1.4044    0.7678 C.ar      1 RES1    0.0000
      3 H1        30.5319    1.6700    0.6622 H         1 RES1    0.0000
      4 C3        29.3022    0.4451    1.7579 C.ar      1 RES1    0.0000
      5 H2        30.0001    0.0980    2.2991 H         1 RES1    0.0000
      6 C4        28.0346   -0.0028    1.9706 C.ar      1 RES1    0.0000
      7 C5        26.9764    0.5478    1.1500 C.ar      1 RES1    0.0000
      8 C6        27.3051    1.5408    0.1311 C.ar      1 RES1    0.0000
      9 C7        26.2813    2.0839   -0.6299 C.ar      1 RES1    0.0000
     10 H3        26.4934    2.7506   -1.2717 H         1 RES1    0.0000
     11 C8        24.9350    1.6852   -0.4862 C.ar      1 RES1    0.0000
     12 C9        25.6556    0.1567    1.2871 C.ar      1 RES1    0.0000
     13 H4        25.4364   -0.4910    1.9471 H         1 RES1    0.0000
     14 C10       29.1055    2.9054   -1.1258 C.3       1 RES1    0.0000
     15 H5        29.9760    3.3112   -0.8888 H         1 RES1    0.0000
     16 H6        28.4404    3.6336   -1.2035 H         1 RES1    0.0000
     17 C11       29.2305    2.1767   -2.4828 C.3       1 RES1    0.0000
     18 H7        29.7904    1.3684   -2.3607 H         1 RES1    0.0000
     19 H8        28.3308    1.8798   -2.7699 H         1 RES1    0.0000
     20 C12       29.8392    3.0313   -3.5875 C.3       1 RES1    0.0000
     21 H9        29.2452    3.8017   -3.7688 H         1 RES1    0.0000
     22 H10       30.7131    3.3851   -3.2826 H         1 RES1    0.0000
     23 C13       30.0407    2.2463   -4.8666 C.3       1 RES1    0.0000
     24 H11       29.1585    1.9309   -5.1856 H         1 RES1    0.0000
     25 H12       30.5898    1.4465   -4.6642 H         1 RES1    0.0000
     26 C14       30.7163    3.0266   -5.9931 C.3       1 RES1    0.0000
     27 H13       30.1535    3.8069   -6.2263 H         1 RES1    0.0000
     28 H14       31.5879    3.3685   -5.6697 H         1 RES1    0.0000
     29 C15       30.9451    2.1885   -7.2427 C.3       1 RES1    0.0000
     30 H15       31.3853    2.7354   -7.9270 H         1 RES1    0.0000
     31 H16       30.0836    1.8684   -7.5838 H         1 RES1    0.0000
     32 H17       31.5150    1.4214   -7.0227 H         1 RES1    0.0000
     33 C16       27.7486   -0.9882    3.0775 C.3       1 RES1    0.0000
     34 H18       28.5727   -1.5034    3.2694 H         1 RES1    0.0000
     35 H19       27.0589   -1.6269    2.7677 H         1 RES1    0.0000
     36 C17       27.2687   -0.3291    4.3628 C.3       1 RES1    0.0000
     37 H20       27.9246    0.3613    4.6334 H         1 RES1    0.0000
     38 H21       26.4073    0.1269    4.1868 H         1 RES1    0.0000
     39 C18       27.0827   -1.3012    5.5077 C.3       1 RES1    0.0000
     40 H22       27.9570   -1.7070    5.7291 H         1 RES1    0.0000
     41 H23       26.4784   -2.0285    5.2142 H         1 RES1    0.0000
     42 C19       26.5046   -0.6539    6.7680 C.3       1 RES1    0.0000
     43 H24       27.0929    0.0942    7.0403 H         1 RES1    0.0000
     44 H25       25.6165   -0.2737    6.5519 H         1 RES1    0.0000
     45 C20       26.3534   -1.6066    7.9424 C.3       1 RES1    0.0000
     46 H26       25.7620   -2.3552    7.6762 H         1 RES1    0.0000
     47 H27       27.2384   -1.9863    8.1646 H         1 RES1    0.0000
     48 C21       25.7773   -0.9461    9.1832 C.3       1 RES1    0.0000
     49 H28       25.7094   -1.6066    9.9049 H         1 RES1    0.0000
     50 H29       24.8858   -0.5923    8.9808 H         1 RES1    0.0000
     51 H30       26.3650   -0.2131    9.4648 H         1 RES1    0.0000
     52 C1F       20.8771    0.4129    0.0337 C.ar      1 RES1    0.0000
     53 C2F       19.9357    0.9631   -0.7678 C.ar      1 RES1    0.0000
     54 H1F       19.0281    0.6975   -0.6622 H         1 RES1    0.0000
     55 C3F       20.2578    1.9224   -1.7579 C.ar      1 RES1    0.0000
     56 H2F       19.5599    2.2695   -2.2991 H         1 RES1    0.0000
     57 C4F       21.5254    2.3703   -1.9706 C.ar      1 RES1    0.0000
     58 C5F       22.5836    1.8197   -1.1500 C.ar      1 RES1    0.0000
     59 C6F       22.2549    0.8267   -0.1311 C.ar      1 RES1    0.0000
     60 C7F       23.2787    0.2836    0.6299 C.ar      1 RES1    0.0000
     61 H3F       23.0666   -0.3831    1.2717 H         1 RES1    0.0000
     62 C8F       24.6250    0.6823    0.4862 C.ar      1 RES1    0.0000
     63 C9F       23.9044    2.2108   -1.2871 C.ar      1 RES1    0.0000
     64 H4F       24.1236    2.8585   -1.9471 H         1 RES1    0.0000
     65 C10F      20.4545   -0.5379    1.1258 C.3       1 RES1    0.0000
     66 H5F       19.5840   -0.9437    0.8888 H         1 RES1    0.0000
     67 H6F       21.1196   -1.2661    1.2035 H         1 RES1    0.0000
     68 C11F      20.3295    0.1908    2.4828 C.3       1 RES1    0.0000
     69 H7F       19.7696    0.9991    2.3607 H         1 RES1    0.0000
     70 H8F       21.2292    0.4877    2.7699 H         1 RES1    0.0000
     71 C12F      19.7208   -0.6638    3.5875 C.3       1 RES1    0.0000
     72 H9F       20.3148   -1.4342    3.7688 H         1 RES1    0.0000
     73 H10F      18.8469   -1.0176    3.2826 H         1 RES1    0.0000
     74 C13F      19.5193    0.1212    4.8666 C.3       1 RES1    0.0000
     75 H11F      20.4015    0.4366    5.1856 H         1 RES1    0.0000
     76 H12F      18.9702    0.9210    4.6642 H         1 RES1    0.0000
     77 C14F      18.8437   -0.6591    5.9931 C.3       1 RES1    0.0000
     78 H13F      19.4065   -1.4394    6.2263 H         1 RES1    0.0000
     79 H14F      17.9721   -1.0010    5.6697 H         1 RES1    0.0000
     80 C15F      18.6149    0.1790    7.2427 C.3       1 RES1    0.0000
     81 H15F      18.1747   -0.3679    7.9270 H         1 RES1    0.0000
     82 H16F      19.4764    0.4991    7.5838 H         1 RES1    0.0000
     83 H17F      18.0450    0.9461    7.0227 H         1 RES1    0.0000
     84 C16F      21.8114    3.3557   -3.0775 C.3       1 RES1    0.0000
     85 H18F      20.9873    3.8709   -3.2694 H         1 RES1    0.0000
     86 H19F      22.5011    3.9944   -2.7677 H         1 RES1    0.0000
     87 C17F      22.2913    2.6966   -4.3628 C.3       1 RES1    0.0000
     88 H20F      21.6354    2.0062   -4.6334 H         1 RES1    0.0000
     89 H21F      23.1527    2.2406   -4.1868 H         1 RES1    0.0000
     90 C18F      22.4773    3.6687   -5.5077 C.3       1 RES1    0.0000
     91 H22F      21.6030    4.0745   -5.7291 H         1 RES1    0.0000
     92 H23F      23.0816    4.3960   -5.2142 H         1 RES1    0.0000
     93 C19F      23.0554    3.0214   -6.7680 C.3       1 RES1    0.0000
     94 H24F      22.4671    2.2733   -7.0403 H         1 RES1    0.0000
     95 H25F      23.9435    2.6412   -6.5519 H         1 RES1    0.0000
     96 C20F      23.2066    3.9741   -7.9424 C.3       1 RES1    0.0000
     97 H26F      23.7980    4.7227   -7.6762 H         1 RES1    0.0000
     98 H27F      22.3216    4.3538   -8.1646 H         1 RES1    0.0000
     99 C21F      23.7827    3.3136   -9.1832 C.3       1 RES1    0.0000
    100 H28F      23.8506    3.9741   -9.9049 H         1 RES1    0.0000
    101 H29F      24.6742    2.9598   -8.9808 H         1 RES1    0.0000
    102 H30F      23.1950    2.5806   -9.4648 H         1 RES1    0.0000
@<TRIPOS>BOND
     1    1    2 ar
     2    2    3 1
     3    4    2 ar
     4    5    4 1
     5    6    4 ar
     6    7    6 ar
     7    8    1 ar
     8    9    8 ar
     9   10    9 1
    10   11    9 ar
    11   12    7 ar
    12   13   12 1
    13   14    1 1
    14   15   14 1
    15   16   14 1
    16   17   14 1
    17   18   17 1
    18   19   17 1
    19   20   17 1
    20   21   20 1
    21   22   20 1
    22   23   20 1
    23   24   23 1
    24   25   23 1
    25   26   23 1
    26   27   26 1
    27   28   26 1
    28   29   26 1
    29   30   29 1
    30   31   29 1
    31   32   29 1
    32   33    6 1
    33   34   33 1
    34   35   33 1
    35   36   33 1
    36   37   36 1
    37   38   36 1
    38   39   36 1
    39   40   39 1
    40   41   39 1
    41   42   39 1
    42   43   42 1
    43   44   42 1
    44   45   42 1
    45   46   45 1
    46   47   45 1
    47   48   45 1
    48   49   48 1
    49   50   48 1
    50   51   48 1
    51   52   53 ar
    52   53   54 1
    53   55   53 ar
    54   56   55 1
    55   57   55 ar
    56   58   57 ar
    57   59   52 ar
    58   60   59 ar
    59   61   60 1
    60   62   11 ar
    61   63   11 ar
    62   64   63 1
    63   65   52 1
    64   66   65 1
    65   67   65 1
    66   68   65 1
    67   69   68 1
    68   70   68 1
    69   71   68 1
    70   72   71 1
    71   73   71 1
    72   74   71 1
    73   75   74 1
    74   76   74 1
    75   77   74 1
    76   78   77 1
    77   79   77 1
    78   80   77 1
    79   81   80 1
    80   82   80 1
    81   83   80 1
    82   84   57 1
    83   85   84 1
    84   86   84 1
    85   87   84 1
    86   88   87 1
    87   89   87 1
    88   90   87 1
    89   91   90 1
    90   92   90 1
    91   93   90 1
    92   94   93 1
    93   95   93 1
    94   96   93 1
    95   97   96 1
    96   98   96 1
    97   99   96 1
    98  100   99 1
    99  101   99 1
   100  102   99 1
   101    7    8 ar
   102   12   62 ar
   103   58   59 ar
   104   58   63 ar
   105   60   62 ar
@<TRIPOS>SUBSTRUCTURE
     1 RES1 1

@<TRIPOS>CRYSIN
  33.0400    4.7350   26.4100  90.0000 123.5860  90.0000  15 1

