# MOL2 file generated by ConQuest
# Please check atom types

@<TRIPOS>MOLECULE
GUQLIO
   138   149     1
SMALL
NO_CHARGES
****
Generated from CSD

@<TRIPOS>ATOM
      1 C1        -0.1026    8.1088    9.5824 C.ar      1 RES1    0.0000
      2 C2         0.7110    7.9933   10.6681 C.ar      1 RES1    0.0000
      3 C3         2.0786    8.3838   10.6228 C.ar      1 RES1    0.0000
      4 C4         2.9267    8.3141   11.7587 C.ar      1 RES1    0.0000
      5 C5         4.2961    8.6320   11.6300 C.ar      1 RES1    0.0000
      6 C6         5.2049    8.5149   12.7243 C.ar      1 RES1    0.0000
      7 C7         6.5230    8.7995   12.5808 C.ar      1 RES1    0.0000
      8 C8         7.0341    9.2440   11.3418 C.ar      1 RES1    0.0000
      9 C9         6.2154    9.3967   10.2531 C.ar      1 RES1    0.0000
     10 C10        4.8133    9.0802   10.3578 C.ar      1 RES1    0.0000
     11 C11        3.9526    9.1868    9.2680 C.ar      1 RES1    0.0000
     12 C12        2.6083    8.8605    9.3713 C.ar      1 RES1    0.0000
     13 C13        1.7063    8.9957    8.2444 C.ar      1 RES1    0.0000
     14 C14        0.3932    8.6433    8.3663 C.ar      1 RES1    0.0000
     15 C15        2.1823    9.4696    6.9722 C.1       1 RES1    0.0000
     16 C16        2.4948    9.8188    5.8665 C.1       1 RES1    0.0000
     17 C17        0.6215    7.8249    2.6551 C.ar      1 RES1    0.0000
     18 C18        1.1705    8.5210    3.6740 C.ar      1 RES1    0.0000
     19 C19        2.2038    9.4686    3.4601 C.ar      1 RES1    0.0000
     20 C20        2.8605   10.1367    4.5230 C.ar      1 RES1    0.0000
     21 C21        3.9024   11.0534    4.2630 C.ar      1 RES1    0.0000
     22 C22        4.5588   11.7618    5.3126 C.ar      1 RES1    0.0000
     23 C23        5.5577   12.6488    5.0441 C.ar      1 RES1    0.0000
     24 C24        5.9837   12.8719    3.7193 C.ar      1 RES1    0.0000
     25 C25        5.3884   12.2045    2.6821 C.ar      1 RES1    0.0000
     26 C26        4.3270   11.2905    2.9105 C.ar      1 RES1    0.0000
     27 C27        3.6883   10.5978    1.8552 C.ar      1 RES1    0.0000
     28 C28        2.6346    9.6992    2.1030 C.ar      1 RES1    0.0000
     29 C29        2.0242    8.9551    1.0584 C.ar      1 RES1    0.0000
     30 C30        1.0456    8.0350    1.3224 C.ar      1 RES1    0.0000
     31 C31        6.7774    9.8807    9.0268 C.1       1 RES1    0.0000
     32 C32        7.3350   10.3051    8.0481 C.1       1 RES1    0.0000
     33 C33        7.9896   10.7840    6.8625 C.ar      1 RES1    0.0000
     34 C34        8.8204   11.8816    6.9167 C.ar      1 RES1    0.0000
     35 C35        9.4950   12.3961    5.7830 C.ar      1 RES1    0.0000
     36 C36        9.2666   11.7629    4.5792 C.ar      1 RES1    0.0000
     37 C37        8.4096   10.6404    4.4660 C.ar      1 RES1    0.0000
     38 C38        8.1320   10.0337    3.2067 C.ar      1 RES1    0.0000
     39 C39        7.3333    8.9229    3.1383 C.ar      1 RES1    0.0000
     40 C40        6.7699    8.3257    4.2996 C.ar      1 RES1    0.0000
     41 C41        6.9910    8.9313    5.4971 C.ar      1 RES1    0.0000
     42 C42        7.7875   10.1067    5.6212 C.ar      1 RES1    0.0000
     43 C43        4.1453   10.7970    0.5019 C.1       1 RES1    0.0000
     44 C44        4.5143   10.9485   -0.6262 C.1       1 RES1    0.0000
     45 C45        8.6708   10.6120    2.0103 C.1       1 RES1    0.0000
     46 C46        9.1087   11.1331    1.0343 C.1       1 RES1    0.0000
     47 C47        4.9930   11.2045   -1.9635 C.ar      1 RES1    0.0000
     48 C48        4.1319   11.1843   -3.0265 C.ar      1 RES1    0.0000
     49 C49        4.5920   11.4707   -4.3326 C.ar      1 RES1    0.0000
     50 C50        5.8882   11.7963   -4.5539 C.ar      1 RES1    0.0000
     51 C51        6.8459   11.8324   -3.4909 C.ar      1 RES1    0.0000
     52 C52        6.3886   11.4931   -2.1657 C.ar      1 RES1    0.0000
     53 C53        7.2928   11.4358   -1.1203 C.ar      1 RES1    0.0000
     54 C54        8.6271   11.7734   -1.3013 C.ar      1 RES1    0.0000
     55 C55        9.5616   11.6949   -0.2014 C.ar      1 RES1    0.0000
     56 C56       10.8448   12.1408   -0.3681 C.ar      1 RES1    0.0000
     57 C57       11.2764   12.6271   -1.6069 C.ar      1 RES1    0.0000
     58 C58        9.0873   12.1997   -2.5857 C.ar      1 RES1    0.0000
     59 C59        8.1964   12.1762   -3.6905 C.ar      1 RES1    0.0000
     60 C60       10.3954   13.6227    5.9105 C.3       1 RES1    0.0000
     61 C61       11.4063   13.4097    7.0328 C.3       1 RES1    0.0000
     62 C62       11.1746   13.9111    4.6190 C.3       1 RES1    0.0000
     63 C63        9.5103   14.8367    6.2152 C.3       1 RES1    0.0000
     64 C64        6.0059    7.0137    4.1484 C.3       1 RES1    0.0000
     65 C65        6.9752    5.9540    3.6028 C.3       1 RES1    0.0000
     66 C66        4.8615    7.1625    3.1348 C.3       1 RES1    0.0000
     67 C67        5.4186    6.5421    5.4447 C.3       1 RES1    0.0000
     68 C68        8.6885   12.5939   -5.0615 C.3       1 RES1    0.0000
     69 C69        8.4497   14.0621   -5.3399 C.3       1 RES1    0.0000
     70 C70        2.3628    7.8802   13.0980 C.3       1 RES1    0.0000
     71 C71        2.4543    6.3708   13.3186 C.3       1 RES1    0.0000
     72 C72       10.4460   12.6415   -2.6937 C.ar      1 RES1    0.0000
     73 C73        8.9650   14.5152   -6.7001 C.3       1 RES1    0.0000
     74 C74       10.4731   14.5485   -6.7879 C.3       1 RES1    0.0000
     75 C75        1.8617    5.9145   14.6637 C.3       1 RES1    0.0000
     76 C76        0.3643    6.2113   14.8001 C.3       1 RES1    0.0000
     77 H1        -1.0086    7.8294    9.6406 H         1 RES1    0.0000
     78 H2         0.3573    7.6434   11.4763 H         1 RES1    0.0000
     79 H3         4.8789    8.2317   13.5712 H         1 RES1    0.0000
     80 H4         7.1091    8.6983   13.3212 H         1 RES1    0.0000
     81 H5         7.9604    9.4403   11.2613 H         1 RES1    0.0000
     82 H6         4.2940    9.4904    8.4346 H         1 RES1    0.0000
     83 H7        -0.1935    8.7573    7.6280 H         1 RES1    0.0000
     84 H8        -0.0574    7.1857    2.8359 H         1 RES1    0.0000
     85 H9         0.8556    8.3729    4.5573 H         1 RES1    0.0000
     86 H10        4.2956   11.6127    6.2131 H         1 RES1    0.0000
     87 H11        5.9712   13.1217    5.7572 H         1 RES1    0.0000
     88 H12        6.6860   13.4864    3.5449 H         1 RES1    0.0000
     89 H13        5.6914   12.3565    1.7946 H         1 RES1    0.0000
     90 H14        2.2999    9.0988    0.1601 H         1 RES1    0.0000
     91 H15        0.6524    7.5415    0.6129 H         1 RES1    0.0000
     92 H16        8.9463   12.3135    7.7530 H         1 RES1    0.0000
     93 H17        9.6990   12.0901    3.7995 H         1 RES1    0.0000
     94 H18        7.1496    8.5392    2.2886 H         1 RES1    0.0000
     95 H19        6.6003    8.5571    6.2787 H         1 RES1    0.0000
     96 H20        3.2155   10.9762   -2.8862 H         1 RES1    0.0000
     97 H21        3.9852   11.4339   -5.0635 H         1 RES1    0.0000
     98 H22        6.1688   12.0060   -5.4370 H         1 RES1    0.0000
     99 H23        6.9959   11.1603   -0.2622 H         1 RES1    0.0000
    100 H24       11.4492   12.1204    0.3644 H         1 RES1    0.0000
    101 H25       12.1645   12.9536   -1.6955 H         1 RES1    0.0000
    102 H26       10.9301   13.2629    7.8765 H         1 RES1    0.0000
    103 H27       11.9774   14.2016    7.1127 H         1 RES1    0.0000
    104 H28       11.9606   12.6282    6.8291 H         1 RES1    0.0000
    105 H29       11.7049   13.1235    4.3743 H         1 RES1    0.0000
    106 H30       11.7708   14.6754    4.7616 H         1 RES1    0.0000
    107 H31       10.5452   14.1176    3.8971 H         1 RES1    0.0000
    108 H32        8.9081   14.9990    5.4599 H         1 RES1    0.0000
    109 H33       10.0752   15.6248    6.3579 H         1 RES1    0.0000
    110 H34        8.9826   14.6611    7.0227 H         1 RES1    0.0000
    111 H35        7.3156    6.2399    2.7292 H         1 RES1    0.0000
    112 H36        6.5052    5.0992    3.5068 H         1 RES1    0.0000
    113 H37        7.7247    5.8466    4.2249 H         1 RES1    0.0000
    114 H38        4.1895    7.7829    3.4885 H         1 RES1    0.0000
    115 H39        4.4485    6.2882    2.9777 H         1 RES1    0.0000
    116 H40        5.2161    7.5111    2.2901 H         1 RES1    0.0000
    117 H41        6.1327    6.4419    6.1079 H         1 RES1    0.0000
    118 H42        4.9760    5.6785    5.3074 H         1 RES1    0.0000
    119 H43        4.7649    7.1982    5.7648 H         1 RES1    0.0000
    120 H44        9.6574   12.4047   -5.1290 H         1 RES1    0.0000
    121 H45        8.2249   12.0543   -5.7496 H         1 RES1    0.0000
    122 H46        8.8936   14.5967   -4.6351 H         1 RES1    0.0000
    123 H47        7.4783   14.2445   -5.2891 H         1 RES1    0.0000
    124 H48        1.4143    8.1566   13.1535 H         1 RES1    0.0000
    125 H49        2.8560    8.3425   13.8213 H         1 RES1    0.0000
    126 H50        3.4047    6.0969   13.2785 H         1 RES1    0.0000
    127 H51        1.9761    5.9091   12.5848 H         1 RES1    0.0000
    128 H52       10.7745   12.9483   -3.5312 H         1 RES1    0.0000
    129 H53        8.6170   13.9030   -7.3947 H         1 RES1    0.0000
    130 H54        8.6128   15.4210   -6.8916 H         1 RES1    0.0000
    131 H55       10.8267   15.1689   -6.1170 H         1 RES1    0.0000
    132 H56       10.7419   14.8488   -7.6829 H         1 RES1    0.0000
    133 H57       10.8311   13.6509   -6.6248 H         1 RES1    0.0000
    134 H58        2.0064    4.9401   14.7636 H         1 RES1    0.0000
    135 H59        2.3458    6.3686   15.3978 H         1 RES1    0.0000
    136 H60        0.2321    7.1732   14.9297 H         1 RES1    0.0000
    137 H61        0.0042    5.7250   15.5732 H         1 RES1    0.0000
    138 H62       -0.1013    5.9234   13.9875 H         1 RES1    0.0000
@<TRIPOS>BOND
     1    1    2 ar
     2    2    3 ar
     3    3    4 ar
     4    4    5 ar
     5    5    6 ar
     6    6    7 ar
     7    7    8 ar
     8    8    9 ar
     9    9   10 ar
    10   10    5 ar
    11   11   10 ar
    12   12    3 ar
    13   13   12 ar
    14   14    1 ar
    15   15   13 1
    16   16   15 3
    17   17   18 ar
    18   18   19 ar
    19   19   20 ar
    20   20   16 1
    21   21   20 ar
    22   22   21 ar
    23   23   22 ar
    24   24   23 ar
    25   25   24 ar
    26   26   21 ar
    27   27   26 ar
    28   28   19 ar
    29   29   28 ar
    30   30   17 ar
    31   31    9 1
    32   32   31 3
    33   33   32 1
    34   34   33 ar
    35   35   34 ar
    36   36   35 ar
    37   37   36 ar
    38   38   37 ar
    39   39   38 ar
    40   40   39 ar
    41   41   40 ar
    42   42   33 ar
    43   43   27 1
    44   44   43 3
    45   45   38 1
    46   46   45 3
    47   47   44 1
    48   48   47 ar
    49   49   48 ar
    50   50   49 ar
    51   51   50 ar
    52   52   47 ar
    53   53   52 ar
    54   54   53 ar
    55   55   46 1
    56   56   55 ar
    57   57   56 ar
    58   58   54 ar
    59   59   51 ar
    60   60   35 1
    61   61   60 1
    62   62   60 1
    63   63   60 1
    64   64   40 1
    65   65   64 1
    66   66   64 1
    67   67   64 1
    68   68   59 1
    69   69   68 1
    70   70    4 1
    71   71   70 1
    72   72   57 ar
    73   73   69 1
    74   74   73 1
    75   75   71 1
    76   76   75 1
    77   77    1 1
    78   78    2 1
    79   79    6 1
    80   80    7 1
    81   81    8 1
    82   82   11 1
    83   83   14 1
    84   84   17 1
    85   85   18 1
    86   86   22 1
    87   87   23 1
    88   88   24 1
    89   89   25 1
    90   90   29 1
    91   91   30 1
    92   92   34 1
    93   93   36 1
    94   94   39 1
    95   95   41 1
    96   96   48 1
    97   97   49 1
    98   98   50 1
    99   99   53 1
   100  100   56 1
   101  101   57 1
   102  102   61 1
   103  103   61 1
   104  104   61 1
   105  105   62 1
   106  106   62 1
   107  107   62 1
   108  108   63 1
   109  109   63 1
   110  110   63 1
   111  111   65 1
   112  112   65 1
   113  113   65 1
   114  114   66 1
   115  115   66 1
   116  116   66 1
   117  117   67 1
   118  118   67 1
   119  119   67 1
   120  120   68 1
   121  121   68 1
   122  122   69 1
   123  123   69 1
   124  124   70 1
   125  125   70 1
   126  126   71 1
   127  127   71 1
   128  128   72 1
   129  129   73 1
   130  130   73 1
   131  131   74 1
   132  132   74 1
   133  133   74 1
   134  134   75 1
   135  135   75 1
   136  136   76 1
   137  137   76 1
   138  138   76 1
   139   11   12 ar
   140   13   14 ar
   141   25   26 ar
   142   27   28 ar
   143   29   30 ar
   144   37   42 ar
   145   41   42 ar
   146   51   52 ar
   147   54   55 ar
   148   58   59 ar
   149   58   72 ar
@<TRIPOS>SUBSTRUCTURE
     1 RES1 1

@<TRIPOS>CRYSIN
  10.0682   17.8794   15.8106  90.0000 105.3460  90.0000   4 1

