# MOL2 file generated by ConQuest
# Please check atom types

@<TRIPOS>MOLECULE
GUQLEK
   108   118     1
SMALL
NO_CHARGES
****
Generated from CSD

@<TRIPOS>ATOM
      1 C1         3.7986   -5.3235   10.5921 C.ar      1 RES1    0.0000
      2 C2         4.6295   -4.7085    9.6840 C.ar      1 RES1    0.0000
      3 H1         5.1558   -3.9038    9.9657 H         1 RES1    0.0000
      4 C3         4.7580   -5.2219    8.3731 C.ar      1 RES1    0.0000
      5 H2         5.3775   -4.7576    7.7339 H         1 RES1    0.0000
      6 C4         4.0610   -6.3253    7.9821 C.ar      1 RES1    0.0000
      7 H3         4.1526   -6.6641    7.0452 H         1 RES1    0.0000
      8 C5         3.1749   -7.0097    8.8753 C.ar      1 RES1    0.0000
      9 C6         2.4394   -8.1508    8.4799 C.ar      1 RES1    0.0000
     10 C7         1.5651   -8.7776    9.3965 C.ar      1 RES1    0.0000
     11 C8         0.7537   -9.9056    9.0402 C.ar      1 RES1    0.0000
     12 H4         0.7991  -10.2283    8.1136 H         1 RES1    0.0000
     13 C9        -0.0671  -10.5069    9.9440 C.ar      1 RES1    0.0000
     14 H5        -0.6029  -11.2931    9.6647 H         1 RES1    0.0000
     15 C10       -0.1390  -10.0317   11.2728 C.ar      1 RES1    0.0000
     16 H6        -0.7454  -10.4951   11.9263 H         1 RES1    0.0000
     17 C11        0.5963   -8.9455   11.6804 C.ar      1 RES1    0.0000
     18 C12        1.4662   -8.2680   10.7432 C.ar      1 RES1    0.0000
     19 C13        2.2062   -7.1504   11.1190 C.ar      1 RES1    0.0000
     20 H7         2.1318   -6.8084   12.0619 H         1 RES1    0.0000
     21 C14        3.0470   -6.5001   10.2138 C.ar      1 RES1    0.0000
     22 C15        0.4972   -8.4958   13.0433 C.1       1 RES1    0.0000
     23 C16        0.3801   -8.1895   14.1996 C.1       1 RES1    0.0000
     24 C17        0.2863   -7.8788   15.5983 C.ar      1 RES1    0.0000
     25 C18        0.8296   -8.7829   16.5426 C.ar      1 RES1    0.0000
     26 C19        1.4151  -10.0288   16.1534 C.ar      1 RES1    0.0000
     27 H8         1.4244  -10.2198   15.2021 H         1 RES1    0.0000
     28 C20        1.9124  -10.8947   17.0727 C.ar      1 RES1    0.0000
     29 H9         2.3180  -11.7576   16.7614 H         1 RES1    0.0000
     30 C21        1.8837  -10.5734   18.4546 C.ar      1 RES1    0.0000
     31 H10        2.2392  -11.2289   19.1233 H         1 RES1    0.0000
     32 C22        1.3524   -9.3931   18.8711 C.ar      1 RES1    0.0000
     33 H11        1.3172   -9.1732   19.8419 H         1 RES1    0.0000
     34 C23        0.8053   -8.4549   17.9375 C.ar      1 RES1    0.0000
     35 C24        0.2551   -7.2171   18.3551 C.ar      1 RES1    0.0000
     36 C25       -0.3621   -6.3531   17.4190 C.ar      1 RES1    0.0000
     37 C26       -1.0173   -5.1490   17.8277 C.ar      1 RES1    0.0000
     38 H12       -1.0104   -4.9432   18.8250 H         1 RES1    0.0000
     39 C27       -1.6447   -4.3476   16.9222 C.ar      1 RES1    0.0000
     40 H13       -2.1328   -3.5388   17.2197 H         1 RES1    0.0000
     41 C28       -1.6322   -4.6776   15.5449 C.ar      1 RES1    0.0000
     42 H14       -2.0855   -4.1015   14.8984 H         1 RES1    0.0000
     43 C29       -0.9938   -5.7978   15.1075 C.ar      1 RES1    0.0000
     44 H15       -0.9827   -6.0237   14.1256 H         1 RES1    0.0000
     45 C30       -0.3488   -6.6873   16.0251 C.ar      1 RES1    0.0000
     46 C31        0.3773   -6.8308   19.7283 C.1       1 RES1    0.0000
     47 C32        0.5968   -6.5378   20.8719 C.1       1 RES1    0.0000
     48 C33        0.8925   -6.2392   22.2448 C.ar      1 RES1    0.0000
     49 C34        0.5113   -7.1282   23.2230 C.ar      1 RES1    0.0000
     50 H16        0.0187   -7.9423   22.9849 H         1 RES1    0.0000
     51 C35        0.8072   -6.8583   24.5805 C.ar      1 RES1    0.0000
     52 H17        0.4855   -7.5081   25.2845 H         1 RES1    0.0000
     53 C36        1.4508   -5.7121   24.9433 C.ar      1 RES1    0.0000
     54 H18        1.6266   -5.5156   25.9082 H         1 RES1    0.0000
     55 C37        1.8792   -4.7408   23.9782 C.ar      1 RES1    0.0000
     56 C38        2.5537   -3.5477   24.3326 C.ar      1 RES1    0.0000
     57 C39        2.9397   -2.6363   23.3190 C.ar      1 RES1    0.0000
     58 C40        3.6293   -1.4119   23.6151 C.ar      1 RES1    0.0000
     59 H19        3.8763   -1.2018   24.5740 H         1 RES1    0.0000
     60 C41        3.9841   -0.5414   22.6329 C.ar      1 RES1    0.0000
     61 H20        4.4609    0.2753   22.8764 H         1 RES1    0.0000
     62 C42        3.6932   -0.8174   21.2827 C.ar      1 RES1    0.0000
     63 H21        3.9805   -0.1892   20.5551 H         1 RES1    0.0000
     64 C43        3.0466   -1.9803   20.9229 C.ar      1 RES1    0.0000
     65 C44        2.6439   -2.9261   21.9430 C.ar      1 RES1    0.0000
     66 C45        1.9856   -4.1123   21.6100 C.ar      1 RES1    0.0000
     67 H22        1.7696   -4.2871   20.6473 H         1 RES1    0.0000
     68 C46        1.5930   -5.0231   22.5938 C.ar      1 RES1    0.0000
     69 C47        2.8781   -2.2904   19.5344 C.1       1 RES1    0.0000
     70 C48        2.8997   -2.5795   18.3695 C.1       1 RES1    0.0000
     71 C49        3.0272   -2.9902   17.0025 C.ar      1 RES1    0.0000
     72 C50        3.9292   -2.3455   16.1483 C.ar      1 RES1    0.0000
     73 H23        4.4619   -1.5657   16.4929 H         1 RES1    0.0000
     74 C51        4.1161   -2.7998   14.8534 C.ar      1 RES1    0.0000
     75 H24        4.7720   -2.3600   14.2422 H         1 RES1    0.0000
     76 C52        3.4012   -3.9038   14.3797 C.ar      1 RES1    0.0000
     77 C53        2.4980   -4.5461   15.2309 C.ar      1 RES1    0.0000
     78 H25        2.0117   -5.3834   14.8849 H         1 RES1    0.0000
     79 C54        2.3165   -4.0973   16.5236 C.ar      1 RES1    0.0000
     80 H26        1.7021   -4.5624   17.1410 H         1 RES1    0.0000
     81 C55        3.5741   -4.3818   13.0381 C.1       1 RES1    0.0000
     82 C56        3.6802   -4.8053   11.9201 C.1       1 RES1    0.0000
     83 C57        2.8763   -3.2064   25.7753 C.3       1 RES1    0.0000
     84 H27        2.2565   -3.7013   26.3502 H         1 RES1    0.0000
     85 H28        2.6827   -2.2072   25.9190 H         1 RES1    0.0000
     86 C58        4.3234   -3.5029   26.2113 C.3       1 RES1    0.0000
     87 H29        4.9867   -2.9797   25.6343 H         1 RES1    0.0000
     88 H30        4.4733   -3.1544   27.1935 H         1 RES1    0.0000
     89 C59        4.6822   -4.9833   26.1742 C.3       1 RES1    0.0000
     90 H31        4.7277   -5.2937   25.1950 H         1 RES1    0.0000
     91 H32        3.9137   -5.5180   26.6186 H         1 RES1    0.0000
     92 C60        6.0046   -5.3140   26.8643 C.3       1 RES1    0.0000
     93 H33        6.7657   -4.7928   26.4180 H         1 RES1    0.0000
     94 H34        6.2782   -6.3281   26.7027 H         1 RES1    0.0000
     95 H35        5.9445   -5.0948   27.9013 H         1 RES1    0.0000
     96 C61        2.5809   -8.6595    7.0639 C.3       1 RES1    0.0000
     97 H36        3.5467   -8.5669    6.7848 H         1 RES1    0.0000
     98 H37        2.3768   -9.6644    7.0289 H         1 RES1    0.0000
     99 C62        1.7297   -7.8814    6.0581 C.3       1 RES1    0.0000
    100 H38        0.7392   -8.1266    6.2072 H         1 RES1    0.0000
    101 H39        1.7901   -6.8120    6.1937 H         1 RES1    0.0000
    102 C63        2.1449   -8.1497    4.6141 C.3       1 RES1    0.0000
    103 H40        3.1411   -7.8598    4.5042 H         1 RES1    0.0000
    104 H41        2.0780   -9.1926    4.4717 H         1 RES1    0.0000
    105 C64        1.3272   -7.3129    3.6370 C.3       1 RES1    0.0000
    106 H42        0.3593   -7.5433    3.7449 H         1 RES1    0.0000
    107 H43        1.5405   -7.5069    2.7009 H         1 RES1    0.0000
    108 H44        1.3213   -6.2093    4.2032 H         1 RES1    0.0000
@<TRIPOS>BOND
     1    1    2 ar
     2    2    3 1
     3    4    2 ar
     4    5    4 1
     5    6    4 ar
     6    7    6 1
     7    8    6 ar
     8    9    8 ar
     9   10    9 ar
    10   11   10 ar
    11   12   11 1
    12   13   11 ar
    13   14   13 1
    14   15   13 ar
    15   16   15 1
    16   17   15 ar
    17   18   10 ar
    18   19   18 ar
    19   20   19 1
    20   21    1 ar
    21   22   17 1
    22   23   22 3
    23   24   23 1
    24   25   24 ar
    25   26   25 ar
    26   27   26 1
    27   28   26 ar
    28   29   28 1
    29   30   28 ar
    30   31   30 1
    31   32   30 ar
    32   33   32 1
    33   34   25 ar
    34   35   34 ar
    35   36   35 ar
    36   37   36 ar
    37   38   37 1
    38   39   37 ar
    39   40   39 1
    40   41   39 ar
    41   42   41 1
    42   43   41 ar
    43   44   43 1
    44   45   24 ar
    45   46   35 1
    46   47   46 3
    47   48   47 1
    48   49   48 ar
    49   50   49 1
    50   51   49 ar
    51   52   51 1
    52   53   51 ar
    53   54   53 1
    54   55   53 ar
    55   56   55 ar
    56   57   56 ar
    57   58   57 ar
    58   59   58 1
    59   60   58 ar
    60   61   60 1
    61   62   60 ar
    62   63   62 1
    63   64   62 ar
    64   65   57 ar
    65   66   65 ar
    66   67   66 1
    67   68   48 ar
    68   69   64 1
    69   70   69 3
    70   71   70 1
    71   72   71 ar
    72   73   72 1
    73   74   72 ar
    74   75   74 1
    75   76   74 ar
    76   77   76 ar
    77   78   77 1
    78   79   71 ar
    79   80   79 1
    80   81   76 1
    81   82    1 1
    82   83   56 1
    83   84   83 1
    84   85   83 1
    85   86   83 1
    86   87   86 1
    87   88   86 1
    88   89   86 1
    89   90   89 1
    90   91   89 1
    91   92   89 1
    92   93   92 1
    93   94   92 1
    94   95   92 1
    95   96    9 1
    96   97   96 1
    97   98   96 1
    98   99   96 1
    99  100   99 1
   100  101   99 1
   101  102   99 1
   102  103  102 1
   103  104  102 1
   104  105  102 1
   105  106  105 1
   106  107  105 1
   107  108  105 1
   108    8   21 ar
   109   17   18 ar
   110   19   21 ar
   111   32   34 ar
   112   36   45 ar
   113   43   45 ar
   114   55   68 ar
   115   64   65 ar
   116   66   68 ar
   117   77   79 ar
   118   81   82 3
@<TRIPOS>SUBSTRUCTURE
     1 RES1 1

@<TRIPOS>CRYSIN
  13.1251   12.1275   27.4773  90.0000  99.2810  90.0000 231 1

