# MOL2 file generated by ConQuest
# Please check atom types

@<TRIPOS>MOLECULE
GUQPOZ
    26    29     1
SMALL
NO_CHARGES
****
Generated from CSD

@<TRIPOS>ATOM
      1 C1         2.9482    1.2357   10.5345 C.ar      1 RES1    0.0000
      2 H1         2.0972    1.6507   10.6153 H         1 RES1    0.0000
      3 C2         3.1625    0.3149    9.5307 C.ar      1 RES1    0.0000
      4 H2         2.4521    0.0896    8.9416 H         1 RES1    0.0000
      5 C3         4.3977   -0.2840    9.3707 C.ar      1 RES1    0.0000
      6 H3         4.5282   -0.9167    8.6735 H         1 RES1    0.0000
      7 C4         5.4574    0.0335   10.2268 C.ar      1 RES1    0.0000
      8 C5         6.7601   -0.5418   10.0831 C.ar      1 RES1    0.0000
      9 H4         6.9195   -1.1617    9.3810 H         1 RES1    0.0000
     10 C6         7.7647   -0.2255   10.9196 C.ar      1 RES1    0.0000
     11 H5         8.6176   -0.6243   10.7945 H         1 RES1    0.0000
     12 C7         7.5741    0.6995   11.9938 C.ar      1 RES1    0.0000
     13 C8         8.5975    1.0530   12.8729 C.ar      1 RES1    0.0000
     14 H6         9.4587    0.6672   12.7641 H         1 RES1    0.0000
     15 C9         8.3843    1.9499   13.8948 C.ar      1 RES1    0.0000
     16 H7         9.0955    2.1717   14.4842 H         1 RES1    0.0000
     17 C10        7.1431    2.5282   14.0664 C.ar      1 RES1    0.0000
     18 H8         7.0102    3.1460   14.7749 H         1 RES1    0.0000
     19 C11        6.0801    2.2192   13.2136 C.ar      1 RES1    0.0000
     20 C12        4.7810    2.8016   13.3507 C.ar      1 RES1    0.0000
     21 H9         4.6222    3.4202   14.0542 H         1 RES1    0.0000
     22 C13        3.7808    2.4953   12.5107 C.ar      1 RES1    0.0000
     23 H10        2.9314    2.9029   12.6327 H         1 RES1    0.0000
     24 C14        3.9626    1.5671   11.4327 C.ar      1 RES1    0.0000
     25 C15        5.2342    0.9538   11.2763 C.ar      1 RES1    0.0000
     26 C16        6.2942    1.2858   12.1680 C.ar      1 RES1    0.0000
@<TRIPOS>BOND
     1    1    2 1
     2    3    1 ar
     3    4    3 1
     4    5    3 ar
     5    6    5 1
     6    7    5 ar
     7    8    7 ar
     8    9    8 1
     9   10    8 ar
    10   11   10 1
    11   12   10 ar
    12   13   12 ar
    13   14   13 1
    14   15   13 ar
    15   16   15 1
    16   17   15 ar
    17   18   17 1
    18   19   17 ar
    19   20   19 ar
    20   21   20 1
    21   22   20 ar
    22   23   22 1
    23   24    1 ar
    24   25    7 ar
    25   26   12 ar
    26   19   26 ar
    27   22   24 ar
    28   24   25 ar
    29   25   26 ar
@<TRIPOS>SUBSTRUCTURE
     1 RES1 1

@<TRIPOS>CRYSIN
   8.3688    9.1400   13.4870  90.0000 100.2340  90.0000  14 1

