# MOL2 file generated by ConQuest
# Please check atom types

@<TRIPOS>MOLECULE
GUQZUP
    72    84     1
SMALL
NO_CHARGES
****
Generated from CSD

@<TRIPOS>ATOM
      1 C1         8.8027   -0.2212    7.9553 C.ar      1 RES1    0.0000
      2 C2         7.4858   -0.1308    7.4857 C.ar      1 RES1    0.0000
      3 C3         6.4168    0.1950    8.3946 C.ar      1 RES1    0.0000
      4 C4         5.0681    0.3473    7.9075 C.ar      1 RES1    0.0000
      5 C5         4.0453    0.7159    8.7864 C.ar      1 RES1    0.0000
      6 C6         4.2587    0.5201   10.2079 C.ar      1 RES1    0.0000
      7 C7         3.1865    0.3560   11.1184 C.ar      1 RES1    0.0000
      8 H1         2.2987    0.5304   10.8288 H         1 RES1    0.0000
      9 C8         3.4049   -0.0507   12.4135 C.ar      1 RES1    0.0000
     10 H2         2.6716   -0.1308   13.0125 H         1 RES1    0.0000
     11 C9         4.6921   -0.3449   12.8528 C.ar      1 RES1    0.0000
     12 H3         4.8346   -0.6517   13.7404 H         1 RES1    0.0000
     13 C10        5.7537   -0.1903   11.9974 C.ar      1 RES1    0.0000
     14 H4         6.6283   -0.4020   12.3014 H         1 RES1    0.0000
     15 C11        5.5751    0.2759   10.6760 C.ar      1 RES1    0.0000
     16 C12        6.6840    0.3441    9.7553 C.ar      1 RES1    0.0000
     17 C13        8.0483    0.5978   10.1641 C.ar      1 RES1    0.0000
     18 C14        8.3405    1.2408   11.3875 C.ar      1 RES1    0.0000
     19 H5         7.6350    1.4191   11.9977 H         1 RES1    0.0000
     20 C15        9.6195    1.6142   11.7153 C.ar      1 RES1    0.0000
     21 H6         9.7983    2.0169   12.5562 H         1 RES1    0.0000
     22 C16       10.6551    1.3993   10.8055 C.ar      1 RES1    0.0000
     23 H7        11.5394    1.6705   11.0234 H         1 RES1    0.0000
     24 C17       10.4037    0.7984    9.5977 C.ar      1 RES1    0.0000
     25 H8        11.1158    0.6794    8.9811 H         1 RES1    0.0000
     26 C18        9.1059    0.3528    9.2520 C.ar      1 RES1    0.0000
     27 C19        9.7726   -0.9149    7.1395 C.ar      1 RES1    0.0000
     28 C20       10.9608   -1.4628    7.6776 C.ar      1 RES1    0.0000
     29 H9        11.1794   -1.2852    8.5850 H         1 RES1    0.0000
     30 C21       11.8047   -2.2397    6.9324 C.ar      1 RES1    0.0000
     31 H10       12.6149   -2.5608    7.3111 H         1 RES1    0.0000
     32 C22        2.8052    1.2083    8.2203 C.ar      1 RES1    0.0000
     33 C23        1.9482    2.0621    8.9383 C.ar      1 RES1    0.0000
     34 H11        2.1729    2.3000    9.8308 H         1 RES1    0.0000
     35 C24        0.7957    2.5616    8.3845 C.ar      1 RES1    0.0000
     36 H12        0.2256    3.1237    8.8957 H         1 RES1    0.0000
     37 C1B        3.4658    0.2212    6.0426 C.ar      1 RES1    0.0000
     38 C2B        4.7827    0.1308    6.5123 C.ar      1 RES1    0.0000
     39 C3B        5.8516   -0.1950    5.6034 C.ar      1 RES1    0.0000
     40 C4B        7.2004   -0.3473    6.0905 C.ar      1 RES1    0.0000
     41 C5B        8.2231   -0.7159    5.2116 C.ar      1 RES1    0.0000
     42 C6B        8.0097   -0.5201    3.7901 C.ar      1 RES1    0.0000
     43 C7B        9.0819   -0.3560    2.8795 C.ar      1 RES1    0.0000
     44 H1B        9.9697   -0.5304    3.1691 H         1 RES1    0.0000
     45 C8B        8.8636    0.0507    1.5844 C.ar      1 RES1    0.0000
     46 H2B        9.5969    0.1308    0.9855 H         1 RES1    0.0000
     47 C9B        7.5764    0.3449    1.1452 C.ar      1 RES1    0.0000
     48 H3B        7.4339    0.6517    0.2576 H         1 RES1    0.0000
     49 C10B       6.5148    0.1903    2.0006 C.ar      1 RES1    0.0000
     50 H4B        5.6401    0.4020    1.6966 H         1 RES1    0.0000
     51 C11B       6.6933   -0.2759    3.3220 C.ar      1 RES1    0.0000
     52 C12B       5.5845   -0.3441    4.2426 C.ar      1 RES1    0.0000
     53 C13B       4.2201   -0.5978    3.8339 C.ar      1 RES1    0.0000
     54 C14B       3.9279   -1.2408    2.6105 C.ar      1 RES1    0.0000
     55 H5B        4.6335   -1.4191    2.0003 H         1 RES1    0.0000
     56 C15B       2.6490   -1.6142    2.2826 C.ar      1 RES1    0.0000
     57 H6B        2.4701   -2.0169    1.4418 H         1 RES1    0.0000
     58 C16B       1.6134   -1.3993    3.1925 C.ar      1 RES1    0.0000
     59 H7B        0.7291   -1.6705    2.9746 H         1 RES1    0.0000
     60 C17B       1.8647   -0.7984    4.4003 C.ar      1 RES1    0.0000
     61 H8B        1.1527   -0.6794    5.0169 H         1 RES1    0.0000
     62 C18B       3.1626   -0.3528    4.7460 C.ar      1 RES1    0.0000
     63 C19B       2.4959    0.9149    6.8584 C.ar      1 RES1    0.0000
     64 C20B       1.3077    1.4628    6.3204 C.ar      1 RES1    0.0000
     65 H9B        1.0891    1.2852    5.4130 H         1 RES1    0.0000
     66 C21B       0.4637    2.2397    7.0656 C.ar      1 RES1    0.0000
     67 H10B      -0.3464    2.5608    6.6868 H         1 RES1    0.0000
     68 C22B       9.4632   -1.2083    5.7777 C.ar      1 RES1    0.0000
     69 C23B      10.3202   -2.0621    5.0597 C.ar      1 RES1    0.0000
     70 H11B      10.0955   -2.3000    4.1672 H         1 RES1    0.0000
     71 C24B      11.4728   -2.5616    5.6135 C.ar      1 RES1    0.0000
     72 H12B      12.0428   -3.1237    5.1023 H         1 RES1    0.0000
@<TRIPOS>BOND
     1    1    2 ar
     2    2    3 ar
     3    3    4 ar
     4    4    5 ar
     5    5    6 ar
     6    6    7 ar
     7    7    8 1
     8    9    7 ar
     9   10    9 1
    10   11    9 ar
    11   12   11 1
    12   13   11 ar
    13   14   13 1
    14   15    6 ar
    15   16    3 ar
    16   17   16 ar
    17   18   17 ar
    18   19   18 1
    19   20   18 ar
    20   21   20 1
    21   22   20 ar
    22   23   22 1
    23   24   22 ar
    24   25   24 1
    25   26    1 ar
    26   27    1 ar
    27   28   27 ar
    28   29   28 1
    29   30   28 ar
    30   31   30 1
    31   32    5 ar
    32   33   32 ar
    33   34   33 1
    34   35   33 ar
    35   36   35 1
    36   37   38 ar
    37   38    4 ar
    38   39   38 ar
    39   40    2 ar
    40   41   40 ar
    41   42   41 ar
    42   43   42 ar
    43   44   43 1
    44   45   43 ar
    45   46   45 1
    46   47   45 ar
    47   48   47 1
    48   49   47 ar
    49   50   49 1
    50   51   42 ar
    51   52   39 ar
    52   53   52 ar
    53   54   53 ar
    54   55   54 1
    55   56   54 ar
    56   57   56 1
    57   58   56 ar
    58   59   58 1
    59   60   58 ar
    60   61   60 1
    61   62   37 ar
    62   63   32 ar
    63   64   63 ar
    64   65   64 1
    65   66   35 ar
    66   67   66 1
    67   68   27 ar
    68   69   68 ar
    69   70   69 1
    70   71   30 ar
    71   72   71 1
    72   13   15 ar
    73   15   16 ar
    74   17   26 ar
    75   24   26 ar
    76   37   63 ar
    77   39   40 ar
    78   41   68 ar
    79   49   51 ar
    80   51   52 ar
    81   53   62 ar
    82   60   62 ar
    83   64   66 ar
    84   69   71 ar
@<TRIPOS>SUBSTRUCTURE
     1 RES1 1

@<TRIPOS>CRYSIN
  12.2985    7.9282   13.9980  90.0000  90.1230  90.0000  14 1

