# MOL2 file generated by ConQuest
# Please check atom types

@<TRIPOS>MOLECULE
GUWHEN
    56    63     1
SMALL
NO_CHARGES
****
Generated from CSD

@<TRIPOS>ATOM
      1 C1         5.8176    3.4908    2.8998 C.2       1 RES1    0.0000
      2 C2         4.8610    4.3440    3.5454 C.ar      1 RES1    0.0000
      3 C3         3.7091    4.0084    4.2896 C.ar      1 RES1    0.0000
      4 H1         3.5218    3.1004    4.4935 H         1 RES1    0.0000
      5 C4         2.8659    4.9965    4.7149 C.ar      1 RES1    0.0000
      6 H2         2.1328    4.7766    5.2788 H         1 RES1    0.0000
      7 C5         3.0706    6.3512    4.3249 C.ar      1 RES1    0.0000
      8 C6         2.1021    7.3369    4.6290 C.ar      1 RES1    0.0000
      9 H3         1.3721    7.1182    5.1953 H         1 RES1    0.0000
     10 C7         2.2040    8.6005    4.1182 C.ar      1 RES1    0.0000
     11 H4         1.5488    9.2532    4.3369 H         1 RES1    0.0000
     12 C8         3.2729    8.9387    3.2709 C.ar      1 RES1    0.0000
     13 H5         3.3227    9.8119    2.8998 H         1 RES1    0.0000
     14 C9         4.2418    8.0215    2.9762 C.ar      1 RES1    0.0000
     15 H6         4.9500    8.2637    2.3917 H         1 RES1    0.0000
     16 C10        4.2086    6.7071    3.5304 C.ar      1 RES1    0.0000
     17 C11        5.1716    5.6936    3.2552 C.ar      1 RES1    0.0000
     18 C12        5.8176    2.0187    2.8998 C.ar      1 RES1    0.0000
     19 C13        5.7266    1.3002    1.6736 C.ar      1 RES1    0.0000
     20 C14        5.5548    1.9526    0.4144 C.ar      1 RES1    0.0000
     21 H7         5.4906    2.9004    0.3839 H         1 RES1    0.0000
     22 C15        5.4806    1.2359   -0.7454 C.ar      1 RES1    0.0000
     23 H8         5.3721    1.6922   -1.5717 H         1 RES1    0.0000
     24 C16        5.5618   -0.1770   -0.7352 C.ar      1 RES1    0.0000
     25 H9         5.5376   -0.6627   -1.5508 H         1 RES1    0.0000
     26 C17        5.6738   -0.8329    0.4444 C.ar      1 RES1    0.0000
     27 H10        5.7073   -1.7829    0.4442 H         1 RES1    0.0000
     28 C18        5.7435   -0.1340    1.6870 C.ar      1 RES1    0.0000
     29 C19        5.8176   -0.8089    2.8998 C.ar      1 RES1    0.0000
     30 H11        5.8176   -1.7589    2.8998 H         1 RES1    0.0000
     31 C2A        6.7742    4.3440    2.2542 C.ar      1 RES1    0.0000
     32 C3A        7.9261    4.0084    1.5100 C.ar      1 RES1    0.0000
     33 H1A        8.1134    3.1004    1.3061 H         1 RES1    0.0000
     34 C4A        8.7692    4.9965    1.0846 C.ar      1 RES1    0.0000
     35 H2A        9.5024    4.7766    0.5208 H         1 RES1    0.0000
     36 C5A        8.5646    6.3512    1.4747 C.ar      1 RES1    0.0000
     37 C6A        9.5331    7.3369    1.1706 C.ar      1 RES1    0.0000
     38 H3A       10.2631    7.1182    0.6043 H         1 RES1    0.0000
     39 C7A        9.4312    8.6005    1.6814 C.ar      1 RES1    0.0000
     40 H4A       10.0864    9.2532    1.4627 H         1 RES1    0.0000
     41 C8A        8.3623    8.9387    2.5287 C.ar      1 RES1    0.0000
     42 H5A        8.3125    9.8119    2.8998 H         1 RES1    0.0000
     43 C9A        7.3934    8.0215    2.8234 C.ar      1 RES1    0.0000
     44 H6A        6.6852    8.2637    3.4078 H         1 RES1    0.0000
     45 C10A       7.4266    6.7071    2.2691 C.ar      1 RES1    0.0000
     46 C11A       6.4636    5.6936    2.5444 C.ar      1 RES1    0.0000
     47 C13A       5.9086    1.3002    4.1259 C.ar      1 RES1    0.0000
     48 C14A       6.0804    1.9526    5.3851 C.ar      1 RES1    0.0000
     49 H7A        6.1445    2.9004    5.4157 H         1 RES1    0.0000
     50 C15A       6.1546    1.2359    6.5450 C.ar      1 RES1    0.0000
     51 H8A        6.2631    1.6922    7.3713 H         1 RES1    0.0000
     52 C16A       6.0733   -0.1770    6.5347 C.ar      1 RES1    0.0000
     53 H9A        6.0975   -0.6627    7.3504 H         1 RES1    0.0000
     54 C17A       5.9613   -0.8329    5.3552 C.ar      1 RES1    0.0000
     55 H10A       5.9279   -1.7829    5.3553 H         1 RES1    0.0000
     56 C18A       5.8917   -0.1340    4.1126 C.ar      1 RES1    0.0000
@<TRIPOS>BOND
     1    1    2 1
     2    2    3 ar
     3    3    4 1
     4    5    3 ar
     5    6    5 1
     6    7    5 ar
     7    8    7 ar
     8    9    8 1
     9   10    8 ar
    10   11   10 1
    11   12   10 ar
    12   13   12 1
    13   14   12 ar
    14   15   14 1
    15   16    7 ar
    16   17    2 ar
    17   18    1 1
    18   19   18 ar
    19   20   19 ar
    20   21   20 1
    21   22   20 ar
    22   23   22 1
    23   24   22 ar
    24   25   24 1
    25   26   24 ar
    26   27   26 1
    27   28   19 ar
    28   29   28 ar
    29   30   29 1
    30   31    1 1
    31   32   31 ar
    32   33   32 1
    33   34   32 ar
    34   35   34 1
    35   36   34 ar
    36   37   36 ar
    37   38   37 1
    38   39   37 ar
    39   40   39 1
    40   41   39 ar
    41   42   41 1
    42   43   41 ar
    43   44   43 1
    44   45   36 ar
    45   46   17 1
    46   47   18 ar
    47   48   47 ar
    48   49   48 1
    49   50   48 ar
    50   51   50 1
    51   52   50 ar
    52   53   52 1
    53   54   52 ar
    54   55   54 1
    55   56   29 ar
    56   14   16 ar
    57   16   17 ar
    58   26   28 ar
    59   31   46 ar
    60   43   45 ar
    61   45   46 ar
    62   47   56 ar
    63   54   56 ar
@<TRIPOS>SUBSTRUCTURE
     1 RES1 1

@<TRIPOS>CRYSIN
  14.7190   13.3350   13.1370  90.0000 118.0010  90.0000  15 1

