# MOL2 file generated by ConQuest
# Please check atom types

@<TRIPOS>MOLECULE
GUWHIR
   112   126     2
SMALL
NO_CHARGES
****
Generated from CSD

@<TRIPOS>ATOM
      1 C1         1.5056    7.9950   13.7991 C.2       1 RES1    0.0000
      2 C2         1.0287    6.8741   14.5451 C.ar      1 RES1    0.0000
      3 C3         1.2662    6.4974   15.8580 C.ar      1 RES1    0.0000
      4 C4         0.7154    5.3019   16.3608 C.ar      1 RES1    0.0000
      5 C5         0.9869    4.8460   17.6659 C.ar      1 RES1    0.0000
      6 C6         0.4748    3.6702   18.1295 C.ar      1 RES1    0.0000
      7 C7        -0.3495    2.9041   17.2983 C.ar      1 RES1    0.0000
      8 C8        -0.6464    3.3032   16.0336 C.ar      1 RES1    0.0000
      9 C9        -0.1276    4.5108   15.5128 C.ar      1 RES1    0.0000
     10 C10       -0.3865    4.9325   14.1788 C.ar      1 RES1    0.0000
     11 C11        0.1757    6.0783   13.6926 C.ar      1 RES1    0.0000
     12 C12        0.1345    6.7417   12.3807 C.ar      1 RES1    0.0000
     13 C13       -0.5381    6.4803   11.2159 C.ar      1 RES1    0.0000
     14 C14       -0.3826    7.3416   10.0855 C.ar      1 RES1    0.0000
     15 C15       -1.0848    7.1294    8.8794 C.ar      1 RES1    0.0000
     16 C16       -0.9262    7.9696    7.8171 C.ar      1 RES1    0.0000
     17 C17       -0.0594    9.0719    7.8825 C.ar      1 RES1    0.0000
     18 C18        0.6439    9.3089    9.0356 C.ar      1 RES1    0.0000
     19 C19        0.4907    8.4711   10.1646 C.ar      1 RES1    0.0000
     20 C20        1.1654    8.7426   11.3824 C.ar      1 RES1    0.0000
     21 C21        0.9805    7.9032   12.4688 C.ar      1 RES1    0.0000
     22 C22        2.3638    9.0969   14.2921 C.ar      1 RES1    0.0000
     23 C23        1.8251   10.0443   15.1917 C.ar      1 RES1    0.0000
     24 C24        0.5069    9.9329   15.7425 C.ar      1 RES1    0.0000
     25 C25        0.0248   10.8774   16.5964 C.ar      1 RES1    0.0000
     26 C26        0.7992   11.9900   16.9503 C.ar      1 RES1    0.0000
     27 C27        2.0443   12.1506   16.4578 C.ar      1 RES1    0.0000
     28 C28        2.6076   11.1829   15.5636 C.ar      1 RES1    0.0000
     29 C29        3.8939   11.3293   15.0487 C.ar      1 RES1    0.0000
     30 C30        4.4624   10.3639   14.2125 C.ar      1 RES1    0.0000
     31 C31        5.8105   10.4640   13.7571 C.ar      1 RES1    0.0000
     32 C32        6.3548    9.4841   12.9839 C.ar      1 RES1    0.0000
     33 C33        5.5863    8.3533   12.6104 C.ar      1 RES1    0.0000
     34 C34        4.2970    8.2303   13.0120 C.ar      1 RES1    0.0000
     35 C35        3.6866    9.2248   13.8294 C.ar      1 RES1    0.0000
     36 H1         1.7931    7.0634   16.4217 H         1 RES1    0.0000
     37 H2         1.5457    5.3755   18.2388 H         1 RES1    0.0000
     38 H3         0.6622    3.3808   19.0296 H         1 RES1    0.0000
     39 H4        -0.7104    2.0774   17.6247 H         1 RES1    0.0000
     40 H5        -1.2095    2.7597   15.4822 H         1 RES1    0.0000
     41 H6        -0.9526    4.4094   13.6062 H         1 RES1    0.0000
     42 H7        -1.0995    5.7052   11.1637 H         1 RES1    0.0000
     43 H8        -1.6837    6.3735    8.8194 H         1 RES1    0.0000
     44 H9        -1.4253    7.8080    7.0078 H         1 RES1    0.0000
     45 H10        0.0624    9.6525    7.1284 H         1 RES1    0.0000
     46 H11        1.2445   10.0725    9.0773 H         1 RES1    0.0000
     47 H12        1.7423    9.5086   11.4525 H         1 RES1    0.0000
     48 H13       -0.0407    9.1700   15.4963 H         1 RES1    0.0000
     49 H14       -0.8758   10.7663   16.9797 H         1 RES1    0.0000
     50 H15        0.4436   12.6655   17.5434 H         1 RES1    0.0000
     51 H16        2.5614   12.9264   16.7049 H         1 RES1    0.0000
     52 H17        4.3994   12.1194   15.2803 H         1 RES1    0.0000
     53 H18        6.3398   11.2207   14.0212 H         1 RES1    0.0000
     54 H19        7.2643    9.5634   12.6696 H         1 RES1    0.0000
     55 H20        5.9883    7.6744   12.0667 H         1 RES1    0.0000
     56 H21        3.7950    7.4542   12.7537 H         1 RES1    0.0000
     57 C36       -0.5102   13.8885    6.9276 C.2       2 RES2    0.0000
     58 C37       -0.1016   15.1800    6.4290 C.ar      2 RES2    0.0000
     59 C38       -0.0418   15.6918    5.1419 C.ar      2 RES2    0.0000
     60 C39        0.4943   16.9890    4.9172 C.ar      2 RES2    0.0000
     61 C40        0.6989   17.5016    3.6133 C.ar      2 RES2    0.0000
     62 C41        1.2606   18.7309    3.4198 C.ar      2 RES2    0.0000
     63 C42        1.6014   19.5445    4.5120 C.ar      2 RES2    0.0000
     64 C43        1.4330   19.0776    5.7832 C.ar      2 RES2    0.0000
     65 C44        0.9000   17.7944    6.0322 C.ar      2 RES2    0.0000
     66 C45        0.7823   17.2646    7.3491 C.ar      2 RES2    0.0000
     67 C46        0.3159   16.0062    7.5389 C.ar      2 RES2    0.0000
     68 C47        0.1771   15.2005    8.7596 C.ar      2 RES2    0.0000
     69 C48        0.4563   15.4793   10.0602 C.ar      2 RES2    0.0000
     70 C49        0.3278   14.4620   11.0518 C.ar      2 RES2    0.0000
     71 C50        0.6135   14.6954   12.4130 C.ar      2 RES2    0.0000
     72 C51        0.4806   13.7041   13.3460 C.ar      2 RES2    0.0000
     73 C52        0.0837   12.4214   12.9593 C.ar      2 RES2    0.0000
     74 C53       -0.1855   12.1471   11.6483 C.ar      2 RES2    0.0000
     75 C54       -0.0959   13.1504   10.6575 C.ar      2 RES2    0.0000
     76 C55       -0.4201   12.8909    9.2986 C.ar      2 RES2    0.0000
     77 C56       -0.3050   13.8998    8.3595 C.ar      2 RES2    0.0000
     78 C57       -1.0309   12.7446    6.1536 C.ar      2 RES2    0.0000
     79 C58       -0.2498   12.1671    5.1152 C.ar      2 RES2    0.0000
     80 C59        1.0573   12.6241    4.7742 C.ar      2 RES2    0.0000
     81 C60        1.7535   12.0860    3.7364 C.ar      2 RES2    0.0000
     82 C61        1.2124   11.0203    2.9792 C.ar      2 RES2    0.0000
     83 C62        0.0097   10.5070    3.3096 C.ar      2 RES2    0.0000
     84 C63       -0.7642   11.0489    4.3785 C.ar      2 RES2    0.0000
     85 C64       -2.0115   10.5197    4.7142 C.ar      2 RES2    0.0000
     86 C65       -2.7926   11.0718    5.7251 C.ar      2 RES2    0.0000
     87 C66       -4.0937   10.5492    6.0213 C.ar      2 RES2    0.0000
     88 C67       -4.8773   11.1161    6.9604 C.ar      2 RES2    0.0000
     89 C68       -4.4319   12.2533    7.6562 C.ar      2 RES2    0.0000
     90 C69       -3.1948   12.7873    7.4091 C.ar      2 RES2    0.0000
     91 C70       -2.3105   12.2103    6.4475 C.ar      2 RES2    0.0000
     92 H22       -0.3678   15.1731    4.4083 H         2 RES2    0.0000
     93 H23        0.4508   16.9743    2.8547 H         2 RES2    0.0000
     94 H24        1.4421   19.0236    2.5154 H         2 RES2    0.0000
     95 H25        1.9627   20.4251    4.3522 H         2 RES2    0.0000
     96 H26        1.6746   19.6397    6.5395 H         2 RES2    0.0000
     97 H27        1.0378   17.7915    8.0987 H         2 RES2    0.0000
     98 H28        0.7526   16.3505   10.3168 H         2 RES2    0.0000
     99 H29        0.9209   15.5575   12.6976 H         2 RES2    0.0000
    100 H30        0.6593   13.8862   14.2708 H         2 RES2    0.0000
    101 H31        0.0028   11.7311   13.6286 H         2 RES2    0.0000
    102 H32       -0.4194   11.2474   11.3824 H         2 RES2    0.0000
    103 H33       -0.7179   12.0277    9.0297 H         2 RES2    0.0000
    104 H34        1.4470   13.3235    5.2972 H         2 RES2    0.0000
    105 H35        2.6200   12.4236    3.5249 H         2 RES2    0.0000
    106 H36        1.6885   10.6619    2.2238 H         2 RES2    0.0000
    107 H37       -0.3522    9.7798    2.8014 H         2 RES2    0.0000
    108 H38       -2.3287    9.7543    4.2372 H         2 RES2    0.0000
    109 H39       -4.4184    9.7810    5.5216 H         2 RES2    0.0000
    110 H40       -5.7382   10.7370    7.1648 H         2 RES2    0.0000
    111 H41       -5.0113   12.6591    8.3118 H         2 RES2    0.0000
    112 H42       -2.9152   13.5641    7.8911 H         2 RES2    0.0000
@<TRIPOS>BOND
     1    1    2 1
     2    2    3 ar
     3    3    4 ar
     4    4    5 ar
     5    5    6 ar
     6    6    7 ar
     7    7    8 ar
     8    8    9 ar
     9    9    4 ar
    10   10    9 ar
    11   11    2 ar
    12   12   11 1
    13   13   12 ar
    14   14   13 ar
    15   15   14 ar
    16   16   15 ar
    17   17   16 ar
    18   18   17 ar
    19   19   14 ar
    20   20   19 ar
    21   21    1 1
    22   22    1 1
    23   23   22 ar
    24   24   23 ar
    25   25   24 ar
    26   26   25 ar
    27   27   26 ar
    28   28   23 ar
    29   29   28 ar
    30   30   29 ar
    31   31   30 ar
    32   32   31 ar
    33   33   32 ar
    34   34   33 ar
    35   35   22 ar
    36   36    3 1
    37   37    5 1
    38   38    6 1
    39   39    7 1
    40   40    8 1
    41   41   10 1
    42   42   13 1
    43   43   15 1
    44   44   16 1
    45   45   17 1
    46   46   18 1
    47   47   20 1
    48   48   24 1
    49   49   25 1
    50   50   26 1
    51   51   27 1
    52   52   29 1
    53   53   31 1
    54   54   32 1
    55   55   33 1
    56   56   34 1
    57   57   58 1
    58   58   59 ar
    59   59   60 ar
    60   60   61 ar
    61   61   62 ar
    62   62   63 ar
    63   63   64 ar
    64   64   65 ar
    65   65   60 ar
    66   66   65 ar
    67   67   58 ar
    68   68   67 1
    69   69   68 ar
    70   70   69 ar
    71   71   70 ar
    72   72   71 ar
    73   73   72 ar
    74   74   73 ar
    75   75   70 ar
    76   76   75 ar
    77   77   57 1
    78   78   57 1
    79   79   78 ar
    80   80   79 ar
    81   81   80 ar
    82   82   81 ar
    83   83   82 ar
    84   84   79 ar
    85   85   84 ar
    86   86   85 ar
    87   87   86 ar
    88   88   87 ar
    89   89   88 ar
    90   90   89 ar
    91   91   78 ar
    92   92   59 1
    93   93   61 1
    94   94   62 1
    95   95   63 1
    96   96   64 1
    97   97   66 1
    98   98   69 1
    99   99   71 1
   100  100   72 1
   101  101   73 1
   102  102   74 1
   103  103   76 1
   104  104   80 1
   105  105   81 1
   106  106   82 1
   107  107   83 1
   108  108   85 1
   109  109   87 1
   110  110   88 1
   111  111   89 1
   112  112   90 1
   113   10   11 ar
   114   12   21 ar
   115   18   19 ar
   116   20   21 ar
   117   27   28 ar
   118   30   35 ar
   119   34   35 ar
   120   66   67 ar
   121   68   77 ar
   122   74   75 ar
   123   76   77 ar
   124   83   84 ar
   125   86   91 ar
   126   90   91 ar
@<TRIPOS>SUBSTRUCTURE
     1 RES1 1
     2 RES2 57

@<TRIPOS>CRYSIN
  12.9470   12.7291   28.2335  90.0000  96.6690  90.0000 231 1

