# MOL2 file generated by ConQuest
# Please check atom types

@<TRIPOS>MOLECULE
GUYPEW
   116   130     2
SMALL
NO_CHARGES
****
Generated from CSD

@<TRIPOS>ATOM
      1 C1         4.5759    6.1263    4.9206 C.2       1 RES1    0.0000
      2 C2         5.6349    6.9635    5.0765 C.2       1 RES1    0.0000
      3 C3         5.4326    7.6771    6.3656 C.ar      1 RES1    0.0000
      4 C4         6.2152    8.5954    7.0046 C.ar      1 RES1    0.0000
      5 C5         5.8457    9.0560    8.3027 C.ar      1 RES1    0.0000
      6 C6         6.6271   10.0039    8.9885 C.ar      1 RES1    0.0000
      7 C7         6.2952   10.4101   10.2487 C.ar      1 RES1    0.0000
      8 C8         5.1765    9.8873   10.8899 C.ar      1 RES1    0.0000
      9 C9         4.3743    8.9809   10.2531 C.ar      1 RES1    0.0000
     10 C10        4.6787    8.5381    8.9417 C.ar      1 RES1    0.0000
     11 C11        3.8674    7.5921    8.2470 C.ar      1 RES1    0.0000
     12 C12        4.2295    7.1869    6.9846 C.ar      1 RES1    0.0000
     13 C13        3.6553    6.2162    6.0361 C.2       1 RES1    0.0000
     14 C14        2.5994    5.3820    5.8958 C.2       1 RES1    0.0000
     15 C15        2.7987    4.6545    4.6111 C.ar      1 RES1    0.0000
     16 C16        2.0444    3.7106    3.9988 C.ar      1 RES1    0.0000
     17 C17        2.4304    3.1986    2.7230 C.ar      1 RES1    0.0000
     18 C18        1.6598    2.1983    2.0773 C.ar      1 RES1    0.0000
     19 C19        2.0283    1.7060    0.8550 C.ar      1 RES1    0.0000
     20 C20        3.1817    2.1983    0.2204 C.ar      1 RES1    0.0000
     21 C21        3.9333    3.1679    0.8149 C.ar      1 RES1    0.0000
     22 C22        3.5865    3.6987    2.0751 C.ar      1 RES1    0.0000
     23 C23        4.3789    4.6871    2.7386 C.ar      1 RES1    0.0000
     24 C24        4.0126    5.1379    3.9810 C.ar      1 RES1    0.0000
     25 C25        6.8366    7.0979    4.2193 C.ar      1 RES1    0.0000
     26 C26        7.3689    8.3512    3.9320 C.ar      1 RES1    0.0000
     27 C27        8.5098    8.4758    3.1639 C.ar      1 RES1    0.0000
     28 C28        9.1329    7.3598    2.6540 C.ar      1 RES1    0.0000
     29 C29        8.6175    6.1016    2.9212 C.ar      1 RES1    0.0000
     30 C30        7.4735    5.9721    3.6938 C.ar      1 RES1    0.0000
     31 C31        1.4305    5.2416    6.7887 C.ar      1 RES1    0.0000
     32 C32        0.9089    3.9952    7.0959 C.ar      1 RES1    0.0000
     33 C33       -0.1939    3.8687    7.9153 C.ar      1 RES1    0.0000
     34 C34       -0.8158    4.9856    8.4296 C.ar      1 RES1    0.0000
     35 C35       -0.3184    6.2459    8.1268 C.ar      1 RES1    0.0000
     36 C36        0.7903    6.3754    7.3097 C.ar      1 RES1    0.0000
     37 C37        4.6000    1.2019    5.0698 C.2       2 RES2    0.0000
     38 C38        5.7059    1.9650    5.2546 C.2       2 RES2    0.0000
     39 C39        5.5222    2.6737    6.5460 C.ar      2 RES2    0.0000
     40 C40        6.3174    3.6127    7.1449 C.ar      2 RES2    0.0000
     41 C41        5.9238    4.1712    8.3962 C.ar      2 RES2    0.0000
     42 C42        6.7201    5.1300    9.0508 C.ar      2 RES2    0.0000
     43 C43        6.3350    5.6617   10.2509 C.ar      2 RES2    0.0000
     44 C44        5.1479    5.2644   10.8543 C.ar      2 RES2    0.0000
     45 C45        4.3380    4.3372   10.2442 C.ar      2 RES2    0.0000
     46 C46        4.6933    3.7639    9.0041 C.ar      2 RES2    0.0000
     47 C47        3.8831    2.7953    8.3450 C.ar      2 RES2    0.0000
     48 C48        4.2868    2.2665    7.1471 C.ar      2 RES2    0.0000
     49 C49        3.6801    1.3107    6.1920 C.2       2 RES2    0.0000
     50 C50        2.5628    0.5486    6.0005 C.2       2 RES2    0.0000
     51 C51        2.7437   -0.1512    4.7024 C.ar      2 RES2    0.0000
     52 C52        1.9611   -1.0754    4.0834 C.ar      2 RES2    0.0000
     53 C53        2.3429   -1.5933    2.8076 C.ar      2 RES2    0.0000
     54 C54        1.5118   -2.4918    2.1063 C.ar      2 RES2    0.0000
     55 C55        1.8510   -2.9356    0.8617 C.ar      2 RES2    0.0000
     56 C56        3.0474   -2.5136    0.2650 C.ar      2 RES2    0.0000
     57 C57        3.8805   -1.6536    0.9262 C.ar      2 RES2    0.0000
     58 C58        3.5496   -1.1604    2.2020 C.ar      2 RES2    0.0000
     59 C59        4.3856   -0.2343    2.8900 C.ar      2 RES2    0.0000
     60 C60        3.9954    0.2590    4.1146 C.ar      2 RES2    0.0000
     61 C61        6.9084    2.0866    4.4041 C.ar      2 RES2    0.0000
     62 C62        6.8104    2.1963    3.0103 C.ar      2 RES2    0.0000
     63 C63        7.9427    2.3218    2.2221 C.ar      2 RES2    0.0000
     64 C64        9.1932    2.3535    2.8121 C.ar      2 RES2    0.0000
     65 C65        9.3096    2.2200    4.1792 C.ar      2 RES2    0.0000
     66 C66        8.1827    2.0905    4.9718 C.ar      2 RES2    0.0000
     67 C67        1.3605    0.4201    6.8399 C.ar      2 RES2    0.0000
     68 C68        1.4319    0.3064    8.2292 C.ar      2 RES2    0.0000
     69 C69        0.2802    0.1591    8.9885 C.ar      2 RES2    0.0000
     70 C70       -0.9589    0.1305    8.3740 C.ar      2 RES2    0.0000
     71 C71       -1.0477    0.2797    7.0069 C.ar      2 RES2    0.0000
     72 C72        0.0982    0.4211    6.2454 C.ar      2 RES2    0.0000
     73 H1         7.0029    8.9324    6.5794 H         1 RES1    0.0000
     74 H2         7.4002   10.3864    8.5521 H         1 RES1    0.0000
     75 H3         6.8586   11.0516   10.6985 H         1 RES1    0.0000
     76 H4         4.9558   10.1660   11.7783 H         1 RES1    0.0000
     77 H5         3.5949    8.6349   10.6895 H         1 RES1    0.0000
     78 H6         3.0791    7.2412    8.6545 H         1 RES1    0.0000
     79 H7         1.2414    3.3854    4.4263 H         1 RES1    0.0000
     80 H8         0.8756    1.8513    2.5160 H         1 RES1    0.0000
     81 H9         1.5008    1.0260    0.4364 H         1 RES1    0.0000
     82 H10        3.4381    1.8533   -0.6257 H         1 RES1    0.0000
     83 H11        4.7146    3.4951    0.3696 H         1 RES1    0.0000
     84 H12        5.1551    5.0440    2.3178 H         1 RES1    0.0000
     85 H13        6.9445    9.1361    4.2816 H         1 RES1    0.0000
     86 H14        8.8581    9.3456    2.9769 H         1 RES1    0.0000
     87 H15        9.9296    7.4587    2.1241 H         1 RES1    0.0000
     88 H16        9.0520    5.3227    2.5538 H         1 RES1    0.0000
     89 H17        7.1135    5.1023    3.8964 H         1 RES1    0.0000
     90 H18        1.3222    3.2134    6.7286 H         1 RES1    0.0000
     91 H19       -0.5308    2.9999    8.1290 H         1 RES1    0.0000
     92 H20       -1.5919    4.8848    8.9929 H         1 RES1    0.0000
     93 H21       -0.7381    7.0258    8.4942 H         1 RES1    0.0000
     94 H22        1.1205    7.2422    7.0670 H         1 RES1    0.0000
     95 H23        7.1275    3.8964    6.7241 H         2 RES2    0.0000
     96 H24        7.5352    5.4186    8.6367 H         2 RES2    0.0000
     97 H25        6.8955    6.3091   10.6740 H         2 RES2    0.0000
     98 H26        4.8997    5.6429   11.6915 H         2 RES2    0.0000
     99 H27        3.5079    4.0852   10.6695 H         2 RES2    0.0000
    100 H28        3.0554    2.5175    8.7280 H         2 RES2    0.0000
    101 H29        1.1493   -1.3690    4.5020 H         2 RES2    0.0000
    102 H30        0.7011   -2.7963    2.5093 H         2 RES2    0.0000
    103 H31        1.2706   -3.5356    0.3919 H         2 RES2    0.0000
    104 H32        3.2768   -2.8239   -0.6145 H         2 RES2    0.0000
    105 H33        4.7154   -1.3907    0.5188 H         2 RES2    0.0000
    106 H34        5.2154    0.0455    2.5071 H         2 RES2    0.0000
    107 H35        5.9440    2.1844    2.6006 H         2 RES2    0.0000
    108 H36        7.8632    2.3871    1.2691 H         2 RES2    0.0000
    109 H37        9.9763    2.4731    2.2666 H         2 RES2    0.0000
    110 H38       10.1773    2.2388    4.5822 H         2 RES2    0.0000
    111 H39        8.2749    1.9887    5.9248 H         2 RES2    0.0000
    112 H40        2.2925    0.3262    8.6567 H         2 RES2    0.0000
    113 H41        0.3418    0.0771    9.9459 H         2 RES2    0.0000
    114 H42       -1.7547    0.0099    8.8994 H         2 RES2    0.0000
    115 H43       -1.9079    0.2708    6.5883 H         2 RES2    0.0000
    116 H44        0.0260    0.5219    5.2880 H         2 RES2    0.0000
@<TRIPOS>BOND
     1    1    2 2
     2    2    3 1
     3    3    4 ar
     4    4    5 ar
     5    5    6 ar
     6    6    7 ar
     7    7    8 ar
     8    8    9 ar
     9    9   10 ar
    10   10    5 ar
    11   11   10 ar
    12   12    3 ar
    13   13    1 1
    14   14   13 2
    15   15   14 1
    16   16   15 ar
    17   17   16 ar
    18   18   17 ar
    19   19   18 ar
    20   20   19 ar
    21   21   20 ar
    22   22   17 ar
    23   23   22 ar
    24   24    1 1
    25   25    2 1
    26   26   25 ar
    27   27   26 ar
    28   28   27 ar
    29   29   28 ar
    30   30   25 ar
    31   31   14 1
    32   32   31 ar
    33   33   32 ar
    34   34   33 ar
    35   35   34 ar
    36   36   31 ar
    37   37   38 2
    38   38   39 1
    39   39   40 ar
    40   40   41 ar
    41   41   42 ar
    42   42   43 ar
    43   43   44 ar
    44   44   45 ar
    45   45   46 ar
    46   46   41 ar
    47   47   46 ar
    48   48   39 ar
    49   49   37 1
    50   50   49 2
    51   51   50 1
    52   52   51 ar
    53   53   52 ar
    54   54   53 ar
    55   55   54 ar
    56   56   55 ar
    57   57   56 ar
    58   58   53 ar
    59   59   58 ar
    60   60   37 1
    61   61   38 1
    62   62   61 ar
    63   63   62 ar
    64   64   63 ar
    65   65   64 ar
    66   66   61 ar
    67   67   50 1
    68   68   67 ar
    69   69   68 ar
    70   70   69 ar
    71   71   70 ar
    72   72   67 ar
    73   73    4 1
    74   74    6 1
    75   75    7 1
    76   76    8 1
    77   77    9 1
    78   78   11 1
    79   79   16 1
    80   80   18 1
    81   81   19 1
    82   82   20 1
    83   83   21 1
    84   84   23 1
    85   85   26 1
    86   86   27 1
    87   87   28 1
    88   88   29 1
    89   89   30 1
    90   90   32 1
    91   91   33 1
    92   92   34 1
    93   93   35 1
    94   94   36 1
    95   95   40 1
    96   96   42 1
    97   97   43 1
    98   98   44 1
    99   99   45 1
   100  100   47 1
   101  101   52 1
   102  102   54 1
   103  103   55 1
   104  104   56 1
   105  105   57 1
   106  106   59 1
   107  107   62 1
   108  108   63 1
   109  109   64 1
   110  110   65 1
   111  111   66 1
   112  112   68 1
   113  113   69 1
   114  114   70 1
   115  115   71 1
   116  116   72 1
   117   11   12 ar
   118   12   13 1
   119   15   24 ar
   120   21   22 ar
   121   23   24 ar
   122   29   30 ar
   123   35   36 ar
   124   47   48 ar
   125   48   49 1
   126   51   60 ar
   127   57   58 ar
   128   59   60 ar
   129   65   66 ar
   130   71   72 ar
@<TRIPOS>SUBSTRUCTURE
     1 RES1 1
     2 RES2 37

@<TRIPOS>CRYSIN
  21.1917    9.8843   22.7413  90.0000 101.7440  90.0000  14 1

