# MOL2 file generated by ConQuest
# Please check atom types

@<TRIPOS>MOLECULE
GUYPAS
    58    65     1
SMALL
NO_CHARGES
****
Generated from CSD

@<TRIPOS>ATOM
      1 C1        13.4972    0.3795   16.4491 C.2       1 RES1    0.0000
      2 C2        12.3391    1.0125   16.7878 C.2       1 RES1    0.0000
      3 C3        11.3578    0.7452   15.6875 C.ar      1 RES1    0.0000
      4 C4        11.9486   -0.1304   14.7588 C.ar      1 RES1    0.0000
      5 C5        11.2425   -0.5710   13.6243 C.ar      1 RES1    0.0000
      6 C6         9.9655   -0.1206   13.4115 C.ar      1 RES1    0.0000
      7 C7         9.3568    0.8151   14.2862 C.ar      1 RES1    0.0000
      8 C8         8.0546    1.3167   14.0259 C.ar      1 RES1    0.0000
      9 C9         7.4910    2.2661   14.8202 C.ar      1 RES1    0.0000
     10 C10        8.2153    2.7933   15.9108 C.ar      1 RES1    0.0000
     11 C11        9.4596    2.3208   16.2188 C.ar      1 RES1    0.0000
     12 C12       10.0703    1.2935   15.4392 C.ar      1 RES1    0.0000
     13 C13       12.0669    1.6996   18.0649 C.ar      1 RES1    0.0000
     14 C14       11.0076    1.2650   18.8675 C.ar      1 RES1    0.0000
     15 C15       10.7787    1.8448   20.1057 C.ar      1 RES1    0.0000
     16 C16       11.5824    2.8780   20.5513 C.ar      1 RES1    0.0000
     17 C17       12.6277    3.3214   19.7603 C.ar      1 RES1    0.0000
     18 C18       12.8821    2.7254   18.5321 C.ar      1 RES1    0.0000
     19 H1        11.6630   -1.1961   13.0010 H         1 RES1    0.0000
     20 H2         9.4342   -0.4528   12.6305 H         1 RES1    0.0000
     21 H3         7.5599    0.9450   13.2639 H         1 RES1    0.0000
     22 H4         6.5542    2.6136   14.6368 H         1 RES1    0.0000
     23 H5         7.8268    3.5193   16.4722 H         1 RES1    0.0000
     24 H6         9.9672    2.7268   16.9773 H         1 RES1    0.0000
     25 H7        10.4178    0.5267   18.5150 H         1 RES1    0.0000
     26 H8        10.0138    1.5111   20.6338 H         1 RES1    0.0000
     27 H9        11.3969    3.3126   21.4414 H         1 RES1    0.0000
     28 H10       13.2392    4.0607   20.0320 H         1 RES1    0.0000
     29 H11       13.6543    3.0320   17.9702 H         1 RES1    0.0000
     30 C1B       13.3158   -0.3795   15.2221 C.2       1 RES1    0.0000
     31 C2B       14.4739   -1.0125   14.8834 C.2       1 RES1    0.0000
     32 C3B       15.4553   -0.7452   15.9837 C.ar      1 RES1    0.0000
     33 C4B       14.8644    0.1304   16.9124 C.ar      1 RES1    0.0000
     34 C5B       15.5705    0.5710   18.0469 C.ar      1 RES1    0.0000
     35 C6B       16.8475    0.1206   18.2597 C.ar      1 RES1    0.0000
     36 C7B       17.4563   -0.8151   17.3849 C.ar      1 RES1    0.0000
     37 C8B       18.7585   -1.3167   17.6453 C.ar      1 RES1    0.0000
     38 C9B       19.3221   -2.2661   16.8510 C.ar      1 RES1    0.0000
     39 C10B      18.5977   -2.7933   15.7604 C.ar      1 RES1    0.0000
     40 C11B      17.3534   -2.3208   15.4524 C.ar      1 RES1    0.0000
     41 C12B      16.7428   -1.2935   16.2320 C.ar      1 RES1    0.0000
     42 C13B      14.7462   -1.6996   13.6063 C.ar      1 RES1    0.0000
     43 C14B      15.8055   -1.2650   12.8037 C.ar      1 RES1    0.0000
     44 C15B      16.0344   -1.8448   11.5655 C.ar      1 RES1    0.0000
     45 C16B      15.2306   -2.8780   11.1199 C.ar      1 RES1    0.0000
     46 C17B      14.1854   -3.3214   11.9109 C.ar      1 RES1    0.0000
     47 C18B      13.9309   -2.7254   13.1391 C.ar      1 RES1    0.0000
     48 H1B       15.1501    1.1961   18.6702 H         1 RES1    0.0000
     49 H2B       17.3788    0.4528   19.0407 H         1 RES1    0.0000
     50 H3B       19.2531   -0.9450   18.4073 H         1 RES1    0.0000
     51 H4B       20.2588   -2.6136   17.0343 H         1 RES1    0.0000
     52 H5B       18.9862   -3.5193   15.1990 H         1 RES1    0.0000
     53 H6B       16.8459   -2.7268   14.6938 H         1 RES1    0.0000
     54 H7B       16.3952   -0.5267   13.1562 H         1 RES1    0.0000
     55 H8B       16.7992   -1.5111   11.0374 H         1 RES1    0.0000
     56 H9B       15.4161   -3.3126   10.2298 H         1 RES1    0.0000
     57 H10B      13.5738   -4.0607   11.6392 H         1 RES1    0.0000
     58 H11B      13.1587   -3.0320   13.7010 H         1 RES1    0.0000
@<TRIPOS>BOND
     1    1    2 2
     2    2    3 1
     3    3    4 ar
     4    4    5 ar
     5    5    6 ar
     6    6    7 ar
     7    7    8 ar
     8    8    9 ar
     9    9   10 ar
    10   10   11 ar
    11   11   12 ar
    12   12    3 ar
    13   13    2 1
    14   14   13 ar
    15   15   14 ar
    16   16   15 ar
    17   17   16 ar
    18   18   13 ar
    19   19    5 1
    20   20    6 1
    21   21    8 1
    22   22    9 1
    23   23   10 1
    24   24   11 1
    25   25   14 1
    26   26   15 1
    27   27   16 1
    28   28   17 1
    29   29   18 1
    30   30    1 1
    31   31   30 2
    32   32   31 1
    33   33    1 1
    34   34   33 ar
    35   35   34 ar
    36   36   35 ar
    37   37   36 ar
    38   38   37 ar
    39   39   38 ar
    40   40   39 ar
    41   41   32 ar
    42   42   31 1
    43   43   42 ar
    44   44   43 ar
    45   45   44 ar
    46   46   45 ar
    47   47   42 ar
    48   48   34 1
    49   49   35 1
    50   50   37 1
    51   51   38 1
    52   52   39 1
    53   53   40 1
    54   54   43 1
    55   55   44 1
    56   56   45 1
    57   57   46 1
    58   58   47 1
    59    4   30 1
    60    7   12 ar
    61   17   18 ar
    62   32   33 ar
    63   36   41 ar
    64   40   41 ar
    65   46   47 ar
@<TRIPOS>SUBSTRUCTURE
     1 RES1 1

@<TRIPOS>CRYSIN
  14.8800    4.9221   15.9040  90.0000  95.3160  90.0000 231 1

