# MOL2 file generated by ConQuest
# Please check atom types

@<TRIPOS>MOLECULE
HAFPOT
    70    78     2
SMALL
NO_CHARGES
****
Generated from CSD

@<TRIPOS>ATOM
      1 C1         4.3360   12.3669    2.7707 C.ar      1 RES1    0.0000
      2 C2         5.3795   12.3992    3.6639 C.ar      1 RES1    0.0000
      3 C3         5.4223   11.4847    4.7112 C.ar      1 RES1    0.0000
      4 C4         4.4547    9.6022    5.9817 C.ar      1 RES1    0.0000
      5 C5         3.4676    8.7266    6.1553 C.ar      1 RES1    0.0000
      6 C6         1.3199    7.7810    5.4706 C.ar      1 RES1    0.0000
      7 C7        -0.7776    6.7135    4.8392 C.ar      1 RES1    0.0000
      8 C8        -1.8097    6.5256    3.9917 C.ar      1 RES1    0.0000
      9 C9        -1.8658    7.2934    2.8279 C.ar      1 RES1    0.0000
     10 C10       -0.9200    8.2256    2.5525 C.ar      1 RES1    0.0000
     11 C11        1.2220   10.4290    2.0870 C.ar      1 RES1    0.0000
     12 C12        2.2351   11.3343    1.9968 C.ar      1 RES1    0.0000
     13 C13        4.4298   10.5415    4.8926 C.ar      1 RES1    0.0000
     14 C14        3.3159   11.4159    2.9026 C.ar      1 RES1    0.0000
     15 C15        3.3391   10.4973    3.9820 C.ar      1 RES1    0.0000
     16 C16        2.2848    9.5491    4.1216 C.ar      1 RES1    0.0000
     17 C17        2.3433    8.6666    5.2630 C.ar      1 RES1    0.0000
     18 C18        1.2080    9.4749    3.1896 C.ar      1 RES1    0.0000
     19 C19        0.1811    8.4792    3.4020 C.ar      1 RES1    0.0000
     20 C20        0.2435    7.6663    4.5823 C.ar      1 RES1    0.0000
     21 C21        0.1557   10.5490    1.0212 C.3       1 RES1    0.0000
     22 C22        7.3729    4.2253    0.2783 C.ar      2 RES2    0.0000
     23 C23        8.0056    4.9485    1.2675 C.ar      2 RES2    0.0000
     24 C24        7.2732    5.4291    2.3508 C.ar      2 RES2    0.0000
     25 C25        5.1046    5.7893    3.5300 C.ar      2 RES2    0.0000
     26 C26        3.7851    5.6231    3.5902 C.ar      2 RES2    0.0000
     27 C27        1.7482    4.6700    2.6543 C.ar      2 RES2    0.0000
     28 C28       -0.3469    3.6254    1.8795 C.ar      2 RES2    0.0000
     29 C29       -1.0019    2.7325    1.1017 C.ar      2 RES2    0.0000
     30 C30       -0.2880    1.9596    0.1910 C.ar      2 RES2    0.0000
     31 C31        1.0539    2.1462    0.0175 C.ar      2 RES2    0.0000
     32 C32        3.9656    2.9697   -0.5770 C.ar      2 RES2    0.0000
     33 C33        5.2919    3.2423   -0.6342 C.ar      2 RES2    0.0000
     34 C34        5.9996    3.9655    0.3656 C.ar      2 RES2    0.0000
     35 C35        5.2578    4.4663    1.4586 C.ar      2 RES2    0.0000
     36 C36        5.9243    5.2272    2.4574 C.ar      2 RES2    0.0000
     37 C37        3.8513    4.2180    1.5323 C.ar      2 RES2    0.0000
     38 C38        3.1057    4.8374    2.6049 C.ar      2 RES2    0.0000
     39 C39        3.1928    3.4134    0.5644 C.ar      2 RES2    0.0000
     40 C40        1.7854    3.1322    0.7429 C.ar      2 RES2    0.0000
     41 C41        1.0610    3.8256    1.7650 C.ar      2 RES2    0.0000
     42 C42        3.3701    2.2896   -1.7941 C.3       2 RES2    0.0000
     43 H1         4.2558   12.9885    1.9881 H         1 RES1    0.0000
     44 H2         6.1057   13.0304    3.6658 H         1 RES1    0.0000
     45 H3         6.1643   11.5075    5.2854 H         1 RES1    0.0000
     46 H4         5.2690    9.6239    6.5558 H         1 RES1    0.0000
     47 H5         3.4565    8.0616    6.8176 H         1 RES1    0.0000
     48 H6         1.3416    7.2142    6.2551 H         1 RES1    0.0000
     49 H7        -0.6708    6.2052    5.6733 H         1 RES1    0.0000
     50 H8        -2.5800    5.8880    4.1604 H         1 RES1    0.0000
     51 H9        -2.6210    7.1692    2.2596 H         1 RES1    0.0000
     52 H10       -1.0045    8.7315    1.7747 H         1 RES1    0.0000
     53 H11        2.2315   12.0065    1.2704 H         1 RES1    0.0000
     54 H12        0.0223    9.6503    0.5334 H         1 RES1    0.0000
     55 H13        0.3395   11.3025    0.4849 H         1 RES1    0.0000
     56 H14       -0.7802   10.6040    1.3383 H         1 RES1    0.0000
     57 H15        7.8437    3.8788   -0.4364 H         2 RES2    0.0000
     58 H16        8.9059    5.0245    1.2898 H         2 RES2    0.0000
     59 H17        7.7053    5.9238    3.0354 H         2 RES2    0.0000
     60 H18        5.5652    6.3495    4.3350 H         2 RES2    0.0000
     61 H19        3.1899    6.0601    4.2380 H         2 RES2    0.0000
     62 H20        1.2122    5.2071    3.2585 H         2 RES2    0.0000
     63 H21       -0.8181    4.2386    2.4730 H         2 RES2    0.0000
     64 H22       -2.0374    2.6267    1.0959 H         2 RES2    0.0000
     65 H23       -0.8060    1.2210   -0.3200 H         2 RES2    0.0000
     66 H24        1.6332    1.6551   -0.7855 H         2 RES2    0.0000
     67 H25        5.8321    2.9520   -1.3771 H         2 RES2    0.0000
     68 H26        2.5395    2.7690   -2.0657 H         2 RES2    0.0000
     69 H27        3.2089    1.3509   -1.6971 H         2 RES2    0.0000
     70 H28        4.0719    2.4295   -2.5215 H         2 RES2    0.0000
@<TRIPOS>BOND
     1    1    2 ar
     2    2    3 ar
     3    3   13 ar
     4    4    5 ar
     5    5   17 ar
     6    6   17 ar
     7    7    8 ar
     8    8    9 ar
     9    9   10 ar
    10   10   19 ar
    11   11   12 ar
    12   12   14 ar
    13   13    4 ar
    14   14    1 ar
    15   15   13 ar
    16   16   15 ar
    17   17   16 ar
    18   18   11 ar
    19   19   18 ar
    20   20    6 ar
    21   21   11 1
    22   22   23 ar
    23   23   24 ar
    24   24   36 ar
    25   25   26 ar
    26   26   38 ar
    27   27   38 ar
    28   28   29 ar
    29   29   30 ar
    30   30   31 ar
    31   31   40 ar
    32   32   33 ar
    33   33   34 ar
    34   34   22 ar
    35   35   34 ar
    36   36   25 ar
    37   37   35 ar
    38   38   37 ar
    39   39   32 ar
    40   40   39 ar
    41   41   27 ar
    42   42   32 1
    43   43    1 1
    44   44    2 1
    45   45    3 1
    46   46    4 1
    47   47    5 1
    48   48    6 1
    49   49    7 1
    50   50    8 1
    51   51    9 1
    52   52   10 1
    53   53   12 1
    54   54   21 1
    55   55   21 1
    56   56   21 1
    57   57   22 1
    58   58   23 1
    59   59   24 1
    60   60   25 1
    61   61   26 1
    62   62   27 1
    63   63   28 1
    64   64   29 1
    65   65   30 1
    66   66   31 1
    67   67   33 1
    68   68   42 1
    69   69   42 1
    70   70   42 1
    71    7   20 ar
    72   14   15 ar
    73   16   18 ar
    74   19   20 ar
    75   28   41 ar
    76   35   36 ar
    77   37   39 ar
    78   40   41 ar
@<TRIPOS>SUBSTRUCTURE
     1 RES1 1
     2 RES2 22

@<TRIPOS>CRYSIN
  12.6220   11.6280   10.8870  91.9700 114.7500 108.5500   2 1

