# MOL2 file generated by ConQuest
# Please check atom types

@<TRIPOS>MOLECULE
HALJEJ
    50    56     1
SMALL
NO_CHARGES
****
Generated from CSD

@<TRIPOS>ATOM
      1 C1        -2.2719    9.7936   10.9379 C.ar      1 RES1    0.0000
      2 C2        -2.9450    7.5332    9.4615 C.2       1 RES1    0.0000
      3 C3        -3.3826   10.7038   11.0504 C.ar      1 RES1    0.0000
      4 C4        -3.8387   11.5012    9.9795 C.ar      1 RES1    0.0000
      5 C5        -4.8604   12.3753   10.0999 C.ar      1 RES1    0.0000
      6 C6        -5.5203   12.5174   11.3117 C.ar      1 RES1    0.0000
      7 C7        -5.1248   11.7493   12.3857 C.ar      1 RES1    0.0000
      8 C8        -4.0895   10.8166   12.2859 C.ar      1 RES1    0.0000
      9 C9        -3.6854    9.9706   13.3995 C.ar      1 RES1    0.0000
     10 C10       -4.3744   10.0022   14.6351 C.ar      1 RES1    0.0000
     11 C11       -3.9973    9.1935   15.6790 C.ar      1 RES1    0.0000
     12 C12       -2.9356    8.3250   15.5332 C.ar      1 RES1    0.0000
     13 C13       -2.2390    8.2607   14.3579 C.ar      1 RES1    0.0000
     14 C14       -2.6084    9.0683   13.2474 C.ar      1 RES1    0.0000
     15 C15       -2.5848    6.7640   10.4738 C.2       1 RES1    0.0000
     16 C16       -1.8916    8.9973   11.9818 C.ar      1 RES1    0.0000
     17 C17       -0.7428    8.0352   11.7378 C.3       1 RES1    0.0000
     18 C18       -1.1631    6.7358   10.8856 C.3       1 RES1    0.0000
     19 C19       -0.3047    6.4967    9.6310 C.3       1 RES1    0.0000
     20 C20        0.3834    8.8157   11.0979 C.ar      1 RES1    0.0000
     21 C21        1.6834    8.8100   11.5272 C.ar      1 RES1    0.0000
     22 C22        2.6311    9.6165   10.9094 C.ar      1 RES1    0.0000
     23 C23        2.2538   10.4410    9.8702 C.ar      1 RES1    0.0000
     24 C24        0.9609   10.4477    9.4299 C.ar      1 RES1    0.0000
     25 C25        0.0015    9.6435   10.0239 C.ar      1 RES1    0.0000
     26 C26       -0.7274    7.4035    8.4430 C.3       1 RES1    0.0000
     27 C27       -1.8865    8.3431    8.7962 C.3       1 RES1    0.0000
     28 C28       -1.4621    9.6379    9.6564 C.3       1 RES1    0.0000
     29 H1        -3.8527    7.5569    9.1400 H         1 RES1    0.0000
     30 H2        -3.4129   11.4143    9.1400 H         1 RES1    0.0000
     31 H3        -5.1206   12.9145    9.3459 H         1 RES1    0.0000
     32 H4        -6.2336   13.1288   11.3893 H         1 RES1    0.0000
     33 H5        -5.5656   11.8542   13.2268 H         1 RES1    0.0000
     34 H6        -5.1197   10.5910   14.7475 H         1 RES1    0.0000
     35 H7        -4.4878    9.2262   16.5217 H         1 RES1    0.0000
     36 H8        -2.6841    7.7712   16.2682 H         1 RES1    0.0000
     37 H9        -1.4827    7.6810   14.2882 H         1 RES1    0.0000
     38 H10       -3.2459    6.2373   10.9300 H         1 RES1    0.0000
     39 H11       -0.4659    7.6810   12.5774 H         1 RES1    0.0000
     40 H12       -1.0157    6.0117   11.5002 H         1 RES1    0.0000
     41 H13        0.6027    6.6772    9.8528 H         1 RES1    0.0000
     42 H14       -0.3849    5.5831    9.3776 H         1 RES1    0.0000
     43 H15        1.9364    8.2675   12.2764 H         1 RES1    0.0000
     44 H16        3.5585    9.5759   11.1834 H         1 RES1    0.0000
     45 H17        2.9184   10.9970    9.4410 H         1 RES1    0.0000
     46 H18        0.7121   11.0083    8.6964 H         1 RES1    0.0000
     47 H19       -0.9930    6.8464    7.7143 H         1 RES1    0.0000
     48 H20        0.0196    7.9291    8.1737 H         1 RES1    0.0000
     49 H21       -1.6478   10.3767    9.0766 H         1 RES1    0.0000
     50 H22       -2.2248    8.7187    7.9836 H         1 RES1    0.0000
@<TRIPOS>BOND
     1    1    3 ar
     2    2   15 2
     3    3    4 ar
     4    4    5 ar
     5    5    6 ar
     6    6    7 ar
     7    7    8 ar
     8    8    3 ar
     9    9    8 ar
    10   10    9 ar
    11   11   10 ar
    12   12   11 ar
    13   13   12 ar
    14   14    9 ar
    15   15   18 1
    16   16    1 ar
    17   17   16 1
    18   18   17 1
    19   19   18 1
    20   20   17 1
    21   21   20 ar
    22   22   21 ar
    23   23   22 ar
    24   24   23 ar
    25   25   20 ar
    26   26   19 1
    27   27    2 1
    28   28    1 1
    29   29    2 1
    30   30    4 1
    31   31    5 1
    32   32    6 1
    33   33    7 1
    34   34   10 1
    35   35   11 1
    36   36   12 1
    37   37   13 1
    38   38   15 1
    39   39   17 1
    40   40   18 1
    41   41   19 1
    42   42   19 1
    43   43   21 1
    44   44   22 1
    45   45   23 1
    46   46   24 1
    47   47   26 1
    48   48   26 1
    49   49   28 1
    50   50   27 1
    51   13   14 ar
    52   14   16 ar
    53   24   25 ar
    54   25   28 1
    55   26   27 1
    56   27   28 1
@<TRIPOS>SUBSTRUCTURE
     1 RES1 1

@<TRIPOS>CRYSIN
  10.4720   11.2790   16.3580  90.0000 104.4500  90.0000 231 1

