# MOL2 file generated by ConQuest
# Please check atom types

@<TRIPOS>MOLECULE
HAQHIQ
    52    55     1
SMALL
NO_CHARGES
****
Generated from CSD

@<TRIPOS>ATOM
      1 C1         5.7609    2.4451    9.0038 C.ar      1 RES1    0.0000
      2 C2         5.7609    3.8807    9.0038 C.ar      1 RES1    0.0000
      3 C3         6.7776    4.5926    8.3123 C.ar      1 RES1    0.0000
      4 C4         7.7935    3.9358    7.7000 C.ar      1 RES1    0.0000
      5 C5         7.8918    2.5401    7.8369 C.ar      1 RES1    0.0000
      6 C6         6.9337    1.7845    8.4875 C.ar      1 RES1    0.0000
      7 C7         7.2908    0.3439    8.8128 C.3       1 RES1    0.0000
      8 C8         6.8495   -0.7716    7.8863 C.2       1 RES1    0.0000
      9 C9         6.0646   -1.7691    8.3190 C.2       1 RES1    0.0000
     10 C10        5.7470   -3.0173    7.5235 C.3       1 RES1    0.0000
     11 C11        6.0909   -4.2745    8.3207 C.3       1 RES1    0.0000
     12 C12        7.4515   -0.7184    6.4983 C.3       1 RES1    0.0000
     13 C13        8.9131   -1.1559    6.4467 C.3       1 RES1    0.0000
     14 H1         6.7262    5.5676    8.2595 H         1 RES1    0.0000
     15 H2         8.5043    4.4002    7.1190 H         1 RES1    0.0000
     16 H3         8.7347    2.0654    7.4791 H         1 RES1    0.0000
     17 H4         8.2938    0.3464    8.7997 H         1 RES1    0.0000
     18 H5         7.0250    0.1283    9.7001 H         1 RES1    0.0000
     19 H6         6.2514   -3.0275    6.6748 H         1 RES1    0.0000
     20 H7         4.7494   -3.0404    7.3231 H         1 RES1    0.0000
     21 H8         7.0700   -4.2976    8.4035 H         1 RES1    0.0000
     22 H9         5.8507   -5.0801    7.8273 H         1 RES1    0.0000
     23 H10        7.4257    0.2566    6.1946 H         1 RES1    0.0000
     24 H11        6.8601   -1.2444    5.8224 H         1 RES1    0.0000
     25 H12        9.5011   -0.5773    7.0229 H         1 RES1    0.0000
     26 H13        9.3816   -1.1033    5.5943 H         1 RES1    0.0000
     27 H14        8.9306   -1.9756    6.8429 H         1 RES1    0.0000
     28 C6A        4.5881    1.7845    9.5200 C.ar      1 RES1    0.0000
     29 C5A        3.6300    2.5401   10.1707 C.ar      1 RES1    0.0000
     30 C4A        3.7283    3.9358   10.3075 C.ar      1 RES1    0.0000
     31 C3A        4.7442    4.5926    9.6953 C.ar      1 RES1    0.0000
     32 H1A        4.7956    5.5676    9.7481 H         1 RES1    0.0000
     33 H2A        3.0175    4.4002   10.8886 H         1 RES1    0.0000
     34 H3A        2.7871    2.0654   10.5284 H         1 RES1    0.0000
     35 C7A        4.2310    0.3439    9.1948 C.3       1 RES1    0.0000
     36 C8A        4.6723   -0.7716   10.1212 C.2       1 RES1    0.0000
     37 C9A        5.4572   -1.7691    9.6885 C.2       1 RES1    0.0000
     38 C11A       5.4308   -4.2745    9.6868 C.3       1 RES1    0.0000
     39 C10A       5.7748   -3.0173   10.4840 C.3       1 RES1    0.0000
     40 H6A        5.2704   -3.0275   11.3327 H         1 RES1    0.0000
     41 H7A        6.7724   -3.0404   10.6845 H         1 RES1    0.0000
     42 H8A        4.4518   -4.2976    9.6040 H         1 RES1    0.0000
     43 H9A        5.6711   -5.0801   10.1803 H         1 RES1    0.0000
     44 C12A       4.0703   -0.7184   11.5092 C.3       1 RES1    0.0000
     45 C13A       2.6087   -1.1559   11.5608 C.3       1 RES1    0.0000
     46 H12A       2.0207   -0.5773   10.9846 H         1 RES1    0.0000
     47 H13A       2.1401   -1.1033   12.4132 H         1 RES1    0.0000
     48 H14A       2.5912   -1.9756   11.1647 H         1 RES1    0.0000
     49 H10A       4.0961    0.2566   11.8129 H         1 RES1    0.0000
     50 H11A       4.6617   -1.2444   12.1851 H         1 RES1    0.0000
     51 H4A        3.2280    0.3464    9.2078 H         1 RES1    0.0000
     52 H5A        4.4968    0.1283    8.3075 H         1 RES1    0.0000
@<TRIPOS>BOND
     1    1    2 ar
     2    2    3 ar
     3    3    4 ar
     4    4    5 ar
     5    5    6 ar
     6    6    1 ar
     7    7    6 1
     8    8    7 1
     9    9    8 2
    10   10    9 1
    11   11   10 1
    12   12    8 1
    13   13   12 1
    14   14    3 1
    15   15    4 1
    16   16    5 1
    17   17    7 1
    18   18    7 1
    19   19   10 1
    20   20   10 1
    21   21   11 1
    22   22   11 1
    23   23   12 1
    24   24   12 1
    25   25   13 1
    26   26   13 1
    27   27   13 1
    28   28    1 ar
    29   29   28 ar
    30   30   29 ar
    31   31    2 ar
    32   32   31 1
    33   33   30 1
    34   34   29 1
    35   35   28 1
    36   36   35 1
    37   37    9 1
    38   38   11 1
    39   39   37 1
    40   40   39 1
    41   41   39 1
    42   42   38 1
    43   43   38 1
    44   44   36 1
    45   45   44 1
    46   46   45 1
    47   47   45 1
    48   48   45 1
    49   49   44 1
    50   50   44 1
    51   51   35 1
    52   52   35 1
    53   30   31 ar
    54   36   37 2
    55   38   39 1
@<TRIPOS>SUBSTRUCTURE
     1 RES1 1

@<TRIPOS>CRYSIN
  11.9798   12.8286   12.0089  90.0000  91.4570  90.0000  15 1

