# MOL2 file generated by ConQuest
# Please check atom types

@<TRIPOS>MOLECULE
HAXMAX
   108   118     2
SMALL
NO_CHARGES
****
Generated from CSD

@<TRIPOS>ATOM
      1 C1        -0.0549    7.5915    6.3986 C.ar      1 RES1    0.0000
      2 C2         0.2033    8.9499    6.1793 C.ar      1 RES1    0.0000
      3 H1         0.1906    9.2865    5.3131 H         1 RES1    0.0000
      4 C3         0.4765    9.7949    7.2392 C.ar      1 RES1    0.0000
      5 H2         0.6473   10.6952    7.0787 H         1 RES1    0.0000
      6 C4         0.4984    9.3133    8.5368 C.ar      1 RES1    0.0000
      7 H3         0.6757    9.8883    9.2463 H         1 RES1    0.0000
      8 C5         0.2551    7.9728    8.7720 C.ar      1 RES1    0.0000
      9 H4         0.2754    7.6435    9.6412 H         1 RES1    0.0000
     10 C6        -0.0183    7.1202    7.7152 C.ar      1 RES1    0.0000
     11 H5        -0.1804    6.2203    7.8840 H         1 RES1    0.0000
     12 C7        -0.3524    6.6394    5.3213 C.2       1 RES1    0.0000
     13 H6        -0.4015    5.7430    5.5625 H         1 RES1    0.0000
     14 C8        -0.5595    6.9209    4.0339 C.2       1 RES1    0.0000
     15 H7        -0.4922    7.8087    3.7648 H         1 RES1    0.0000
     16 C9        -0.8891    5.9098    3.0083 C.ar      1 RES1    0.0000
     17 C10       -0.5579    6.1030    1.6431 C.ar      1 RES1    0.0000
     18 C11       -0.8914    5.0928    0.6875 C.ar      1 RES1    0.0000
     19 C12       -1.5500    3.9084    1.1092 C.ar      1 RES1    0.0000
     20 C13       -1.8575    3.7483    2.4638 C.ar      1 RES1    0.0000
     21 H8        -2.2847    2.9732    2.7496 H         1 RES1    0.0000
     22 C14       -1.5340    4.7248    3.3777 C.ar      1 RES1    0.0000
     23 H9        -1.7516    4.5928    4.2719 H         1 RES1    0.0000
     24 C15        0.1282    7.2719    1.1721 C.ar      1 RES1    0.0000
     25 H10        0.3681    7.9341    1.7790 H         1 RES1    0.0000
     26 C16       -1.8863    2.9197    0.1355 C.ar      1 RES1    0.0000
     27 H11       -2.3263    2.1465    0.4073 H         1 RES1    0.0000
     28 C17        4.5093    7.8563    6.3066 C.ar      2 RES2    0.0000
     29 C18        5.8039    8.3898    6.2634 C.ar      2 RES2    0.0000
     30 H12        6.3376    8.2389    5.5168 H         2 RES2    0.0000
     31 C19        6.2987    9.1378    7.3164 C.ar      2 RES2    0.0000
     32 H13        7.1590    9.4865    7.2709 H         2 RES2    0.0000
     33 C20        5.5231    9.3704    8.4363 C.ar      2 RES2    0.0000
     34 H14        5.8627    9.8652    9.1476 H         2 RES2    0.0000
     35 C21        4.2346    8.8612    8.4918 C.ar      2 RES2    0.0000
     36 H15        3.7054    9.0206    9.2401 H         2 RES2    0.0000
     37 C22        3.7338    8.1169    7.4406 C.ar      2 RES2    0.0000
     38 H16        2.8663    7.7841    7.4881 H         2 RES2    0.0000
     39 C23        3.9214    7.0621    5.2233 C.2       2 RES2    0.0000
     40 H17        3.0361    6.8001    5.3319 H         2 RES2    0.0000
     41 C24        4.5218    6.6778    4.1022 C.2       2 RES2    0.0000
     42 H18        5.4166    6.9086    3.9986 H         2 RES2    0.0000
     43 C25        3.8919    5.9175    3.0082 C.ar      2 RES2    0.0000
     44 C26        4.4267    5.9526    1.6949 C.ar      2 RES2    0.0000
     45 C27        3.8116    5.1695    0.6644 C.ar      2 RES2    0.0000
     46 C28        2.6698    4.3769    0.9610 C.ar      2 RES2    0.0000
     47 C29        2.1479    4.3936    2.2606 C.ar      2 RES2    0.0000
     48 H19        1.3891    3.8938    2.4586 H         2 RES2    0.0000
     49 C30        2.7470    5.1419    3.2482 C.ar      2 RES2    0.0000
     50 H20        2.3815    5.1332    4.1025 H         2 RES2    0.0000
     51 C31        5.5540    6.7639    1.3325 C.ar      2 RES2    0.0000
     52 H21        5.9549    7.2976    1.9806 H         2 RES2    0.0000
     53 C32        2.1003    3.5770   -0.0760 C.ar      2 RES2    0.0000
     54 H22        1.3699    3.0356    0.1195 H         2 RES2    0.0000
     55 C1A       -1.3983    2.7590   -6.3986 C.ar      1 RES1    0.0000
     56 C2A       -1.6565    1.4006   -6.1793 C.ar      1 RES1    0.0000
     57 H1A       -1.6438    1.0640   -5.3131 H         1 RES1    0.0000
     58 C3A       -1.9297    0.5556   -7.2392 C.ar      1 RES1    0.0000
     59 H2A       -2.1005   -0.3447   -7.0787 H         1 RES1    0.0000
     60 C4A       -1.9516    1.0372   -8.5368 C.ar      1 RES1    0.0000
     61 H3A       -2.1289    0.4622   -9.2463 H         1 RES1    0.0000
     62 C5A       -1.7083    2.3776   -8.7720 C.ar      1 RES1    0.0000
     63 H4A       -1.7286    2.7070   -9.6412 H         1 RES1    0.0000
     64 C6A       -1.4349    3.2303   -7.7152 C.ar      1 RES1    0.0000
     65 H5A       -1.2728    4.1302   -7.8840 H         1 RES1    0.0000
     66 C7A       -1.1008    3.7111   -5.3213 C.2       1 RES1    0.0000
     67 H6A       -1.0517    4.6075   -5.5625 H         1 RES1    0.0000
     68 C8A       -0.8937    3.4296   -4.0339 C.2       1 RES1    0.0000
     69 H7A       -0.9610    2.5417   -3.7648 H         1 RES1    0.0000
     70 C9A       -0.5641    4.4407   -3.0083 C.ar      1 RES1    0.0000
     71 C10A      -0.8953    4.2474   -1.6431 C.ar      1 RES1    0.0000
     72 C11A      -0.5618    5.2577   -0.6875 C.ar      1 RES1    0.0000
     73 C12A       0.0968    6.4420   -1.1092 C.ar      1 RES1    0.0000
     74 C13A       0.4043    6.6022   -2.4638 C.ar      1 RES1    0.0000
     75 H8A        0.8315    7.3773   -2.7496 H         1 RES1    0.0000
     76 C14A       0.0808    5.6257   -3.3777 C.ar      1 RES1    0.0000
     77 H9A        0.2984    5.7577   -4.2719 H         1 RES1    0.0000
     78 C15A      -1.5814    3.0786   -1.1721 C.ar      1 RES1    0.0000
     79 H10A      -1.8213    2.4164   -1.7790 H         1 RES1    0.0000
     80 C16A       0.4331    7.4308   -0.1355 C.ar      1 RES1    0.0000
     81 H11A       0.8731    8.2040   -0.4073 H         1 RES1    0.0000
     82 C17A       3.6395    2.4942   -6.3066 C.ar      2 RES2    0.0000
     83 C18A       2.3449    1.9607   -6.2634 C.ar      2 RES2    0.0000
     84 H12A       1.8112    2.1116   -5.5168 H         2 RES2    0.0000
     85 C19A       1.8502    1.2127   -7.3164 C.ar      2 RES2    0.0000
     86 H13A       0.9898    0.8640   -7.2709 H         2 RES2    0.0000
     87 C20A       2.6257    0.9801   -8.4363 C.ar      2 RES2    0.0000
     88 H14A       2.2861    0.4853   -9.1476 H         2 RES2    0.0000
     89 C21A       3.9142    1.4893   -8.4918 C.ar      2 RES2    0.0000
     90 H15A       4.4434    1.3299   -9.2401 H         2 RES2    0.0000
     91 C22A       4.4150    2.2335   -7.4406 C.ar      2 RES2    0.0000
     92 H16A       5.2825    2.5663   -7.4881 H         2 RES2    0.0000
     93 C23A       4.2274    3.2884   -5.2233 C.2       2 RES2    0.0000
     94 H17A       5.1127    3.5504   -5.3319 H         2 RES2    0.0000
     95 C24A       3.6270    3.6727   -4.1022 C.2       2 RES2    0.0000
     96 H18A       2.7322    3.4419   -3.9986 H         2 RES2    0.0000
     97 C25A       4.2569    4.4330   -3.0082 C.ar      2 RES2    0.0000
     98 C26A       3.7221    4.3979   -1.6949 C.ar      2 RES2    0.0000
     99 C27A       4.3373    5.1810   -0.6644 C.ar      2 RES2    0.0000
    100 C28A       5.4790    5.9735   -0.9610 C.ar      2 RES2    0.0000
    101 C29A       6.0010    5.9569   -2.2606 C.ar      2 RES2    0.0000
    102 H19A       6.7597    6.4567   -2.4586 H         2 RES2    0.0000
    103 C30A       5.4018    5.2086   -3.2482 C.ar      2 RES2    0.0000
    104 H20A       5.7673    5.2173   -4.1025 H         2 RES2    0.0000
    105 C31A       2.5948    3.5866   -1.3325 C.ar      2 RES2    0.0000
    106 H21A       2.1939    3.0528   -1.9806 H         2 RES2    0.0000
    107 C32A       6.0485    6.7735    0.0760 C.ar      2 RES2    0.0000
    108 H22A       6.7789    7.3148   -0.1195 H         2 RES2    0.0000
@<TRIPOS>BOND
     1    1    2 ar
     2    2    3 1
     3    4    2 ar
     4    5    4 1
     5    6    4 ar
     6    7    6 1
     7    8    6 ar
     8    9    8 1
     9   10    1 ar
    10   11   10 1
    11   12    1 1
    12   13   12 1
    13   14   12 2
    14   15   14 1
    15   16   14 1
    16   17   16 ar
    17   18   17 ar
    18   19   18 ar
    19   20   19 ar
    20   21   20 1
    21   22   16 ar
    22   23   22 1
    23   24   17 ar
    24   25   24 1
    25   26   19 ar
    26   27   26 1
    27   28   29 ar
    28   29   30 1
    29   31   29 ar
    30   32   31 1
    31   33   31 ar
    32   34   33 1
    33   35   33 ar
    34   36   35 1
    35   37   28 ar
    36   38   37 1
    37   39   28 1
    38   40   39 1
    39   41   39 2
    40   42   41 1
    41   43   41 1
    42   44   43 ar
    43   45   44 ar
    44   46   45 ar
    45   47   46 ar
    46   48   47 1
    47   49   43 ar
    48   50   49 1
    49   51   44 ar
    50   52   51 1
    51   53   46 ar
    52   54   53 1
    53   55   56 ar
    54   56   57 1
    55   58   56 ar
    56   59   58 1
    57   60   58 ar
    58   61   60 1
    59   62   60 ar
    60   63   62 1
    61   64   55 ar
    62   65   64 1
    63   66   55 1
    64   67   66 1
    65   68   66 2
    66   69   68 1
    67   70   68 1
    68   71   70 ar
    69   72   18 ar
    70   73   72 ar
    71   74   73 ar
    72   75   74 1
    73   76   70 ar
    74   77   76 1
    75   78   26 ar
    76   79   78 1
    77   80   24 ar
    78   81   80 1
    79   82   83 ar
    80   83   84 1
    81   85   83 ar
    82   86   85 1
    83   87   85 ar
    84   88   87 1
    85   89   87 ar
    86   90   89 1
    87   91   82 ar
    88   92   91 1
    89   93   82 1
    90   94   93 1
    91   95   93 2
    92   96   95 1
    93   97   95 1
    94   98   97 ar
    95   99   45 ar
    96  100   99 ar
    97  101  100 ar
    98  102  101 1
    99  103   97 ar
   100  104  103 1
   101  105   53 ar
   102  106  105 1
   103  107   51 ar
   104  108  107 1
   105    8   10 ar
   106   20   22 ar
   107   35   37 ar
   108   47   49 ar
   109   62   64 ar
   110   71   72 ar
   111   71   78 ar
   112   73   80 ar
   113   74   76 ar
   114   89   91 ar
   115   98   99 ar
   116   98  105 ar
   117  100  107 ar
   118  101  103 ar
@<TRIPOS>SUBSTRUCTURE
     1 RES1 1
     2 RES2 28

@<TRIPOS>CRYSIN
   9.6020   10.4520   11.0760  93.9250 109.0540  97.9920   2 1

