# MOL2 file generated by ConQuest
# Please check atom types

@<TRIPOS>MOLECULE
HBZCBA
   120   136     4
SMALL
NO_CHARGES
****
Generated from CSD

@<TRIPOS>ATOM
      1 C1         3.0237   -2.7698   -0.4188 C.ar      1 RES1    0.0000
      2 C2         3.8043   -2.0372    0.4751 C.ar      1 RES1    0.0000
      3 C3         4.5677   -2.7809    1.3552 C.ar      1 RES1    0.0000
      4 C4         5.6673   -2.6632    2.4043 C.3       1 RES1    0.0000
      5 C5         7.0248   -2.2851    1.8457 C.ar      1 RES1    0.0000
      6 C6         7.5973   -1.0816    1.5838 C.ar      1 RES1    0.0000
      7 C7         8.8810   -1.0594    0.9834 C.ar      1 RES1    0.0000
      8 C8         9.5602   -2.1965    0.6550 C.ar      1 RES1    0.0000
      9 C9         8.9826   -3.4623    0.9211 C.ar      1 RES1    0.0000
     10 C10        7.7113   -3.4623    1.5164 C.ar      1 RES1    0.0000
     11 H1         2.4255   -2.2241   -1.1488 H         1 RES1    0.0000
     12 H2         3.8002   -1.0650    0.4409 H         1 RES1    0.0000
     13 H3         5.4585   -2.1826    3.3016 H         1 RES1    0.0000
     14 H4         7.1626   -0.2188    1.7297 H         1 RES1    0.0000
     15 H5         9.2694   -0.1842    0.7838 H         1 RES1    0.0000
     16 H6        10.4486   -2.2311    0.1808 H         1 RES1    0.0000
     17 C11       -0.2711    2.7504    3.3493 C.ar      2 RES2    0.0000
     18 C12        0.8193    2.0067    2.8879 C.ar      2 RES2    0.0000
     19 C13        1.8989    2.7643    2.4120 C.ar      2 RES2    0.0000
     20 C14        3.3055    2.6618    1.8269 C.3       2 RES2    0.0000
     21 C15        4.3818    2.3003    2.7642 C.ar      2 RES2    0.0000
     22 C16        4.8636    1.0871    3.1651 C.ar      2 RES2    0.0000
     23 C17        5.9030    1.0678    4.1075 C.ar      2 RES2    0.0000
     24 C18        6.4364    2.2048    4.6560 C.ar      2 RES2    0.0000
     25 C19        5.9645    3.4623    4.2517 C.ar      2 RES2    0.0000
     26 C20        4.9290    3.4623    3.2760 C.ar      2 RES2    0.0000
     27 H7        -1.2255    2.3183    3.7024 H         2 RES2    0.0000
     28 H8         0.6251    0.9764    2.9109 H         2 RES2    0.0000
     29 H9         3.3293    2.1438    0.9783 H         2 RES2    0.0000
     30 H10        4.5303    0.1371    2.7020 H         2 RES2    0.0000
     31 H11        6.3174    0.0485    4.3847 H         2 RES2    0.0000
     32 H12        7.1704    2.0524    5.3297 H         2 RES2    0.0000
     33 C21       -0.0369   -4.1575   -3.2342 C.ar      3 RES3    0.0000
     34 C22        1.0202   -4.8915   -3.7613 C.ar      3 RES3    0.0000
     35 C23        2.0626   -4.1533   -4.2824 C.ar      3 RES3    0.0000
     36 C24        3.4510   -4.2586   -4.9024 C.3       3 RES3    0.0000
     37 C25        4.5408   -4.6339   -3.9446 C.ar      3 RES3    0.0000
     38 C26        5.0143   -5.8346   -3.5216 C.ar      3 RES3    0.0000
     39 C27        6.0271   -5.8678   -2.5578 C.ar      3 RES3    0.0000
     40 C28        6.5501   -4.7322   -2.0171 C.ar      3 RES3    0.0000
     41 C29        6.1049   -3.4623   -2.4478 C.ar      3 RES3    0.0000
     42 C30        5.0984   -3.4623   -3.4252 C.ar      3 RES3    0.0000
     43 H13       -0.8542   -4.5688   -2.8401 H         3 RES3    0.0000
     44 H14        0.9962   -5.8761   -3.7246 H         3 RES3    0.0000
     45 H15        3.5334   -4.6962   -5.7698 H         3 RES3    0.0000
     46 H16        4.6164   -6.6157   -3.9583 H         3 RES3    0.0000
     47 H17        6.3728   -6.7486   -2.2363 H         3 RES3    0.0000
     48 H18        7.2360   -4.7599   -1.3595 H         3 RES3    0.0000
     49 C31       -2.9838    4.1505    0.6021 C.ar      4 RES4    0.0000
     50 C32       -3.7452    4.8859   -0.2994 C.ar      4 RES4    0.0000
     51 C33       -4.4950    4.1547   -1.1941 C.ar      4 RES4    0.0000
     52 C34       -5.5201    4.2544   -2.3156 C.3       4 RES4    0.0000
     53 C35       -6.9061    4.6297   -1.8943 C.ar      4 RES4    0.0000
     54 C36       -7.5170    5.8415   -1.6853 C.ar      4 RES4    0.0000
     55 C37       -8.8345    5.8747   -1.2086 C.ar      4 RES4    0.0000
     56 C38       -9.5521    4.7391   -0.9459 C.ar      4 RES4    0.0000
     57 C39       -8.9591    3.4623   -1.1736 C.ar      4 RES4    0.0000
     58 C40       -7.6388    3.4623   -1.6495 C.ar      4 RES4    0.0000
     59 H19       -2.4293    4.6159    1.2717 H         4 RES4    0.0000
     60 H20       -3.7870    5.8152   -0.2738 H         4 RES4    0.0000
     61 H21       -5.1915    4.6768   -3.1165 H         4 RES4    0.0000
     62 H22       -7.0301    6.6932   -1.8917 H         4 RES4    0.0000
     63 H23       -9.2960    6.7832   -1.1557 H         4 RES4    0.0000
     64 H24      -10.5015    4.7724   -0.7079 H         4 RES4    0.0000
     65 C1A        3.0237   -4.1547   -0.4188 C.ar      1 RES1    0.0000
     66 C3A        4.5677   -4.1436    1.3552 C.ar      1 RES1    0.0000
     67 C4A        5.6673   -4.2613    2.4043 C.3       1 RES1    0.0000
     68 C8A        9.5602   -4.7280    0.6550 C.ar      1 RES1    0.0000
     69 C5A        7.0248   -4.6394    1.8457 C.ar      1 RES1    0.0000
     70 C2A        3.8043   -4.8873    0.4751 C.ar      1 RES1    0.0000
     71 H1A        2.4255   -4.7004   -1.1488 H         1 RES1    0.0000
     72 H3A        5.4585   -4.7419    3.3016 H         1 RES1    0.0000
     73 C7A        8.8810   -5.8651    0.9834 C.ar      1 RES1    0.0000
     74 H6A       10.4486   -4.6934    0.1808 H         1 RES1    0.0000
     75 C6A        7.5973   -5.8429    1.5838 C.ar      1 RES1    0.0000
     76 H2A        3.8002   -5.8595    0.4409 H         1 RES1    0.0000
     77 H5A        9.2694   -6.7403    0.7838 H         1 RES1    0.0000
     78 H4A        7.1626   -6.7057    1.7297 H         1 RES1    0.0000
     79 C11A      -0.2711    4.1741    3.3493 C.ar      2 RES2    0.0000
     80 C13A       1.8989    4.1602    2.4120 C.ar      2 RES2    0.0000
     81 C14A       3.3055    4.2627    1.8269 C.3       2 RES2    0.0000
     82 C18A       6.4364    4.7197    4.6560 C.ar      2 RES2    0.0000
     83 C15A       4.3818    4.6242    2.7642 C.ar      2 RES2    0.0000
     84 C12A       0.8193    4.9178    2.8879 C.ar      2 RES2    0.0000
     85 H7A       -1.2255    4.6062    3.7024 H         2 RES2    0.0000
     86 H9A        3.3293    4.7807    0.9783 H         2 RES2    0.0000
     87 C17A       5.9030    5.8567    4.1075 C.ar      2 RES2    0.0000
     88 H12A       7.1704    4.8721    5.3297 H         2 RES2    0.0000
     89 C16A       4.8636    5.8374    3.1651 C.ar      2 RES2    0.0000
     90 H8A        0.6251    5.9481    2.9109 H         2 RES2    0.0000
     91 H11A       6.3174    6.8760    4.3847 H         2 RES2    0.0000
     92 H10A       4.5303    6.7874    2.7020 H         2 RES2    0.0000
     93 C21A      -0.0369   -2.7670   -3.2342 C.ar      3 RES3    0.0000
     94 C23A       2.0626   -2.7712   -4.2824 C.ar      3 RES3    0.0000
     95 C24A       3.4510   -2.6659   -4.9024 C.3       3 RES3    0.0000
     96 C28A       6.5501   -2.1923   -2.0171 C.ar      3 RES3    0.0000
     97 C25A       4.5408   -2.2906   -3.9446 C.ar      3 RES3    0.0000
     98 C22A       1.0202   -2.0330   -3.7613 C.ar      3 RES3    0.0000
     99 H13A      -0.8542   -2.3557   -2.8401 H         3 RES3    0.0000
    100 H15A       3.5334   -2.2283   -5.7698 H         3 RES3    0.0000
    101 C27A       6.0271   -1.0567   -2.5578 C.ar      3 RES3    0.0000
    102 H18A       7.2360   -2.1646   -1.3595 H         3 RES3    0.0000
    103 C26A       5.0143   -1.0899   -3.5216 C.ar      3 RES3    0.0000
    104 H14A       0.9962   -1.0484   -3.7246 H         3 RES3    0.0000
    105 H17A       6.3728   -0.1759   -2.2363 H         3 RES3    0.0000
    106 H16A       4.6164   -0.3088   -3.9583 H         3 RES3    0.0000
    107 C31A      -2.9838    2.7740    0.6021 C.ar      4 RES4    0.0000
    108 C33A      -4.4950    2.7698   -1.1941 C.ar      4 RES4    0.0000
    109 C34A      -5.5201    2.6701   -2.3156 C.3       4 RES4    0.0000
    110 C38A      -9.5521    2.1854   -0.9459 C.ar      4 RES4    0.0000
    111 C35A      -6.9061    2.2948   -1.8943 C.ar      4 RES4    0.0000
    112 C32A      -3.7452    2.0386   -0.2994 C.ar      4 RES4    0.0000
    113 H19A      -2.4293    2.3086    1.2717 H         4 RES4    0.0000
    114 H21A      -5.1915    2.2477   -3.1165 H         4 RES4    0.0000
    115 C37A      -8.8345    1.0498   -1.2086 C.ar      4 RES4    0.0000
    116 H24A     -10.5015    2.1521   -0.7079 H         4 RES4    0.0000
    117 C36A      -7.5170    1.0830   -1.6853 C.ar      4 RES4    0.0000
    118 H20A      -3.7870    1.1093   -0.2738 H         4 RES4    0.0000
    119 H23A      -9.2960    0.1413   -1.1557 H         4 RES4    0.0000
    120 H22A      -7.0301    0.2313   -1.8917 H         4 RES4    0.0000
@<TRIPOS>BOND
     1    1    2 ar
     2    2    3 ar
     3    3    4 1
     4    4    5 1
     5    5    6 ar
     6    6    7 ar
     7    7    8 ar
     8    8    9 ar
     9    9   10 ar
    10   10    5 ar
    11   11    1 1
    12   12    2 1
    13   13    4 1
    14   14    6 1
    15   15    7 1
    16   16    8 1
    17   17   18 ar
    18   18   19 ar
    19   19   20 1
    20   20   21 1
    21   21   22 ar
    22   22   23 ar
    23   23   24 ar
    24   24   25 ar
    25   25   26 ar
    26   26   21 ar
    27   27   17 1
    28   28   18 1
    29   29   20 1
    30   30   22 1
    31   31   23 1
    32   32   24 1
    33   33   34 ar
    34   34   35 ar
    35   35   36 1
    36   36   37 1
    37   37   38 ar
    38   38   39 ar
    39   39   40 ar
    40   40   41 ar
    41   41   42 ar
    42   42   37 ar
    43   43   33 1
    44   44   34 1
    45   45   36 1
    46   46   38 1
    47   47   39 1
    48   48   40 1
    49   49   50 ar
    50   50   51 ar
    51   51   52 1
    52   52   53 1
    53   53   54 ar
    54   54   55 ar
    55   55   56 ar
    56   56   57 ar
    57   57   58 ar
    58   58   53 ar
    59   59   49 1
    60   60   50 1
    61   61   52 1
    62   62   54 1
    63   63   55 1
    64   64   56 1
    65   65    1 ar
    66   66    3 ar
    67   67    4 1
    68   68    9 ar
    69   69   10 ar
    70   70   65 ar
    71   71   65 1
    72   72   67 1
    73   73   68 ar
    74   74   68 1
    75   75   69 ar
    76   76   70 1
    77   77   73 1
    78   78   75 1
    79   79   17 ar
    80   80   19 ar
    81   81   20 1
    82   82   25 ar
    83   83   26 ar
    84   84   79 ar
    85   85   79 1
    86   86   81 1
    87   87   82 ar
    88   88   82 1
    89   89   83 ar
    90   90   84 1
    91   91   87 1
    92   92   89 1
    93   93   33 ar
    94   94   35 ar
    95   95   36 1
    96   96   41 ar
    97   97   42 ar
    98   98   93 ar
    99   99   93 1
   100  100   95 1
   101  101   96 ar
   102  102   96 1
   103  103   97 ar
   104  104   98 1
   105  105  101 1
   106  106  103 1
   107  107   49 ar
   108  108   51 ar
   109  109   52 1
   110  110   57 ar
   111  111   58 ar
   112  112  107 ar
   113  113  107 1
   114  114  109 1
   115  115  110 ar
   116  116  110 1
   117  117  111 ar
   118  118  112 1
   119  119  115 1
   120  120  117 1
   121   66   67 1
   122   66   70 ar
   123   67   69 1
   124   73   75 ar
   125   80   81 1
   126   80   84 ar
   127   81   83 1
   128   87   89 ar
   129   94   95 1
   130   94   98 ar
   131   95   97 1
   132  101  103 ar
   133  108  109 1
   134  108  112 ar
   135  109  111 1
   136  115  117 ar
@<TRIPOS>SUBSTRUCTURE
     1 RES1 1
     2 RES2 17
     3 RES3 33
     4 RES4 49

@<TRIPOS>CRYSIN
  10.2020   13.8490    8.7680  90.0000 103.4100  90.0000   6 1

