# MOL2 file generated by ConQuest
# Please check atom types

@<TRIPOS>MOLECULE
HBZCOR
    42    54     1
SMALL
NO_CHARGES
****
Generated from CSD

@<TRIPOS>ATOM
      1 C1        -1.2781   -0.9096    4.8154 C.ar      1 RES1    0.0000
      2 C2        -1.3395   -1.7885   -2.9786 C.ar      1 RES1    0.0000
      3 C3        -2.0852   -2.6521   -3.7532 C.ar      1 RES1    0.0000
      4 C4        -2.9511   -3.5668   -3.1746 C.ar      1 RES1    0.0000
      5 C5        -3.4791   -3.5515    1.1240 C.ar      1 RES1    0.0000
      6 C6        -2.5666   -2.6572    0.4063 C.ar      1 RES1    0.0000
      7 C7        -1.7732   -1.7578    1.2570 C.ar      1 RES1    0.0000
      8 C8        -0.9202   -0.8943    0.5584 C.ar      1 RES1    0.0000
      9 C9        -0.1465    0.0000    1.3853 C.ar      1 RES1    0.0000
     10 C10       -0.7399   -0.8636   -0.8020 C.ar      1 RES1    0.0000
     11 C11       -1.4799   -1.7527   -1.5814 C.ar      1 RES1    0.0000
     12 C12       -0.5714    0.0102    5.6708 C.ar      1 RES1    0.0000
     13 C13       -2.3885   -2.6368   -0.9885 C.ar      1 RES1    0.0000
     14 C14       -3.1025   -3.5617   -1.7239 C.ar      1 RES1    0.0000
     15 C15        0.2971    0.8789    5.0150 C.ar      1 RES1    0.0000
     16 C16       -3.5701   -3.5259    2.4867 C.ar      1 RES1    0.0000
     17 C17       -2.8105   -2.6214    3.2542 C.ar      1 RES1    0.0000
     18 C18       -1.9714   -1.7783    2.6115 C.ar      1 RES1    0.0000
     19 C19       -1.2357   -0.8942    3.4146 C.ar      1 RES1    0.0000
     20 C20       -0.3145    0.0409    2.8360 C.ar      1 RES1    0.0000
     21 C21        0.4448    0.8840    3.6000 C.ar      1 RES1    0.0000
     22 C10B       0.7399    0.8636    0.8020 C.ar      1 RES1    0.0000
     23 C9B        0.1465   -0.0000   -1.3853 C.ar      1 RES1    0.0000
     24 C21B      -0.4448   -0.8840   -3.6000 C.ar      1 RES1    0.0000
     25 C2B        1.3395    1.7885    2.9786 C.ar      1 RES1    0.0000
     26 C8B        0.9202    0.8943   -0.5584 C.ar      1 RES1    0.0000
     27 C11B       1.4799    1.7527    1.5814 C.ar      1 RES1    0.0000
     28 C20B       0.3145   -0.0409   -2.8360 C.ar      1 RES1    0.0000
     29 C15B      -0.2971   -0.8789   -5.0150 C.ar      1 RES1    0.0000
     30 C3B        2.0852    2.6521    3.7532 C.ar      1 RES1    0.0000
     31 C7B        1.7732    1.7578   -1.2570 C.ar      1 RES1    0.0000
     32 C13B       2.3885    2.6368    0.9885 C.ar      1 RES1    0.0000
     33 C19B       1.2357    0.8942   -3.4146 C.ar      1 RES1    0.0000
     34 C12B       0.5714   -0.0102   -5.6708 C.ar      1 RES1    0.0000
     35 C4B        2.9511    3.5668    3.1746 C.ar      1 RES1    0.0000
     36 C6B        2.5666    2.6572   -0.4063 C.ar      1 RES1    0.0000
     37 C18B       1.9714    1.7783   -2.6115 C.ar      1 RES1    0.0000
     38 C14B       3.1025    3.5617    1.7239 C.ar      1 RES1    0.0000
     39 C1B        1.2781    0.9096   -4.8154 C.ar      1 RES1    0.0000
     40 C5B        3.4791    3.5515   -1.1240 C.ar      1 RES1    0.0000
     41 C17B       2.8105    2.6214   -3.2542 C.ar      1 RES1    0.0000
     42 C16B       3.5701    3.5259   -2.4867 C.ar      1 RES1    0.0000
@<TRIPOS>BOND
     1    1   12 ar
     2    2    3 ar
     3    3    4 ar
     4    4   14 ar
     5    5    6 ar
     6    6    7 ar
     7    7    8 ar
     8    8    9 ar
     9    9   20 ar
    10   10    8 ar
    11   11    2 ar
    12   12   15 ar
    13   13    6 ar
    14   14   13 ar
    15   15   21 ar
    16   16    5 ar
    17   17   16 ar
    18   18    7 ar
    19   19    1 ar
    20   20   19 ar
    21   21   20 ar
    22   22    9 ar
    23   23   10 ar
    24   24    2 ar
    25   25   21 ar
    26   26   22 ar
    27   27   22 ar
    28   28   23 ar
    29   29   24 ar
    30   30   25 ar
    31   31   26 ar
    32   32   27 ar
    33   33   28 ar
    34   34   29 ar
    35   35   30 ar
    36   36   31 ar
    37   37   31 ar
    38   38   32 ar
    39   39   33 ar
    40   40   36 ar
    41   41   37 ar
    42   42   40 ar
    43   10   11 ar
    44   11   13 ar
    45   17   18 ar
    46   18   19 ar
    47   23   26 ar
    48   24   28 ar
    49   25   27 ar
    50   32   36 ar
    51   33   37 ar
    52   34   39 ar
    53   35   38 ar
    54   41   42 ar
@<TRIPOS>SUBSTRUCTURE
     1 RES1 1

@<TRIPOS>CRYSIN
  18.4200    5.1100   12.8600  90.0000 112.5000  90.0000  14 2

