# MOL2 file generated by ConQuest
# Please check atom types

@<TRIPOS>MOLECULE
HDUNDC
    32    34     1
SMALL
NO_CHARGES
****
Generated from CSD

@<TRIPOS>ATOM
      1 C1         5.8591    2.6841   -0.3894 C.ar      1 RES1    0.0000
      2 C2         5.8117    1.3343   -0.7742 C.ar      1 RES1    0.0000
      3 C3         5.0971    0.4216   -0.0751 C.ar      1 RES1    0.0000
      4 C4         4.4169    0.8206    1.0861 C.ar      1 RES1    0.0000
      5 C5         4.4382    2.1195    1.5203 C.ar      1 RES1    0.0000
      6 C6         5.1315    3.1199    0.7681 C.ar      1 RES1    0.0000
      7 C7         5.1564    4.5107    1.0801 C.ar      1 RES1    0.0000
      8 C8         5.9267    5.3681    0.3211 C.ar      1 RES1    0.0000
      9 C9         6.6840    4.9154   -0.7636 C.ar      1 RES1    0.0000
     10 C10        6.6425    3.6151   -1.1104 C.ar      1 RES1    0.0000
     11 C11        4.3730    5.0852    2.1335 C.1       1 RES1    0.0000
     12 C12        3.7378    5.6752    2.9563 C.1       1 RES1    0.0000
     13 C13        2.9106    6.2935    3.9885 C.3       1 RES1    0.0000
     14 C14        2.0799    5.2917    4.7832 C.3       1 RES1    0.0000
     15 C15        2.9071    4.2914    5.5885 C.3       1 RES1    0.0000
     16 C16        2.7293    2.8369    5.1802 C.3       1 RES1    0.0000
     17 C17        3.3052    2.5397    3.8618 C.1       1 RES1    0.0000
     18 C18        3.8089    2.3968    2.7893 C.1       1 RES1    0.0000
     19 H1         6.2929    1.0753   -1.5939 H         1 RES1    0.0000
     20 H2         5.0722   -0.5660   -0.3795 H         1 RES1    0.0000
     21 H3         3.9464    0.1556    1.6167 H         1 RES1    0.0000
     22 H4         5.9729    6.3246    0.5693 H         1 RES1    0.0000
     23 H5         7.2410    5.5747   -1.2448 H         1 RES1    0.0000
     24 H6         7.1462    3.2543   -1.8216 H         1 RES1    0.0000
     25 H7         3.4842    6.8481    4.5844 H         1 RES1    0.0000
     26 H8         2.2991    7.0886    3.5673 H         1 RES1    0.0000
     27 H9         1.4577    4.7682    4.1441 H         1 RES1    0.0000
     28 H10        1.4577    5.8152    5.3585 H         1 RES1    0.0000
     29 H11        3.8397    4.5277    5.5103 H         1 RES1    0.0000
     30 H12        2.5717    4.3579    6.5654 H         1 RES1    0.0000
     31 H13        1.8014    2.5468    5.1005 H         1 RES1    0.0000
     32 H14        3.0931    2.1082    5.8291 H         1 RES1    0.0000
@<TRIPOS>BOND
     1    1    2 ar
     2    2    3 ar
     3    3    4 ar
     4    4    5 ar
     5    5    6 ar
     6    6    1 ar
     7    7    6 ar
     8    8    7 ar
     9    9    8 ar
    10   10    1 ar
    11   11    7 1
    12   12   11 3
    13   13   12 1
    14   14   13 1
    15   15   14 1
    16   16   15 1
    17   17   16 1
    18   18    5 1
    19   19    2 1
    20   20    3 1
    21   21    4 1
    22   22    8 1
    23   23    9 1
    24   24   10 1
    25   25   13 1
    26   26   13 1
    27   27   14 1
    28   28   14 1
    29   29   15 1
    30   30   15 1
    31   31   16 1
    32   32   16 1
    33    9   10 ar
    34   17   18 3
@<TRIPOS>SUBSTRUCTURE
     1 RES1 1

@<TRIPOS>CRYSIN
  11.8510   14.1490    7.5900  90.0000  90.0000  90.0000  19 1

