# MOL2 file generated by ConQuest
# Please check atom types

@<TRIPOS>MOLECULE
HEXHEL02
    42    47     1
SMALL
NO_CHARGES
****
Generated from CSD

@<TRIPOS>ATOM
      1 C1         5.0257    4.8094    7.0821 C.ar      1 RES1    0.0000
      2 C2         5.2288    3.4767    7.3687 C.ar      1 RES1    0.0000
      3 C3         4.1424    2.5871    7.4317 C.ar      1 RES1    0.0000
      4 C4         2.8821    3.0387    7.1508 C.ar      1 RES1    0.0000
      5 C5         2.6527    4.3894    6.8080 C.ar      1 RES1    0.0000
      6 C6         1.3596    4.8185    6.3591 C.ar      1 RES1    0.0000
      7 C7         1.2076    6.0285    5.7918 C.ar      1 RES1    0.0000
      8 C8         2.2816    6.9747    5.7520 C.ar      1 RES1    0.0000
      9 C9         2.1618    8.1767    4.9890 C.ar      1 RES1    0.0000
     10 C10        3.2153    9.0094    4.8635 C.ar      1 RES1    0.0000
     11 C11        4.3930    8.8201    5.6385 C.ar      1 RES1    0.0000
     12 C12        5.5137    9.6868    5.4938 C.ar      1 RES1    0.0000
     13 C13        6.6176    9.5280    6.2576 C.ar      1 RES1    0.0000
     14 C14        6.6015    8.6398    7.3750 C.ar      1 RES1    0.0000
     15 C15        7.7076    8.6120    8.2882 C.ar      1 RES1    0.0000
     16 C16        7.6258    7.9451    9.4577 C.ar      1 RES1    0.0000
     17 C17        6.3911    7.3372    9.8642 C.ar      1 RES1    0.0000
     18 C18        6.2406    6.8518   11.1869 C.ar      1 RES1    0.0000
     19 C19        5.0439    6.3636   11.6265 C.ar      1 RES1    0.0000
     20 C20        3.9349    6.3598   10.7593 C.ar      1 RES1    0.0000
     21 C21        4.0598    6.8053    9.4602 C.ar      1 RES1    0.0000
     22 C22        5.2960    7.2822    8.9578 C.ar      1 RES1    0.0000
     23 C23        5.4611    7.8385    7.6232 C.ar      1 RES1    0.0000
     24 C24        4.4529    7.7589    6.5817 C.ar      1 RES1    0.0000
     25 C25        3.4863    6.6963    6.4298 C.ar      1 RES1    0.0000
     26 C26        3.7340    5.3171    6.8129 C.ar      1 RES1    0.0000
     27 H1         5.8008    5.4054    7.0147 H         1 RES1    0.0000
     28 H2         6.1515    3.0879    7.5171 H         1 RES1    0.0000
     29 H3         4.2666    1.6831    7.6689 H         1 RES1    0.0000
     30 H4         2.1625    2.4599    7.1804 H         1 RES1    0.0000
     31 H5         0.6429    4.1301    6.3797 H         1 RES1    0.0000
     32 H6         0.3507    6.2922    5.3522 H         1 RES1    0.0000
     33 H7         1.2858    8.3638    4.5323 H         1 RES1    0.0000
     34 H8         3.1707    9.8268    4.2915 H         1 RES1    0.0000
     35 H9         5.4647   10.3964    4.7748 H         1 RES1    0.0000
     36 H10        7.3935   10.0443    6.1582 H         1 RES1    0.0000
     37 H11        8.5186    9.0525    8.0405 H         1 RES1    0.0000
     38 H12        8.4163    7.9495   10.0990 H         1 RES1    0.0000
     39 H13        7.1012    6.9266   11.7755 H         1 RES1    0.0000
     40 H14        4.9241    6.0074   12.5588 H         1 RES1    0.0000
     41 H15        3.0611    6.0100   11.0289 H         1 RES1    0.0000
     42 H16        3.2730    6.8114    8.8953 H         1 RES1    0.0000
@<TRIPOS>BOND
     1    1    2 ar
     2    2    3 ar
     3    3    4 ar
     4    4    5 ar
     5    5    6 ar
     6    6    7 ar
     7    7    8 ar
     8    8    9 ar
     9    9   10 ar
    10   10   11 ar
    11   11   12 ar
    12   12   13 ar
    13   13   14 ar
    14   14   15 ar
    15   15   16 ar
    16   16   17 ar
    17   17   18 ar
    18   18   19 ar
    19   19   20 ar
    20   20   21 ar
    21   21   22 ar
    22   22   17 ar
    23   23   14 ar
    24   24   11 ar
    25   25    8 ar
    26   26    1 ar
    27   27    1 1
    28   28    2 1
    29   29    3 1
    30   30    4 1
    31   31    6 1
    32   32    7 1
    33   33    9 1
    34   34   10 1
    35   35   12 1
    36   36   13 1
    37   37   15 1
    38   38   16 1
    39   39   18 1
    40   40   19 1
    41   41   20 1
    42   42   21 1
    43    5   26 ar
    44   22   23 ar
    45   23   24 ar
    46   24   25 ar
    47   25   26 ar
@<TRIPOS>SUBSTRUCTURE
     1 RES1 1

@<TRIPOS>CRYSIN
   7.3058   12.9470   17.4452  90.0000  90.0000  90.0000  19 1

