# MOL2 file generated by ConQuest
# Please check atom types

@<TRIPOS>MOLECULE
HEXHEL04
    42    47     1
SMALL
NO_CHARGES
****
Generated from CSD

@<TRIPOS>ATOM
      1 C1         5.0716    4.9414    7.1427 C.ar      1 RES1    0.0000
      2 C2         5.2611    3.6138    7.4269 C.ar      1 RES1    0.0000
      3 C3         4.1818    2.7371    7.4675 C.ar      1 RES1    0.0000
      4 C4         2.9448    3.1948    7.1789 C.ar      1 RES1    0.0000
      5 C5         2.7186    4.5404    6.8277 C.ar      1 RES1    0.0000
      6 C6         1.4485    4.9784    6.3512 C.ar      1 RES1    0.0000
      7 C7         1.3054    6.1792    5.8093 C.ar      1 RES1    0.0000
      8 C8         2.3736    7.1354    5.7926 C.ar      1 RES1    0.0000
      9 C9         2.2664    8.3403    5.0607 C.ar      1 RES1    0.0000
     10 C10        3.3207    9.1597    4.9651 C.ar      1 RES1    0.0000
     11 C11        4.4939    8.9676    5.7439 C.ar      1 RES1    0.0000
     12 C12        5.6098    9.8239    5.6178 C.ar      1 RES1    0.0000
     13 C13        6.6949    9.6608    6.3864 C.ar      1 RES1    0.0000
     14 C14        6.6802    8.7593    7.4890 C.ar      1 RES1    0.0000
     15 C15        7.7572    8.7151    8.3897 C.ar      1 RES1    0.0000
     16 C16        7.6809    8.0417    9.5453 C.ar      1 RES1    0.0000
     17 C17        6.4512    7.4173    9.9484 C.ar      1 RES1    0.0000
     18 C18        6.2764    6.9000   11.2524 C.ar      1 RES1    0.0000
     19 C19        5.0944    6.4252   11.6686 C.ar      1 RES1    0.0000
     20 C20        3.9909    6.4374   10.8057 C.ar      1 RES1    0.0000
     21 C21        4.1268    6.9057    9.5247 C.ar      1 RES1    0.0000
     22 C22        5.3653    7.3840    9.0391 C.ar      1 RES1    0.0000
     23 C23        5.5349    7.9634    7.7117 C.ar      1 RES1    0.0000
     24 C24        4.5401    7.8957    6.6689 C.ar      1 RES1    0.0000
     25 C25        3.5717    6.8462    6.4882 C.ar      1 RES1    0.0000
     26 C26        3.7971    5.4595    6.8590 C.ar      1 RES1    0.0000
     27 H1         5.8513    5.5190    7.1216 H         1 RES1    0.0000
     28 H2         6.1891    3.3408    7.5437 H         1 RES1    0.0000
     29 H3         4.3169    1.8019    7.7266 H         1 RES1    0.0000
     30 H4         2.2025    2.5780    7.1585 H         1 RES1    0.0000
     31 H5         0.6681    4.2878    6.3969 H         1 RES1    0.0000
     32 H6         0.4846    6.4844    5.3592 H         1 RES1    0.0000
     33 H7         1.2995    8.5757    4.5554 H         1 RES1    0.0000
     34 H8         3.2671    9.9304    4.4147 H         1 RES1    0.0000
     35 H9         5.4696   10.5618    4.8720 H         1 RES1    0.0000
     36 H10        7.4225   10.1803    6.2510 H         1 RES1    0.0000
     37 H11        8.6338    9.2070    8.1470 H         1 RES1    0.0000
     38 H12        8.4356    8.0233   10.1310 H         1 RES1    0.0000
     39 H13        7.1141    6.9316   11.8019 H         1 RES1    0.0000
     40 H14        4.9630    6.0635   12.5758 H         1 RES1    0.0000
     41 H15        3.1202    6.0595   11.1423 H         1 RES1    0.0000
     42 H16        3.3625    6.9211    8.9332 H         1 RES1    0.0000
@<TRIPOS>BOND
     1    1    2 ar
     2    2    3 ar
     3    3    4 ar
     4    4    5 ar
     5    5    6 ar
     6    6    7 ar
     7    7    8 ar
     8    8    9 ar
     9    9   10 ar
    10   10   11 ar
    11   11   12 ar
    12   12   13 ar
    13   13   14 ar
    14   14   15 ar
    15   15   16 ar
    16   16   17 ar
    17   17   18 ar
    18   18   19 ar
    19   19   20 ar
    20   20   21 ar
    21   21   22 ar
    22   22   17 ar
    23   23   14 ar
    24   24   11 ar
    25   25    8 ar
    26   26    1 ar
    27   27    1 1
    28   28    2 1
    29   29    3 1
    30   30    4 1
    31   31    6 1
    32   32    7 1
    33   33    9 1
    34   34   10 1
    35   35   12 1
    36   36   13 1
    37   37   15 1
    38   38   16 1
    39   39   18 1
    40   40   19 1
    41   41   20 1
    42   42   21 1
    43    5   26 ar
    44   22   23 ar
    45   23   24 ar
    46   24   25 ar
    47   25   26 ar
@<TRIPOS>SUBSTRUCTURE
     1 RES1 1

@<TRIPOS>CRYSIN
   7.3417   13.1529   17.5885  90.0000  90.0000  90.0000  19 1

