# MOL2 file generated by ConQuest
# Please check atom types

@<TRIPOS>MOLECULE
HEXHEL
    42    47     1
SMALL
NO_CHARGES
****
Generated from CSD

@<TRIPOS>ATOM
      1 C1         3.6563   -9.5407    2.2913 C.ar      1 RES1    0.0000
      2 C2         8.0901   -8.0870    0.4318 C.ar      1 RES1    0.0000
      3 C3         7.3546  -10.2564   -0.5273 C.ar      1 RES1    0.0000
      4 C4         6.8065  -11.4655   -0.3907 C.ar      1 RES1    0.0000
      5 C5         5.9870  -13.2468    1.0987 C.ar      1 RES1    0.0000
      6 C6         5.6928  -13.7020    2.3486 C.ar      1 RES1    0.0000
      7 C7         5.7419  -12.8324    3.4319 C.ar      1 RES1    0.0000
      8 C8         6.0220  -11.4983    3.2446 C.ar      1 RES1    0.0000
      9 C9         6.3040  -10.9708    1.9623 C.ar      1 RES1    0.0000
     10 C10        6.3390  -11.9062    0.8769 C.ar      1 RES1    0.0000
     11 C11        6.6734   -9.5973    1.7332 C.ar      1 RES1    0.0000
     12 C12        2.3692  -10.0143    2.1584 C.ar      1 RES1    0.0000
     13 C13        7.3651   -9.3039    0.5413 C.ar      1 RES1    0.0000
     14 C14        6.4983   -8.5409    2.7019 C.ar      1 RES1    0.0000
     15 C15        7.4212   -7.4647    2.6556 C.ar      1 RES1    0.0000
     16 C16        5.4564   -8.4817    3.7043 C.ar      1 RES1    0.0000
     17 C17        5.6771   -7.6831    4.8434 C.ar      1 RES1    0.0000
     18 C18        4.1343   -9.0645    3.5273 C.ar      1 RES1    0.0000
     19 C19        3.2308   -9.0342    4.6164 C.ar      1 RES1    0.0000
     20 C20        1.5200  -10.0315    3.2527 C.ar      1 RES1    0.0000
     21 C21        1.9280   -9.5499    4.4372 C.ar      1 RES1    0.0000
     22 C22        3.6353   -8.4027    5.8532 C.ar      1 RES1    0.0000
     23 C23        4.7700   -7.7265    5.9273 C.ar      1 RES1    0.0000
     24 C24        6.7925   -6.7806    4.8426 C.ar      1 RES1    0.0000
     25 C25        7.5385   -6.6122    3.7800 C.ar      1 RES1    0.0000
     26 C26        8.1864   -7.2726    1.4769 C.ar      1 RES1    0.0000
     27 H1         4.1904   -9.4763    1.5151 H         1 RES1    0.0000
     28 H2         8.5506   -7.9528   -0.6441 H         1 RES1    0.0000
     29 H3         7.6120  -10.0209   -1.4475 H         1 RES1    0.0000
     30 H4         6.8713  -12.1732   -1.0583 H         1 RES1    0.0000
     31 H5         6.0395  -13.8296    0.3202 H         1 RES1    0.0000
     32 H6         5.3654  -14.7374    2.6277 H         1 RES1    0.0000
     33 H7         5.6158  -13.1047    4.2852 H         1 RES1    0.0000
     34 H8         6.0343  -10.8761    3.9915 H         1 RES1    0.0000
     35 H9         1.9735  -10.3906    1.1816 H         1 RES1    0.0000
     36 H10        0.6549  -10.3327    3.0683 H         1 RES1    0.0000
     37 H11        1.3011   -9.5802    5.2267 H         1 RES1    0.0000
     38 H12        3.0662   -8.4041    6.6860 H         1 RES1    0.0000
     39 H13        5.1815   -7.2187    6.8586 H         1 RES1    0.0000
     40 H14        7.0324   -6.1965    5.7327 H         1 RES1    0.0000
     41 H15        8.2214   -5.8742    3.6294 H         1 RES1    0.0000
     42 H16        8.7152   -6.4043    1.3888 H         1 RES1    0.0000
@<TRIPOS>BOND
     1    1   12 ar
     2    2   13 ar
     3    3    4 ar
     4    4   10 ar
     5    5    6 ar
     6    6    7 ar
     7    7    8 ar
     8    8    9 ar
     9    9   10 ar
    10   10    5 ar
    11   11    9 ar
    12   12   20 ar
    13   13    3 ar
    14   14   11 ar
    15   15   14 ar
    16   16   14 ar
    17   17   16 ar
    18   18    1 ar
    19   19   18 ar
    20   20   21 ar
    21   21   19 ar
    22   22   19 ar
    23   23   17 ar
    24   24   17 ar
    25   25   15 ar
    26   26    2 ar
    27   27    1 1
    28   28    2 1
    29   29    3 1
    30   30    4 1
    31   31    5 1
    32   32    6 1
    33   33    7 1
    34   34    8 1
    35   35   12 1
    36   36   20 1
    37   37   21 1
    38   38   22 1
    39   39   23 1
    40   40   24 1
    41   41   25 1
    42   42   26 1
    43   11   13 ar
    44   15   26 ar
    45   16   18 ar
    46   22   23 ar
    47   24   25 ar
@<TRIPOS>SUBSTRUCTURE
     1 RES1 1

@<TRIPOS>CRYSIN
  17.5110   13.1560    7.3440  90.0000  90.0000  90.0000  19 1

