# MOL2 file generated by ConQuest
# Please check atom types

@<TRIPOS>MOLECULE
HEYSOW
   196   220     2
SMALL
NO_CHARGES
****
Generated from CSD

@<TRIPOS>ATOM
      1 C1         1.7550    1.6903    7.5433 C.ar      1 RES1    0.0000
      2 C2         1.5748    0.3108    7.8325 C.ar      1 RES1    0.0000
      3 C3         2.6018   -0.4668    8.3282 C.ar      1 RES1    0.0000
      4 H1         2.4669   -1.3720    8.4916 H         1 RES1    0.0000
      5 C4         3.8440    0.1176    8.5821 C.ar      1 RES1    0.0000
      6 C5         4.9379   -0.6579    9.0801 C.ar      1 RES1    0.0000
      7 H2         4.8117   -1.5640    9.2515 H         1 RES1    0.0000
      8 C6         6.1482   -0.1062    9.3074 C.ar      1 RES1    0.0000
      9 H3         6.8341   -0.6369    9.6428 H         1 RES1    0.0000
     10 C7         6.4007    1.2721    9.0453 C.ar      1 RES1    0.0000
     11 C8         7.6705    1.8478    9.2063 C.ar      1 RES1    0.0000
     12 H4         8.3756    1.3241    9.5114 H         1 RES1    0.0000
     13 C9         7.8873    3.1797    8.9181 C.ar      1 RES1    0.0000
     14 H5         8.7393    3.5403    9.0101 H         1 RES1    0.0000
     15 C10        6.8422    3.9842    8.4916 C.ar      1 RES1    0.0000
     16 H6         6.9962    4.8861    8.3287 H         1 RES1    0.0000
     17 C11        5.5602    3.4587    8.3017 C.ar      1 RES1    0.0000
     18 C12        4.4777    4.2444    7.8260 C.ar      1 RES1    0.0000
     19 H7         4.6101    5.1544    7.6803 H         1 RES1    0.0000
     20 C13        3.2524    3.7078    7.5763 C.ar      1 RES1    0.0000
     21 H8         2.5726    4.2536    7.2532 H         1 RES1    0.0000
     22 C14        2.9921    2.3194    7.8028 C.ar      1 RES1    0.0000
     23 C15        4.0470    1.5079    8.3280 C.ar      1 RES1    0.0000
     24 C16        5.3319    2.0799    8.5680 C.ar      1 RES1    0.0000
     25 C17        0.4999    2.2138    7.0039 C.2       1 RES1    0.0000
     26 C18       -0.4258    1.1871    7.0135 C.2       1 RES1    0.0000
     27 C19       -1.8031    1.1912    6.6331 C.2       1 RES1    0.0000
     28 H9        -2.2102    1.9632    6.3105 H         1 RES1    0.0000
     29 C20       -2.4945    0.0340    6.7591 C.2       1 RES1    0.0000
     30 C21        0.2413    3.5917    6.5049 C.ar      1 RES1    0.0000
     31 C22       -0.2130    4.5829    7.3803 C.ar      1 RES1    0.0000
     32 C23       -0.4095    5.8767    6.9008 C.ar      1 RES1    0.0000
     33 H10       -0.7026    6.5352    7.4874 H         1 RES1    0.0000
     34 C24       -0.1805    6.2115    5.5716 C.ar      1 RES1    0.0000
     35 C25        0.2526    5.2066    4.7144 C.ar      1 RES1    0.0000
     36 H11        0.4061    5.4118    3.8209 H         1 RES1    0.0000
     37 C26        0.4631    3.9041    5.1532 C.ar      1 RES1    0.0000
     38 C27       -0.4363    4.2627    8.8319 C.3       1 RES1    0.0000
     39 H12       -0.7605    3.3636    8.9144 H         1 RES1    0.0000
     40 H13       -1.0831    4.8709    9.1986 H         1 RES1    0.0000
     41 H14        0.3922    4.3495    9.3100 H         1 RES1    0.0000
     42 C28        0.9614    2.8521    4.2014 C.3       1 RES1    0.0000
     43 H15        1.8637    2.6176    4.4279 H         1 RES1    0.0000
     44 H16        0.9362    3.1934    3.3052 H         1 RES1    0.0000
     45 H17        0.4019    2.0744    4.2636 H         1 RES1    0.0000
     46 C29       -0.4080    7.6147    5.0555 C.3       1 RES1    0.0000
     47 H18       -1.1411    7.6128    4.4350 H         1 RES1    0.0000
     48 H19        0.3848    7.9247    4.6122 H         1 RES1    0.0000
     49 H20       -0.6134    8.1974    5.7906 H         1 RES1    0.0000
     50 C30       -0.2232    8.7503    9.5844 C.ar      2 RES2    0.0000
     51 C31       -1.5456    8.8638    9.0661 C.ar      2 RES2    0.0000
     52 C32       -2.5643    8.0325    9.4881 C.ar      2 RES2    0.0000
     53 H21       -3.4240    8.1363    9.1500 H         2 RES2    0.0000
     54 C33       -2.2953    7.0315   10.4279 C.ar      2 RES2    0.0000
     55 C34       -3.3011    6.0985   10.8311 C.ar      2 RES2    0.0000
     56 H22       -4.1673    6.2036   10.5084 H         2 RES2    0.0000
     57 C35       -3.0335    5.0731   11.6631 C.ar      2 RES2    0.0000
     58 H23       -3.7115    4.4804   11.8925 H         2 RES2    0.0000
     59 C36       -1.7119    4.8835   12.2010 C.ar      2 RES2    0.0000
     60 C37       -1.3978    3.8083   13.0129 C.ar      2 RES2    0.0000
     61 H24       -2.0528    3.1782   13.2094 H         2 RES2    0.0000
     62 C38       -0.1198    3.6537   13.5410 C.ar      2 RES2    0.0000
     63 H25        0.0683    2.9317   14.0964 H         2 RES2    0.0000
     64 C39        0.8695    4.5703   13.2417 C.ar      2 RES2    0.0000
     65 H26        1.7190    4.4630   13.6065 H         2 RES2    0.0000
     66 C40        0.6123    5.6550   12.3996 C.ar      2 RES2    0.0000
     67 C41        1.6165    6.5904   12.0299 C.ar      2 RES2    0.0000
     68 H27        2.4658    6.5112   12.4010 H         2 RES2    0.0000
     69 C42        1.3722    7.5982   11.1502 C.ar      2 RES2    0.0000
     70 H28        2.0593    8.1821   10.9241 H         2 RES2    0.0000
     71 C43        0.0743    7.7786   10.5635 C.ar      2 RES2    0.0000
     72 C44       -0.9741    6.8982   10.9688 C.ar      2 RES2    0.0000
     73 C45       -0.7040    5.8287   11.8693 C.ar      2 RES2    0.0000
     74 C46        0.6205    9.7214    8.8972 C.2       2 RES2    0.0000
     75 C47       -0.1656   10.4040    7.9844 C.2       2 RES2    0.0000
     76 C48        0.1975   11.4168    7.0496 C.2       2 RES2    0.0000
     77 H29        1.0700   11.7354    7.0004 H         2 RES2    0.0000
     78 C49       -0.7716   11.8999    6.2342 C.2       2 RES2    0.0000
     79 C50        2.0797    9.9791    9.0345 C.ar      2 RES2    0.0000
     80 C51        2.5349   11.1596    9.6390 C.ar      2 RES2    0.0000
     81 C52        3.9055   11.4231    9.6528 C.ar      2 RES2    0.0000
     82 H30        4.2107   12.1957   10.0699 H         2 RES2    0.0000
     83 C53        4.8265   10.5698    9.0663 C.ar      2 RES2    0.0000
     84 C54        4.3494    9.3901    8.4991 C.ar      2 RES2    0.0000
     85 H31        4.9578    8.7929    8.1273 H         2 RES2    0.0000
     86 C55        3.0003    9.0725    8.4696 C.ar      2 RES2    0.0000
     87 C56        1.5793   12.1490   10.2569 C.3       2 RES2    0.0000
     88 H32        1.2651   12.7541    9.5814 H         2 RES2    0.0000
     89 H33        2.0316   12.6429   10.9441 H         2 RES2    0.0000
     90 H34        0.8337   11.6787   10.6384 H         2 RES2    0.0000
     91 C57        2.5266    7.8067    7.8202 C.3       2 RES2    0.0000
     92 H35        2.0517    7.2747    8.4630 H         2 RES2    0.0000
     93 H36        3.2820    7.3139    7.4917 H         2 RES2    0.0000
     94 H37        1.9431    8.0207    7.0889 H         2 RES2    0.0000
     95 C58        6.2942   10.8917    9.0056 C.3       2 RES2    0.0000
     96 H38        6.4515   11.7464    9.4129 H         2 RES2    0.0000
     97 H39        6.5784   10.9175    8.0888 H         2 RES2    0.0000
     98 H40        6.7901   10.2173    9.4757 H         2 RES2    0.0000
     99 C1B       -4.0621   -1.6903    6.7403 C.ar      1 RES1    0.0000
    100 C2B       -3.8819   -0.3108    6.4510 C.ar      1 RES1    0.0000
    101 C3B       -4.9089    0.4668    5.9554 C.ar      1 RES1    0.0000
    102 H1B       -4.7739    1.3720    5.7920 H         1 RES1    0.0000
    103 C4B       -6.1511   -0.1176    5.7014 C.ar      1 RES1    0.0000
    104 C5B       -7.2450    0.6579    5.2035 C.ar      1 RES1    0.0000
    105 H2B       -7.1187    1.5640    5.0321 H         1 RES1    0.0000
    106 C6B       -8.4552    0.1062    4.9761 C.ar      1 RES1    0.0000
    107 H3B       -9.1412    0.6369    4.6407 H         1 RES1    0.0000
    108 C7B       -8.7077   -1.2721    5.2382 C.ar      1 RES1    0.0000
    109 C8B       -9.9776   -1.8478    5.0772 C.ar      1 RES1    0.0000
    110 H4B      -10.6826   -1.3241    4.7721 H         1 RES1    0.0000
    111 C9B      -10.1944   -3.1797    5.3655 C.ar      1 RES1    0.0000
    112 H5B      -11.0463   -3.5403    5.2735 H         1 RES1    0.0000
    113 C10B      -9.1493   -3.9842    5.7920 C.ar      1 RES1    0.0000
    114 H6B       -9.3033   -4.8861    5.9548 H         1 RES1    0.0000
    115 C11B      -7.8672   -3.4587    5.9818 C.ar      1 RES1    0.0000
    116 C12B      -6.7847   -4.2444    6.4576 C.ar      1 RES1    0.0000
    117 H7B       -6.9172   -5.1544    6.6033 H         1 RES1    0.0000
    118 C13B      -5.5595   -3.7078    6.7073 C.ar      1 RES1    0.0000
    119 H8B       -4.8797   -4.2536    7.0304 H         1 RES1    0.0000
    120 C14B      -5.2991   -2.3194    6.4807 C.ar      1 RES1    0.0000
    121 C15B      -6.3541   -1.5079    5.9555 C.ar      1 RES1    0.0000
    122 C16B      -7.6389   -2.0799    5.7156 C.ar      1 RES1    0.0000
    123 C17B      -2.8070   -2.2138    7.2796 C.2       1 RES1    0.0000
    124 C18B      -1.8812   -1.1871    7.2700 C.2       1 RES1    0.0000
    125 C19B      -0.5040   -1.1912    7.6504 C.2       1 RES1    0.0000
    126 H9B       -0.0969   -1.9632    7.9731 H         1 RES1    0.0000
    127 C20B       0.1875   -0.0340    7.5244 C.2       1 RES1    0.0000
    128 C21B      -2.5483   -3.5917    7.7787 C.ar      1 RES1    0.0000
    129 C22B      -2.0941   -4.5829    6.9032 C.ar      1 RES1    0.0000
    130 C23B      -1.8976   -5.8767    7.3827 C.ar      1 RES1    0.0000
    131 H10B      -1.6044   -6.5352    6.7961 H         1 RES1    0.0000
    132 C24B      -2.1266   -6.2115    8.7120 C.ar      1 RES1    0.0000
    133 C25B      -2.5597   -5.2066    9.5691 C.ar      1 RES1    0.0000
    134 H11B      -2.7132   -5.4118   10.4627 H         1 RES1    0.0000
    135 C26B      -2.7702   -3.9041    9.1303 C.ar      1 RES1    0.0000
    136 C27B      -1.8707   -4.2627    5.4516 C.3       1 RES1    0.0000
    137 H12B      -1.5465   -3.3636    5.3692 H         1 RES1    0.0000
    138 H13B      -1.2240   -4.8709    5.0849 H         1 RES1    0.0000
    139 H14B      -2.6993   -4.3495    4.9735 H         1 RES1    0.0000
    140 C28B      -3.2685   -2.8521   10.0822 C.3       1 RES1    0.0000
    141 H15B      -4.1708   -2.6176    9.8557 H         1 RES1    0.0000
    142 H16B      -3.2432   -3.1934   10.9783 H         1 RES1    0.0000
    143 H17B      -2.7090   -2.0744   10.0199 H         1 RES1    0.0000
    144 C29B      -1.8991   -7.6147    9.2280 C.3       1 RES1    0.0000
    145 H18B      -1.1660   -7.6128    9.8485 H         1 RES1    0.0000
    146 H19B      -2.6918   -7.9247    9.6714 H         1 RES1    0.0000
    147 H20B      -1.6937   -8.1974    8.4930 H         1 RES1    0.0000
    148 C30B      -2.0838   13.0628    4.6991 C.ar      2 RES2    0.0000
    149 C31B      -0.7615   12.9493    5.2175 C.ar      2 RES2    0.0000
    150 C32B       0.2573   13.7806    4.7954 C.ar      2 RES2    0.0000
    151 H21B       1.1170   13.6768    5.1335 H         2 RES2    0.0000
    152 C33B      -0.0118   14.7816    3.8557 C.ar      2 RES2    0.0000
    153 C34B       0.9940   15.7146    3.4525 C.ar      2 RES2    0.0000
    154 H22B       1.8602   15.6095    3.7751 H         2 RES2    0.0000
    155 C35B       0.7264   16.7400    2.6205 C.ar      2 RES2    0.0000
    156 H23B       1.4045   17.3327    2.3911 H         2 RES2    0.0000
    157 C36B      -0.5951   16.9296    2.0825 C.ar      2 RES2    0.0000
    158 C37B      -0.9093   18.0048    1.2707 C.ar      2 RES2    0.0000
    159 H24B      -0.2543   18.6349    1.0741 H         2 RES2    0.0000
    160 C38B      -2.1873   18.1594    0.7426 C.ar      2 RES2    0.0000
    161 H25B      -2.3754   18.8814    0.1871 H         2 RES2    0.0000
    162 C39B      -3.1766   17.2428    1.0418 C.ar      2 RES2    0.0000
    163 H26B      -4.0261   17.3501    0.6770 H         2 RES2    0.0000
    164 C40B      -2.9193   16.1581    1.8840 C.ar      2 RES2    0.0000
    165 C41B      -3.9236   15.2227    2.2537 C.ar      2 RES2    0.0000
    166 H27B      -4.7728   15.3019    1.8826 H         2 RES2    0.0000
    167 C42B      -3.6793   14.2149    3.1334 C.ar      2 RES2    0.0000
    168 H28B      -4.3663   13.6310    3.3595 H         2 RES2    0.0000
    169 C43B      -2.3814   14.0345    3.7200 C.ar      2 RES2    0.0000
    170 C44B      -1.3329   14.9149    3.3148 C.ar      2 RES2    0.0000
    171 C45B      -1.6030   15.9844    2.4142 C.ar      2 RES2    0.0000
    172 C46B      -2.9275   12.0917    5.3863 C.2       2 RES2    0.0000
    173 C47B      -2.1414   11.4091    6.2992 C.2       2 RES2    0.0000
    174 C48B      -2.5045   10.3963    7.2339 C.2       2 RES2    0.0000
    175 H29B      -3.3771   10.0777    7.2832 H         2 RES2    0.0000
    176 C49B      -1.5355    9.9132    8.0494 C.2       2 RES2    0.0000
    177 C50B      -4.3867   11.8340    5.2491 C.ar      2 RES2    0.0000
    178 C51B      -4.8420   10.6535    4.6446 C.ar      2 RES2    0.0000
    179 C52B      -6.2126   10.3900    4.6307 C.ar      2 RES2    0.0000
    180 H30B      -6.5178    9.6174    4.2136 H         2 RES2    0.0000
    181 C53B      -7.1336   11.2433    5.2172 C.ar      2 RES2    0.0000
    182 C54B      -6.6564   12.4230    5.7844 C.ar      2 RES2    0.0000
    183 H31B      -7.2648   13.0202    6.1562 H         2 RES2    0.0000
    184 C55B      -5.3073   12.7406    5.8140 C.ar      2 RES2    0.0000
    185 C56B      -3.8864    9.6641    4.0267 C.3       2 RES2    0.0000
    186 H32B      -3.5722    9.0590    4.7021 H         2 RES2    0.0000
    187 H33B      -4.3386    9.1702    3.3395 H         2 RES2    0.0000
    188 H34B      -3.1408   10.1344    3.6452 H         2 RES2    0.0000
    189 C57B      -4.8336   14.0064    6.4633 C.3       2 RES2    0.0000
    190 H35B      -4.3587   14.5384    5.8205 H         2 RES2    0.0000
    191 H36B      -5.5890   14.4992    6.7918 H         2 RES2    0.0000
    192 H37B      -4.2502   13.7924    7.1946 H         2 RES2    0.0000
    193 C58B      -8.6013   10.9214    5.2779 C.3       2 RES2    0.0000
    194 H38B      -8.7585   10.0667    4.8707 H         2 RES2    0.0000
    195 H39B      -8.8855   10.8956    6.1948 H         2 RES2    0.0000
    196 H40B      -9.0972   11.5958    4.8078 H         2 RES2    0.0000
@<TRIPOS>BOND
     1    1    2 ar
     2    2    3 ar
     3    3    4 1
     4    5    3 ar
     5    6    5 ar
     6    7    6 1
     7    8    6 ar
     8    9    8 1
     9   10    8 ar
    10   11   10 ar
    11   12   11 1
    12   13   11 ar
    13   14   13 1
    14   15   13 ar
    15   16   15 1
    16   17   15 ar
    17   18   17 ar
    18   19   18 1
    19   20   18 ar
    20   21   20 1
    21   22    1 ar
    22   23    5 ar
    23   24   10 ar
    24   25    1 1
    25   26   25 2
    26   27   26 1
    27   28   27 1
    28   29   27 2
    29   30   25 1
    30   31   30 ar
    31   32   31 ar
    32   33   32 1
    33   34   32 ar
    34   35   34 ar
    35   36   35 1
    36   37   30 ar
    37   38   31 1
    38   39   38 1
    39   40   38 1
    40   41   38 1
    41   42   37 1
    42   43   42 1
    43   44   42 1
    44   45   42 1
    45   46   34 1
    46   47   46 1
    47   48   46 1
    48   49   46 1
    49   50   51 ar
    50   51   52 ar
    51   52   53 1
    52   54   52 ar
    53   55   54 ar
    54   56   55 1
    55   57   55 ar
    56   58   57 1
    57   59   57 ar
    58   60   59 ar
    59   61   60 1
    60   62   60 ar
    61   63   62 1
    62   64   62 ar
    63   65   64 1
    64   66   64 ar
    65   67   66 ar
    66   68   67 1
    67   69   67 ar
    68   70   69 1
    69   71   50 ar
    70   72   54 ar
    71   73   59 ar
    72   74   50 1
    73   75   74 2
    74   76   75 1
    75   77   76 1
    76   78   76 2
    77   79   74 1
    78   80   79 ar
    79   81   80 ar
    80   82   81 1
    81   83   81 ar
    82   84   83 ar
    83   85   84 1
    84   86   79 ar
    85   87   80 1
    86   88   87 1
    87   89   87 1
    88   90   87 1
    89   91   86 1
    90   92   91 1
    91   93   91 1
    92   94   91 1
    93   95   83 1
    94   96   95 1
    95   97   95 1
    96   98   95 1
    97   99  100 ar
    98  100   29 1
    99  101  100 ar
   100  102  101 1
   101  103  101 ar
   102  104  103 ar
   103  105  104 1
   104  106  104 ar
   105  107  106 1
   106  108  106 ar
   107  109  108 ar
   108  110  109 1
   109  111  109 ar
   110  112  111 1
   111  113  111 ar
   112  114  113 1
   113  115  113 ar
   114  116  115 ar
   115  117  116 1
   116  118  116 ar
   117  119  118 1
   118  120   99 ar
   119  121  103 ar
   120  122  108 ar
   121  123   99 1
   122  124   29 1
   123  125  124 1
   124  126  125 1
   125  127    2 1
   126  128  123 1
   127  129  128 ar
   128  130  129 ar
   129  131  130 1
   130  132  130 ar
   131  133  132 ar
   132  134  133 1
   133  135  128 ar
   134  136  129 1
   135  137  136 1
   136  138  136 1
   137  139  136 1
   138  140  135 1
   139  141  140 1
   140  142  140 1
   141  143  140 1
   142  144  132 1
   143  145  144 1
   144  146  144 1
   145  147  144 1
   146  148  149 ar
   147  149   78 1
   148  150  149 ar
   149  151  150 1
   150  152  150 ar
   151  153  152 ar
   152  154  153 1
   153  155  153 ar
   154  156  155 1
   155  157  155 ar
   156  158  157 ar
   157  159  158 1
   158  160  158 ar
   159  161  160 1
   160  162  160 ar
   161  163  162 1
   162  164  162 ar
   163  165  164 ar
   164  166  165 1
   165  167  165 ar
   166  168  167 1
   167  169  148 ar
   168  170  152 ar
   169  171  157 ar
   170  172  148 1
   171  173   78 1
   172  174  173 1
   173  175  174 1
   174  176   51 1
   175  177  172 1
   176  178  177 ar
   177  179  178 ar
   178  180  179 1
   179  181  179 ar
   180  182  181 ar
   181  183  182 1
   182  184  177 ar
   183  185  178 1
   184  186  185 1
   185  187  185 1
   186  188  185 1
   187  189  184 1
   188  190  189 1
   189  191  189 1
   190  192  189 1
   191  193  181 1
   192  194  193 1
   193  195  193 1
   194  196  193 1
   195   17   24 ar
   196   20   22 ar
   197   22   23 ar
   198   23   24 ar
   199   26  127 1
   200   35   37 ar
   201   66   73 ar
   202   69   71 ar
   203   71   72 ar
   204   72   73 ar
   205   75  176 1
   206   84   86 ar
   207  115  122 ar
   208  118  120 ar
   209  120  121 ar
   210  121  122 ar
   211  123  124 2
   212  125  127 2
   213  133  135 ar
   214  164  171 ar
   215  167  169 ar
   216  169  170 ar
   217  170  171 ar
   218  172  173 2
   219  174  176 2
   220  182  184 ar
@<TRIPOS>SUBSTRUCTURE
     1 RES1 1
     2 RES2 50

@<TRIPOS>CRYSIN
  12.2399   21.8131   14.4687  90.0000  99.1751  90.0000 231 1

