# MOL2 file generated by ConQuest
# Please check atom types

@<TRIPOS>MOLECULE
HICFAD
    68    74     1
SMALL
NO_CHARGES
****
Generated from CSD

@<TRIPOS>ATOM
      1 C1         9.4159    0.3367   15.7941 C.ar      1 RES1    0.0000
      2 C2         9.7250    0.3217   14.4463 C.ar      1 RES1    0.0000
      3 C3         8.8447    0.8233   13.4905 C.ar      1 RES1    0.0000
      4 C4         7.6769    1.4182   13.8825 C.ar      1 RES1    0.0000
      5 C5         5.2670    2.8275   14.7469 C.ar      1 RES1    0.0000
      6 C6         4.0819    3.3914   15.1145 C.ar      1 RES1    0.0000
      7 C7         3.6722    3.3295   16.4414 C.ar      1 RES1    0.0000
      8 C8         4.4455    2.7179   17.4148 C.ar      1 RES1    0.0000
      9 C9         6.4127    1.2116   17.9337 C.ar      1 RES1    0.0000
     10 C10        7.5954    0.6085   17.5247 C.ar      1 RES1    0.0000
     11 C11        8.1394    0.8306   16.2006 C.ar      1 RES1    0.0000
     12 C12        7.2986    1.4634   15.2426 C.ar      1 RES1    0.0000
     13 C13        6.0691    2.1208   15.6719 C.ar      1 RES1    0.0000
     14 C14        5.6486    2.0561   17.0314 C.ar      1 RES1    0.0000
     15 C15       10.4886   -0.0528   16.7469 C.ar      1 RES1    0.0000
     16 C16       11.2591   -1.2005   16.5283 C.ar      1 RES1    0.0000
     17 C17       12.3128   -1.5178   17.3692 C.ar      1 RES1    0.0000
     18 C18       12.6127   -0.6936   18.4436 C.ar      1 RES1    0.0000
     19 C19       11.8731    0.4567   18.6616 C.ar      1 RES1    0.0000
     20 C20       10.8166    0.7740   17.8231 C.ar      1 RES1    0.0000
     21 C21        8.1248   -0.4248   18.3651 C.1       1 RES1    0.0000
     22 C22        8.3783   -1.3907   19.0308 C.1       1 RES1    0.0000
     23 C23        8.6183   -2.5860   19.7892 C.ar      1 RES1    0.0000
     24 C24        9.7737   -3.3414   19.6033 C.ar      1 RES1    0.0000
     25 C25        9.9721   -4.5040   20.3315 C.ar      1 RES1    0.0000
     26 C26        9.0216   -4.9247   21.2381 C.ar      1 RES1    0.0000
     27 C27        7.8694   -4.1836   21.4342 C.ar      1 RES1    0.0000
     28 C28        7.6575   -3.0208   20.7158 C.ar      1 RES1    0.0000
     29 C29        5.9310    0.8508   19.2362 C.1       1 RES1    0.0000
     30 C30        5.6697    0.4522   20.3334 C.1       1 RES1    0.0000
     31 C31        5.4396   -0.0094   21.6763 C.ar      1 RES1    0.0000
     32 C32        6.4474    0.0938   22.6262 C.ar      1 RES1    0.0000
     33 C33        6.2540   -0.3933   23.9137 C.ar      1 RES1    0.0000
     34 C34        5.0539   -0.9805   24.2546 C.ar      1 RES1    0.0000
     35 C35        4.0461   -1.0821   23.3203 C.ar      1 RES1    0.0000
     36 C36        4.2314   -0.5989   22.0418 C.ar      1 RES1    0.0000
     37 C37        3.9623    2.8616   18.8171 C.ar      1 RES1    0.0000
     38 C38        4.7216    3.5222   19.7846 C.ar      1 RES1    0.0000
     39 C39        4.2279    3.7231   21.0638 C.ar      1 RES1    0.0000
     40 C40        2.9703    3.2529   21.4022 C.ar      1 RES1    0.0000
     41 C41        2.2012    2.6119   20.4544 C.ar      1 RES1    0.0000
     42 C42        2.6903    2.4153   19.1762 C.ar      1 RES1    0.0000
     43 H1        10.5336   -0.0507   14.1775 H         1 RES1    0.0000
     44 H2         9.0552    0.7654   12.5864 H         1 RES1    0.0000
     45 H3         7.1215    1.8095   13.2475 H         1 RES1    0.0000
     46 H4         5.5672    2.9214   13.8717 H         1 RES1    0.0000
     47 H5         3.5617    3.8185   14.4728 H         1 RES1    0.0000
     48 H6         2.8442    3.6833   16.6742 H         1 RES1    0.0000
     49 H7        11.0463   -1.7669   15.8222 H         1 RES1    0.0000
     50 H8        12.8526   -2.2549   17.1952 H         1 RES1    0.0000
     51 H9        13.2799   -0.9305   19.0465 H         1 RES1    0.0000
     52 H10       12.0932    1.0224   19.3662 H         1 RES1    0.0000
     53 H11       10.3243    1.5472   17.9814 H         1 RES1    0.0000
     54 H12       10.4186   -3.0613   18.9945 H         1 RES1    0.0000
     55 H13       10.7488   -5.0009   20.2096 H         1 RES1    0.0000
     56 H14        9.1715   -5.7146   21.7055 H         1 RES1    0.0000
     57 H15        7.2349   -4.4739   22.0489 H         1 RES1    0.0000
     58 H16        6.8833   -2.5191   20.8331 H         1 RES1    0.0000
     59 H17        7.2678    0.4608   22.3873 H         1 RES1    0.0000
     60 H18        6.9228   -0.3038   24.5536 H         1 RES1    0.0000
     61 H19        4.9195   -1.3140   25.1122 H         1 RES1    0.0000
     62 H20        3.2310   -1.4663   23.5503 H         1 RES1    0.0000
     63 H21        3.5452   -0.6646   21.4176 H         1 RES1    0.0000
     64 H22        5.5677    3.8460   19.5743 H         1 RES1    0.0000
     65 H23        4.7343    4.1697   21.7034 H         1 RES1    0.0000
     66 H24        2.6518    3.3808   22.2666 H         1 RES1    0.0000
     67 H25        1.3549    2.3008   20.6823 H         1 RES1    0.0000
     68 H26        2.1622    1.9970   18.5350 H         1 RES1    0.0000
@<TRIPOS>BOND
     1    1    2 ar
     2    2    3 ar
     3    3    4 ar
     4    4   12 ar
     5    5    6 ar
     6    6    7 ar
     7    7    8 ar
     8    8   14 ar
     9    9   10 ar
    10   10   11 ar
    11   11    1 ar
    12   12   11 ar
    13   13    5 ar
    14   14    9 ar
    15   15    1 1
    16   16   15 ar
    17   17   16 ar
    18   18   17 ar
    19   19   18 ar
    20   20   15 ar
    21   21   10 1
    22   22   21 3
    23   23   22 1
    24   24   23 ar
    25   25   24 ar
    26   26   25 ar
    27   27   26 ar
    28   28   23 ar
    29   29    9 1
    30   30   29 3
    31   31   30 1
    32   32   31 ar
    33   33   32 ar
    34   34   33 ar
    35   35   34 ar
    36   36   31 ar
    37   37    8 1
    38   38   37 ar
    39   39   38 ar
    40   40   39 ar
    41   41   40 ar
    42   42   37 ar
    43   43    2 1
    44   44    3 1
    45   45    4 1
    46   46    5 1
    47   47    6 1
    48   48    7 1
    49   49   16 1
    50   50   17 1
    51   51   18 1
    52   52   19 1
    53   53   20 1
    54   54   24 1
    55   55   25 1
    56   56   26 1
    57   57   27 1
    58   58   28 1
    59   59   32 1
    60   60   33 1
    61   61   34 1
    62   62   35 1
    63   63   36 1
    64   64   38 1
    65   65   39 1
    66   66   40 1
    67   67   41 1
    68   68   42 1
    69   12   13 ar
    70   13   14 ar
    71   19   20 ar
    72   27   28 ar
    73   35   36 ar
    74   41   42 ar
@<TRIPOS>SUBSTRUCTURE
     1 RES1 1

@<TRIPOS>CRYSIN
  12.5695   14.7042   30.7932  90.0000  90.0000  90.0000  61 1

