# MOL2 file generated by ConQuest
# Please check atom types

@<TRIPOS>MOLECULE
HINDPN
    46    52     1
SMALL
NO_CHARGES
****
Generated from CSD

@<TRIPOS>ATOM
      1 C1         1.2285    5.6143    0.8264 C.2       1 RES1    0.0000
      2 C2         0.0319    5.1804    0.4405 C.2       1 RES1    0.0000
      3 C3        -0.9860    6.0640    0.9262 C.ar      1 RES1    0.0000
      4 C4        -2.3632    6.0435    0.7053 C.ar      1 RES1    0.0000
      5 C5        -3.1067    7.0718    1.1457 C.ar      1 RES1    0.0000
      6 C6        -2.5376    8.1707    1.8377 C.ar      1 RES1    0.0000
      7 C7        -3.2899    9.3640    2.0799 C.ar      1 RES1    0.0000
      8 C8        -2.7128   10.4787    2.5363 C.ar      1 RES1    0.0000
      9 C9        -1.3560   10.4787    2.9209 C.ar      1 RES1    0.0000
     10 C10       -0.6638   11.7003    3.2509 C.ar      1 RES1    0.0000
     11 C11       -0.6302    9.2681    2.9834 C.ar      1 RES1    0.0000
     12 C12       -1.1657    8.1487    2.2169 C.ar      1 RES1    0.0000
     13 C13       -0.4010    7.0765    1.6940 C.ar      1 RES1    0.0000
     14 C14        1.0842    6.8312    1.6780 C.3       1 RES1    0.0000
     15 H1         2.0552    5.2087    0.5935 H         1 RES1    0.0000
     16 H2        -0.1248    4.4006   -0.0798 H         1 RES1    0.0000
     17 H3        -2.7686    5.3156    0.2502 H         1 RES1    0.0000
     18 H4        -4.0431    7.0639    0.9900 H         1 RES1    0.0000
     19 H5        -4.2246    9.3640    1.9096 H         1 RES1    0.0000
     20 H6        -3.2218   11.2774    2.6042 H         1 RES1    0.0000
     21 H7        -1.1533   12.5069    3.3613 H         1 RES1    0.0000
     22 H8         1.4117    6.6708    2.5549 H         1 RES1    0.0000
     23 H9         1.5463    7.5686    1.2974 H         1 RES1    0.0000
     24 C10F       0.6638   11.7003    3.4026 C.ar      1 RES1    0.0000
     25 C11F       0.6302    9.2681    3.6701 C.ar      1 RES1    0.0000
     26 C9F        1.3560   10.4787    3.7326 C.ar      1 RES1    0.0000
     27 H7F        1.1533   12.5069    3.2922 H         1 RES1    0.0000
     28 C12F       1.1657    8.1487    4.4366 C.ar      1 RES1    0.0000
     29 C8F        2.7128   10.4787    4.1172 C.2       1 RES1    0.0000
     30 C6F        2.5376    8.1707    4.8158 C.ar      1 RES1    0.0000
     31 C13F       0.4010    7.0765    4.9595 C.ar      1 RES1    0.0000
     32 C7F        3.2899    9.3640    4.5736 C.2       1 RES1    0.0000
     33 H6F        3.2218   11.2774    4.0493 H         1 RES1    0.0000
     34 C5F        3.1067    7.0718    5.5078 C.ar      1 RES1    0.0000
     35 C3F        0.9860    6.0640    5.7273 C.ar      1 RES1    0.0000
     36 C14F      -1.0842    6.8312    4.9755 C.3       1 RES1    0.0000
     37 H5F        4.2246    9.3640    4.7439 H         1 RES1    0.0000
     38 C4F        2.3632    6.0435    5.9482 C.ar      1 RES1    0.0000
     39 H4F        4.0431    7.0639    5.6635 H         1 RES1    0.0000
     40 C2F       -0.0319    5.1804    6.2130 C.2       1 RES1    0.0000
     41 C1F       -1.2285    5.6143    5.8271 C.2       1 RES1    0.0000
     42 H8F       -1.4117    6.6708    4.0986 H         1 RES1    0.0000
     43 H9F       -1.5463    7.5686    5.3561 H         1 RES1    0.0000
     44 H3F        2.7686    5.3156    6.4033 H         1 RES1    0.0000
     45 H2F        0.1248    4.4006    6.7333 H         1 RES1    0.0000
     46 H1F       -2.0552    5.2087    6.0600 H         1 RES1    0.0000
@<TRIPOS>BOND
     1    1    2 2
     2    2    3 1
     3    3    4 ar
     4    4    5 ar
     5    5    6 ar
     6    6    7 ar
     7    7    8 ar
     8    8    9 ar
     9    9   10 ar
    10   10   21 1
    11   11    9 ar
    12   12    6 ar
    13   13    3 ar
    14   14    1 1
    15   15    1 1
    16   16    2 1
    17   17    4 1
    18   18    5 1
    19   19    7 1
    20   20    8 1
    21   22   14 1
    22   23   14 1
    23   24   10 ar
    24   25   11 ar
    25   26   24 ar
    26   27   24 1
    27   28   25 1
    28   29   26 1
    29   30   28 ar
    30   31   28 ar
    31   32   29 2
    32   33   29 1
    33   34   30 ar
    34   35   31 ar
    35   36   31 1
    36   37   32 1
    37   38   34 ar
    38   39   34 1
    39   40   35 1
    40   41   36 1
    41   42   36 1
    42   43   36 1
    43   44   38 1
    44   45   40 1
    45   46   41 1
    46   11   12 ar
    47   12   13 ar
    48   13   14 1
    49   25   26 ar
    50   30   32 1
    51   35   38 ar
    52   40   41 2
@<TRIPOS>SUBSTRUCTURE
     1 RES1 1

@<TRIPOS>CRYSIN
   8.8510   15.7220   13.3070  90.0000  90.0000  90.0000  60 1

