# MOL2 file generated by ConQuest
# Please check atom types

@<TRIPOS>MOLECULE
HIPWEJ
    46    51     1
SMALL
NO_CHARGES
****
Generated from CSD

@<TRIPOS>ATOM
      1 C1        -2.3026    0.2008    9.9038 C.ar      1 RES1    0.0000
      2 H1        -2.9837    0.1877   10.5378 H         1 RES1    0.0000
      3 C2        -2.3189   -0.7123    8.8679 C.ar      1 RES1    0.0000
      4 H2        -3.0279   -1.3092    8.7932 H         1 RES1    0.0000
      5 C3        -1.3108   -0.7500    7.9576 C.ar      1 RES1    0.0000
      6 H3        -1.3126   -1.4071    7.2999 H         1 RES1    0.0000
      7 C4        -0.2672    0.1889    7.9964 C.ar      1 RES1    0.0000
      8 C5         0.8068    0.2077    7.0156 C.ar      1 RES1    0.0000
      9 C6         0.9611   -0.7939    6.0368 C.ar      1 RES1    0.0000
     10 H4         0.3685   -1.5113    6.0182 H         1 RES1    0.0000
     11 C7         1.9642   -0.7274    5.1188 C.ar      1 RES1    0.0000
     12 H5         2.0502   -1.4015    4.4826 H         1 RES1    0.0000
     13 C8         2.8559    0.3282    5.1174 C.ar      1 RES1    0.0000
     14 H6         3.5219    0.3715    4.4707 H         1 RES1    0.0000
     15 C9         2.7606    1.3017    6.0592 C.ar      1 RES1    0.0000
     16 H7         3.3780    1.9977    6.0658 H         1 RES1    0.0000
     17 C10        1.7366    1.2671    7.0241 C.ar      1 RES1    0.0000
     18 C11        1.6162    2.2839    8.0169 C.ar      1 RES1    0.0000
     19 H8         2.2013    3.0063    7.9969 H         1 RES1    0.0000
     20 C12        0.6833    2.2293    8.9773 C.ar      1 RES1    0.0000
     21 H9         0.6652    2.8876    9.6344 H         1 RES1    0.0000
     22 C13       -0.2900    1.1736    9.0121 C.ar      1 RES1    0.0000
     23 C14       -1.2921    1.1322   10.0111 C.ar      1 RES1    0.0000
     24 C15       -1.2614    2.0692   11.1751 C.ar      1 RES1    0.0000
     25 C16       -0.3103    1.8835   12.2171 C.ar      1 RES1    0.0000
     26 C17        0.5400    0.7418   12.2545 C.ar      1 RES1    0.0000
     27 H10        0.5005    0.1261   11.5589 H         1 RES1    0.0000
     28 C18        1.3997    0.5272   13.2650 C.ar      1 RES1    0.0000
     29 H11        1.9153   -0.2460   13.2691 H         1 RES1    0.0000
     30 C19        1.5343    1.4630   14.3314 C.ar      1 RES1    0.0000
     31 C20        2.4901    1.2653   15.3508 C.ar      1 RES1    0.0000
     32 H12        3.0215    0.5021   15.3431 H         1 RES1    0.0000
     33 C21        2.6391    2.1803   16.3430 C.ar      1 RES1    0.0000
     34 H13        3.2765    2.0460   17.0057 H         1 RES1    0.0000
     35 C22        1.8478    3.3062   16.3695 C.ar      1 RES1    0.0000
     36 H14        1.9505    3.9194   17.0612 H         1 RES1    0.0000
     37 C23        0.9126    3.5416   15.3957 C.ar      1 RES1    0.0000
     38 H15        0.3975    4.3154   15.4264 H         1 RES1    0.0000
     39 C24        0.7265    2.6146   14.3467 C.ar      1 RES1    0.0000
     40 C25       -0.2491    2.8148   13.2835 C.ar      1 RES1    0.0000
     41 C26       -1.1532    3.8843   13.2904 C.ar      1 RES1    0.0000
     42 H16       -1.1048    4.5175   13.9701 H         1 RES1    0.0000
     43 C27       -2.1038    4.0154   12.3208 C.ar      1 RES1    0.0000
     44 H17       -2.7145    4.7146   12.3618 H         1 RES1    0.0000
     45 C28       -2.1614    3.1035   11.2639 C.ar      1 RES1    0.0000
     46 H18       -2.8177    3.1977   10.6119 H         1 RES1    0.0000
@<TRIPOS>BOND
     1    1    2 1
     2    3    1 ar
     3    4    3 1
     4    5    3 ar
     5    6    5 1
     6    7    5 ar
     7    8    7 ar
     8    9    8 ar
     9   10    9 1
    10   11    9 ar
    11   12   11 1
    12   13   11 ar
    13   14   13 1
    14   15   13 ar
    15   16   15 1
    16   17    8 ar
    17   18   17 ar
    18   19   18 1
    19   20   18 ar
    20   21   20 1
    21   22    7 ar
    22   23    1 ar
    23   24   23 1
    24   25   24 ar
    25   26   25 ar
    26   27   26 1
    27   28   26 ar
    28   29   28 1
    29   30   28 ar
    30   31   30 ar
    31   32   31 1
    32   33   31 ar
    33   34   33 1
    34   35   33 ar
    35   36   35 1
    36   37   35 ar
    37   38   37 1
    38   39   30 ar
    39   40   25 ar
    40   41   40 ar
    41   42   41 1
    42   43   41 ar
    43   44   43 1
    44   45   24 ar
    45   46   45 1
    46   15   17 ar
    47   20   22 ar
    48   22   23 ar
    49   37   39 ar
    50   39   40 ar
    51   43   45 ar
@<TRIPOS>SUBSTRUCTURE
     1 RES1 1

@<TRIPOS>CRYSIN
  11.1298    6.2761   13.5120  90.0000 101.7930  90.0000   4 1

