# MOL2 file generated by ConQuest
# Please check atom types

@<TRIPOS>MOLECULE
HIPWAF
    80    86     2
SMALL
NO_CHARGES
****
Generated from CSD

@<TRIPOS>ATOM
      1 C1         5.8510    3.5212    3.4548 C.3       1 RES1    0.0000
      2 H1         6.1344    3.0134    4.2192 H         1 RES1    0.0000
      3 H2         6.4393    4.2696    3.3313 H         1 RES1    0.0000
      4 H3         5.8746    2.9638    2.6730 H         1 RES1    0.0000
      5 C2         4.4471    4.0187    3.6752 C.ar      1 RES1    0.0000
      6 C3         3.6504    3.4931    4.6433 C.ar      1 RES1    0.0000
      7 H4         3.9896    2.8195    5.1868 H         1 RES1    0.0000
      8 C4         2.3295    3.9320    4.8534 C.ar      1 RES1    0.0000
      9 C5         1.5174    3.4102    5.8781 C.ar      1 RES1    0.0000
     10 H5         1.8480    2.7322    6.4237 H         1 RES1    0.0000
     11 C6         0.2646    3.8788    6.0833 C.ar      1 RES1    0.0000
     12 H6        -0.2567    3.5242    6.7658 H         1 RES1    0.0000
     13 C7        -0.2476    4.8951    5.2690 C.ar      1 RES1    0.0000
     14 H7        -1.1123    5.2060    5.4187 H         1 RES1    0.0000
     15 C8         0.4942    5.4406    4.2605 C.ar      1 RES1    0.0000
     16 C9         1.8079    4.9632    4.0281 C.ar      1 RES1    0.0000
     17 C10        2.6462    5.4880    3.0228 C.ar      1 RES1    0.0000
     18 H8         2.3236    6.1542    2.4598 H         1 RES1    0.0000
     19 C11        3.9170    5.0342    2.8672 C.ar      1 RES1    0.0000
     20 H9         4.4522    5.4080    2.2045 H         1 RES1    0.0000
     21 C12       -0.0666    6.5761    3.4590 C.ar      1 RES1    0.0000
     22 C13       -0.0177    7.8441    3.9606 C.ar      1 RES1    0.0000
     23 H10        0.4194    7.9951    4.7674 H         1 RES1    0.0000
     24 C14       -0.6081    8.9211    3.2924 C.ar      1 RES1    0.0000
     25 H11       -0.5480    9.7790    3.6476 H         1 RES1    0.0000
     26 C15       -1.2685    8.7131    2.1262 C.ar      1 RES1    0.0000
     27 H12       -1.6805    9.4304    1.7008 H         1 RES1    0.0000
     28 C16       -1.3421    7.4392    1.5509 C.ar      1 RES1    0.0000
     29 C17       -2.0422    7.1927    0.3479 C.ar      1 RES1    0.0000
     30 H13       -2.4780    7.9011   -0.0679 H         1 RES1    0.0000
     31 C18       -2.1040    5.9691   -0.2193 C.ar      1 RES1    0.0000
     32 C19       -2.8983    5.6975   -1.4736 C.3       1 RES1    0.0000
     33 H14       -3.3550    6.4969   -1.7430 H         1 RES1    0.0000
     34 H15       -3.5398    5.0039   -1.3025 H         1 RES1    0.0000
     35 H16       -2.3045    5.4177   -2.1740 H         1 RES1    0.0000
     36 C20       -1.4137    4.9121    0.4081 C.ar      1 RES1    0.0000
     37 H17       -1.4093    4.0727    0.0070 H         1 RES1    0.0000
     38 C21       -0.7055    6.3518    2.2017 C.ar      1 RES1    0.0000
     39 C22       -0.7575    5.0868    1.5799 C.ar      1 RES1    0.0000
     40 H18       -0.3351    4.3621    1.9796 H         1 RES1    0.0000
     41 C23        6.3974   -0.2643    5.2650 C.3       2 RES2    0.0000
     42 H19        6.1320   -1.1385    4.9712 H         2 RES2    0.0000
     43 H20        7.2629   -0.3131    5.6764 H         2 RES2    0.0000
     44 H21        6.4343    0.3294    4.5121 H         2 RES2    0.0000
     45 C24        5.3990    0.2524    6.2593 C.ar      2 RES2    0.0000
     46 C25        4.1378   -0.2561    6.3408 C.ar      2 RES2    0.0000
     47 H22        3.8938   -0.9423    5.7631 H         2 RES2    0.0000
     48 C26        3.1922    0.2184    7.2659 C.ar      2 RES2    0.0000
     49 C27        1.8767   -0.2813    7.3076 C.ar      2 RES2    0.0000
     50 H23        1.6340   -0.9815    6.7470 H         2 RES2    0.0000
     51 C28        0.9598    0.2472    8.1559 C.ar      2 RES2    0.0000
     52 H24        0.0889   -0.0785    8.1573 H         2 RES2    0.0000
     53 C29        1.3179    1.2813    9.0309 C.ar      2 RES2    0.0000
     54 H25        0.6768    1.6351    9.6051 H         2 RES2    0.0000
     55 C30        2.5902    1.7817    9.0586 C.ar      2 RES2    0.0000
     56 C31        3.5611    1.2584    8.1587 C.ar      2 RES2    0.0000
     57 C32        4.8760    1.7521    8.0746 C.ar      2 RES2    0.0000
     58 H26        5.1490    2.4227    8.6587 H         2 RES2    0.0000
     59 C33        5.7508    1.2710    7.1633 C.ar      2 RES2    0.0000
     60 H27        6.6109    1.6233    7.1336 H         2 RES2    0.0000
     61 C34        2.9192    2.9068    9.9851 C.ar      2 RES2    0.0000
     62 C35        2.3769    4.1408    9.7768 C.ar      2 RES2    0.0000
     63 H28        1.8084    4.2718    9.0522 H         2 RES2    0.0000
     64 C36        2.6589    5.2119   10.6289 C.ar      2 RES2    0.0000
     65 H29        2.2865    6.0476   10.4602 H         2 RES2    0.0000
     66 C37        3.4703    5.0409   11.6981 C.ar      2 RES2    0.0000
     67 H30        3.6519    5.7634   12.2547 H         2 RES2    0.0000
     68 C38        4.0428    3.7892   11.9832 C.ar      2 RES2    0.0000
     69 C39        4.8714    3.5753   13.1077 C.ar      2 RES2    0.0000
     70 H31        5.0505    4.2903   13.6744 H         2 RES2    0.0000
     71 C40        5.4152    2.3657   13.3912 C.ar      2 RES2    0.0000
     72 C41        6.3087    2.1244   14.5836 C.3       2 RES2    0.0000
     73 H32        6.2048    2.8424   15.2112 H         2 RES2    0.0000
     74 H33        7.2226    2.0822   14.2952 H         2 RES2    0.0000
     75 H34        6.0661    1.2954   15.0027 H         2 RES2    0.0000
     76 C42        5.1436    1.3013   12.5211 C.ar      2 RES2    0.0000
     77 H35        5.5155    0.4671   12.6952 H         2 RES2    0.0000
     78 C43        4.3485    1.4597   11.4294 C.ar      2 RES2    0.0000
     79 H36        4.1820    0.7299   10.8772 H         2 RES2    0.0000
     80 C44        3.7731    2.7011   11.1176 C.ar      2 RES2    0.0000
@<TRIPOS>BOND
     1    1    2 1
     2    3    1 1
     3    4    1 1
     4    5    1 1
     5    6    5 ar
     6    7    6 1
     7    8    6 ar
     8    9    8 ar
     9   10    9 1
    10   11    9 ar
    11   12   11 1
    12   13   11 ar
    13   14   13 1
    14   15   13 ar
    15   16    8 ar
    16   17   16 ar
    17   18   17 1
    18   19    5 ar
    19   20   19 1
    20   21   15 1
    21   22   21 ar
    22   23   22 1
    23   24   22 ar
    24   25   24 1
    25   26   24 ar
    26   27   26 1
    27   28   26 ar
    28   29   28 ar
    29   30   29 1
    30   31   29 ar
    31   32   31 1
    32   33   32 1
    33   34   32 1
    34   35   32 1
    35   36   31 ar
    36   37   36 1
    37   38   21 ar
    38   39   36 ar
    39   40   39 1
    40   41   42 1
    41   43   41 1
    42   44   41 1
    43   45   41 1
    44   46   45 ar
    45   47   46 1
    46   48   46 ar
    47   49   48 ar
    48   50   49 1
    49   51   49 ar
    50   52   51 1
    51   53   51 ar
    52   54   53 1
    53   55   53 ar
    54   56   48 ar
    55   57   56 ar
    56   58   57 1
    57   59   45 ar
    58   60   59 1
    59   61   55 1
    60   62   61 ar
    61   63   62 1
    62   64   62 ar
    63   65   64 1
    64   66   64 ar
    65   67   66 1
    66   68   66 ar
    67   69   68 ar
    68   70   69 1
    69   71   69 ar
    70   72   71 1
    71   73   72 1
    72   74   72 1
    73   75   72 1
    74   76   71 ar
    75   77   76 1
    76   78   76 ar
    77   79   78 1
    78   80   61 ar
    79   15   16 ar
    80   17   19 ar
    81   28   38 ar
    82   38   39 ar
    83   55   56 ar
    84   57   59 ar
    85   68   80 ar
    86   78   80 ar
@<TRIPOS>SUBSTRUCTURE
     1 RES1 1
     2 RES2 41

@<TRIPOS>CRYSIN
  18.4710    7.4022   24.1830  90.0000 104.3630  90.0000  14 1

