# MOL2 file generated by ConQuest
# Please check atom types

@<TRIPOS>MOLECULE
HIQVAE
    28    32     1
SMALL
NO_CHARGES
****
Generated from CSD

@<TRIPOS>ATOM
      1 C1         6.3457    3.4100    1.9025 C.ar      1 RES1    0.0000
      2 H1         6.2515    3.9466    1.1233 H         1 RES1    0.0000
      3 C2         7.4108    3.6147    2.7781 C.ar      1 RES1    0.0000
      4 H2         8.0475    4.2939    2.5889 H         1 RES1    0.0000
      5 C3         7.5549    2.8441    3.9172 C.ar      1 RES1    0.0000
      6 H3         8.2889    3.0001    4.4993 H         1 RES1    0.0000
      7 C4         6.6291    1.8318    4.2260 C.ar      1 RES1    0.0000
      8 H4         6.7241    1.3112    5.0149 H         1 RES1    0.0000
      9 C5         5.5763    1.6092    3.3571 C.ar      1 RES1    0.0000
     10 C6         4.4869    0.5979    3.3791 C.ar      1 RES1    0.0000
     11 C7         4.1040   -0.5057    4.1271 C.ar      1 RES1    0.0000
     12 H5         4.5850   -0.7352    4.9136 H         1 RES1    0.0000
     13 C8         2.9739   -1.3099    3.7116 C.ar      1 RES1    0.0000
     14 H6         2.7223   -2.0637    4.2315 H         1 RES1    0.0000
     15 C9         2.2533   -0.9992    2.5706 C.ar      1 RES1    0.0000
     16 C10        2.6610    0.1443    1.8610 C.ar      1 RES1    0.0000
     17 C11        1.9563    0.3714    0.6779 C.ar      1 RES1    0.0000
     18 C12        2.3886    1.4196   -0.1086 C.ar      1 RES1    0.0000
     19 H7         1.9242    1.6252   -0.9116 H         1 RES1    0.0000
     20 C13        3.5373    2.2075    0.2715 C.ar      1 RES1    0.0000
     21 H8         3.8283    2.9147   -0.2923 H         1 RES1    0.0000
     22 C14        4.2182    1.9459    1.4467 C.ar      1 RES1    0.0000
     23 C15        5.4268    2.4148    2.1838 C.ar      1 RES1    0.0000
     24 C16        3.7294    0.8898    2.2320 C.ar      1 RES1    0.0000
     25 C17        1.1513   -1.5423    1.7304 C.2       1 RES1    0.0000
     26 H9         0.6498   -2.3257    1.9263 H         1 RES1    0.0000
     27 C18        0.9707   -0.7471    0.6394 C.2       1 RES1    0.0000
     28 H10        0.3192   -0.8843   -0.0391 H         1 RES1    0.0000
@<TRIPOS>BOND
     1    1    2 1
     2    3    1 ar
     3    4    3 1
     4    5    3 ar
     5    6    5 1
     6    7    5 ar
     7    8    7 1
     8    9    7 ar
     9   10    9 1
    10   11   10 ar
    11   12   11 1
    12   13   11 ar
    13   14   13 1
    14   15   13 ar
    15   16   15 ar
    16   17   16 ar
    17   18   17 ar
    18   19   18 1
    19   20   18 ar
    20   21   20 1
    21   22   20 ar
    22   23    1 ar
    23   24   10 ar
    24   25   15 1
    25   26   25 1
    26   27   17 1
    27   28   27 1
    28    9   23 ar
    29   16   24 ar
    30   22   23 1
    31   22   24 ar
    32   25   27 2
@<TRIPOS>SUBSTRUCTURE
     1 RES1 1

@<TRIPOS>CRYSIN
  12.5684   14.4723    6.1016  90.0000  90.0000  90.0000  33 1

