# MOL2 file generated by ConQuest
# Please check atom types

@<TRIPOS>MOLECULE
HNCBAN
    36    41     1
SMALL
NO_CHARGES
****
Generated from CSD

@<TRIPOS>ATOM
      1 C1        -0.2153    1.1094   -6.3262 C.ar      1 RES1    0.0000
      2 C2        -2.4125    4.5217   -9.6434 C.ar      1 RES1    0.0000
      3 C3        -3.5305    4.9600  -10.3419 C.ar      1 RES1    0.0000
      4 C4        -4.0066    6.2345  -10.1977 C.ar      1 RES1    0.0000
      5 C5        -3.3208    7.1089   -9.3850 C.ar      1 RES1    0.0000
      6 C6        -2.2471    6.7296   -8.6999 C.ar      1 RES1    0.0000
      7 C7        -1.7166    5.4158   -8.7900 C.ar      1 RES1    0.0000
      8 C8        -0.5995    5.0081   -8.0509 C.ar      1 RES1    0.0000
      9 C9        -0.1960    3.7435   -8.1906 C.ar      1 RES1    0.0000
     10 C10        0.8264    2.6986   -7.7234 C.3       1 RES1    0.0000
     11 C11        0.6480    2.2155   -6.3293 C.ar      1 RES1    0.0000
     12 C12       -0.6128    0.4536   -5.1499 C.ar      1 RES1    0.0000
     13 C13        1.0899    2.7052   -5.1394 C.ar      1 RES1    0.0000
     14 C14        0.6960    2.0548   -3.9586 C.ar      1 RES1    0.0000
     15 C15       -0.1511    1.0045   -3.9661 C.ar      1 RES1    0.0000
     16 C16       -1.4837   -0.6143   -5.3422 C.ar      1 RES1    0.0000
     17 C17       -1.8637   -1.0209   -6.6027 C.ar      1 RES1    0.0000
     18 C18       -1.4008   -0.3629   -7.7354 C.ar      1 RES1    0.0000
     19 C19       -0.5739    0.7137   -7.6152 C.ar      1 RES1    0.0000
     20 C20        0.0238    1.6548   -8.6248 C.3       1 RES1    0.0000
     21 C21       -0.8622    2.8254   -9.0079 C.ar      1 RES1    0.0000
     22 C22       -1.9365    3.1774   -9.7470 C.ar      1 RES1    0.0000
     23 H1        -3.9835    4.2955  -10.8617 H         1 RES1    0.0000
     24 H2        -4.8246    6.4596  -10.8467 H         1 RES1    0.0000
     25 H3        -3.6912    7.9024   -9.2092 H         1 RES1    0.0000
     26 H4        -1.6894    7.3231   -8.1125 H         1 RES1    0.0000
     27 H5        -0.1695    5.7382   -7.5717 H         1 RES1    0.0000
     28 H6         1.7735    2.9074   -7.8571 H         1 RES1    0.0000
     29 H7         1.7843    3.3992   -5.1229 H         1 RES1    0.0000
     30 H8         1.0126    2.4155   -3.1098 H         1 RES1    0.0000
     31 H9        -0.4057    0.6339   -3.1849 H         1 RES1    0.0000
     32 H10       -1.9500   -0.9072   -4.8224 H         1 RES1    0.0000
     33 H11       -2.6403   -1.6832   -6.7905 H         1 RES1    0.0000
     34 H12       -1.5644   -0.6012   -8.5482 H         1 RES1    0.0000
     35 H13        0.6555    1.2351   -9.2543 H         1 RES1    0.0000
     36 H14       -2.3330    2.6123  -10.3359 H         1 RES1    0.0000
@<TRIPOS>BOND
     1    1   11 ar
     2    2    3 ar
     3    3    4 ar
     4    4    5 ar
     5    5    6 ar
     6    6    7 ar
     7    7    2 ar
     8    8    7 ar
     9    9    8 ar
    10   10    9 1
    11   11   10 1
    12   12    1 ar
    13   13   11 ar
    14   14   13 ar
    15   15   12 ar
    16   16   12 ar
    17   17   16 ar
    18   18   17 ar
    19   19    1 ar
    20   20   10 1
    21   21    9 ar
    22   22    2 ar
    23   23    3 1
    24   24    4 1
    25   25    5 1
    26   26    6 1
    27   27    8 1
    28   28   10 1
    29   29   13 1
    30   30   14 1
    31   31   15 1
    32   32   16 1
    33   33   17 1
    34   34   18 1
    35   35   20 1
    36   36   22 1
    37   14   15 ar
    38   18   19 ar
    39   19   20 1
    40   20   21 1
    41   21   22 ar
@<TRIPOS>SUBSTRUCTURE
     1 RES1 1

@<TRIPOS>CRYSIN
   8.5600   10.9300   15.1900  90.0000  98.5000  90.0000  14 1

