# MOL2 file generated by ConQuest
# Please check atom types

@<TRIPOS>MOLECULE
HONQAE01
   108   114     2
SMALL
NO_CHARGES
****
Generated from CSD

@<TRIPOS>ATOM
      1 C1         7.0134    1.8466    3.5395 C.ar      1 RES1    0.0000
      2 H1         7.3086    0.9712    3.7591 H         1 RES1    0.0000
      3 C2         6.1723    2.4740    4.4011 C.ar      1 RES1    0.0000
      4 C3         5.7187    3.8257    4.0819 C.ar      1 RES1    0.0000
      5 C4         6.1092    4.3954    2.8917 C.ar      1 RES1    0.0000
      6 H2         5.7665    5.2524    2.6686 H         1 RES1    0.0000
      7 C5         7.0087    3.7557    1.9739 C.ar      1 RES1    0.0000
      8 C6         7.4219    4.3672    0.8074 C.ar      1 RES1    0.0000
      9 H3         7.0839    5.2254    0.5811 H         1 RES1    0.0000
     10 C7         8.3426    3.7287   -0.0524 C.ar      1 RES1    0.0000
     11 C8         8.7930    4.3451   -1.2558 C.ar      1 RES1    0.0000
     12 H4         8.4584    5.2021   -1.4921 H         1 RES1    0.0000
     13 C9         9.7068    3.7238   -2.0829 C.ar      1 RES1    0.0000
     14 C10       10.1881    4.3475   -3.2816 C.ar      1 RES1    0.0000
     15 H5         9.8531    5.1984   -3.5403 H         1 RES1    0.0000
     16 C11       11.1216    3.7287   -4.0485 C.ar      1 RES1    0.0000
     17 H6        11.4343    4.1486   -4.8423 H         1 RES1    0.0000
     18 C12       11.6280    2.4629   -3.6755 C.ar      1 RES1    0.0000
     19 H7        12.2948    2.0565   -4.2146 H         1 RES1    0.0000
     20 C13       11.1960    1.8183   -2.5811 C.ar      1 RES1    0.0000
     21 H8        11.5412    0.9577   -2.3745 H         1 RES1    0.0000
     22 C14       10.2227    2.4163   -1.7285 C.ar      1 RES1    0.0000
     23 C15        9.7691    1.8011   -0.5664 C.ar      1 RES1    0.0000
     24 H9        10.1016    0.9405   -0.3408 H         1 RES1    0.0000
     25 C16        8.8354    2.4150    0.2776 C.ar      1 RES1    0.0000
     26 C17        8.3787    1.8122    1.4606 C.ar      1 RES1    0.0000
     27 H10        8.6952    0.9454    1.6858 H         1 RES1    0.0000
     28 C18        7.4814    2.4371    2.3132 C.ar      1 RES1    0.0000
     29 C19        5.6983    1.8490    5.7358 C.3       1 RES1    0.0000
     30 H11        6.1539    2.3217    6.4779 H         1 RES1    0.0000
     31 H12        4.7279    2.0197    5.8287 H         1 RES1    0.0000
     32 C20        5.9326    0.3720    5.9101 C.3       1 RES1    0.0000
     33 H13        5.5910   -0.1093    5.1149 H         1 RES1    0.0000
     34 H14        6.9050    0.2001    5.9758 H         1 RES1    0.0000
     35 C21        5.2538   -0.1572    7.1375 C.3       1 RES1    0.0000
     36 H15        4.2846    0.0430    7.0805 H         1 RES1    0.0000
     37 H16        5.6128    0.3106    7.9306 H         1 RES1    0.0000
     38 C22        5.4427   -1.6882    7.3223 C.3       1 RES1    0.0000
     39 H17        5.0181   -1.9706    8.1602 H         1 RES1    0.0000
     40 H18        6.4002   -1.8969    7.3567 H         1 RES1    0.0000
     41 H19        5.0308   -2.1609    6.5712 H         1 RES1    0.0000
     42 C23        4.8956    4.6361    5.0812 C.3       1 RES1    0.0000
     43 H20        4.2395    4.0357    5.5166 H         1 RES1    0.0000
     44 H21        4.3882    5.3297    4.5912 H         1 RES1    0.0000
     45 C24        5.7401    5.3126    6.1633 C.3       1 RES1    0.0000
     46 H22        6.2353    4.6127    6.6573 H         1 RES1    0.0000
     47 H23        6.4085    5.8945    5.7211 H         1 RES1    0.0000
     48 C25        4.9706    6.1376    7.1487 C.3       1 RES1    0.0000
     49 H24        4.4564    6.8215    6.6501 H         1 RES1    0.0000
     50 H25        4.3176    5.5507    7.6042 H         1 RES1    0.0000
     51 C26        5.7865    6.8289    8.1853 C.3       1 RES1    0.0000
     52 H26        5.1986    7.3531    8.7699 H         1 RES1    0.0000
     53 H27        6.4305    7.4243    7.7513 H         1 RES1    0.0000
     54 H28        6.2671    6.1622    8.7197 H         1 RES1    0.0000
     55 C27        1.8147   -1.3567    2.8602 C.ar      2 RES2    0.0000
     56 H29        1.4680   -2.2100    2.6256 H         2 RES2    0.0000
     57 C28        1.4552   -0.8054    4.0517 C.ar      2 RES2    0.0000
     58 C29        1.8872    0.5390    4.4083 C.ar      2 RES2    0.0000
     59 C30        2.7239    1.1897    3.5360 C.ar      2 RES2    0.0000
     60 H30        3.0161    2.0639    3.7626 H         2 RES2    0.0000
     61 C31        3.1800    0.6176    2.3017 C.ar      2 RES2    0.0000
     62 C32        4.0676    1.2695    1.4706 C.ar      2 RES2    0.0000
     63 H31        4.3797    2.1339    1.7109 H         2 RES2    0.0000
     64 C33        4.5248    0.6765    0.2608 C.ar      2 RES2    0.0000
     65 C34        5.4526    1.3051   -0.5954 C.ar      2 RES2    0.0000
     66 H32        5.7734    2.1707   -0.3730 H         2 RES2    0.0000
     67 C35        5.9082    0.6912   -1.7518 C.ar      2 RES2    0.0000
     68 C36        6.8852    1.3002   -2.5994 C.ar      2 RES2    0.0000
     69 H33        7.2161    2.1658   -2.3889 H         2 RES2    0.0000
     70 C37        7.3393    0.6605   -3.6873 C.ar      2 RES2    0.0000
     71 H34        8.0146    1.0706   -4.2146 H         2 RES2    0.0000
     72 C38        6.8452   -0.5955   -4.0675 C.ar      2 RES2    0.0000
     73 H35        7.1649   -1.0068   -4.8638 H         2 RES2    0.0000
     74 C39        5.9203   -1.2241   -3.3111 C.ar      2 RES2    0.0000
     75 H36        5.6014   -2.0786   -3.5761 H         2 RES2    0.0000
     76 C40        5.4102   -0.6139   -2.1055 C.ar      2 RES2    0.0000
     77 C41        4.4937   -1.2339   -1.2924 C.ar      2 RES2    0.0000
     78 H37        4.1600   -2.0884   -1.5424 H         2 RES2    0.0000
     79 C42        4.0310   -0.6384   -0.0979 C.ar      2 RES2    0.0000
     80 C43        3.1168   -1.2769    0.7576 C.ar      2 RES2    0.0000
     81 H38        2.7755   -2.1302    0.5165 H         2 RES2    0.0000
     82 C44        2.6985   -0.6925    1.9477 C.ar      2 RES2    0.0000
     83 C45        0.6556   -1.6722    5.0636 C.3       2 RES2    0.0000
     84 H39       -0.0368   -1.1087    5.4915 H         2 RES2    0.0000
     85 H40        0.1951   -2.3966    4.5733 H         2 RES2    0.0000
     86 C46        1.5312   -2.2935    6.1540 C.3       2 RES2    0.0000
     87 H41        2.1888   -2.9000    5.7318 H         2 RES2    0.0000
     88 H42        2.0359   -1.5728    6.6106 H         2 RES2    0.0000
     89 C47        0.7523   -3.0608    7.1763 C.3       2 RES2    0.0000
     90 H43        0.1992   -3.7373    6.7111 H         2 RES2    0.0000
     91 H44        0.1356   -2.4371    7.6365 H         2 RES2    0.0000
     92 C48        1.5943   -3.7545    8.2097 C.3       2 RES2    0.0000
     93 H45        1.0147   -4.2640    8.8130 H         2 RES2    0.0000
     94 H46        2.0961   -3.0878    8.7233 H         2 RES2    0.0000
     95 H47        2.2194   -4.3635    7.7656 H         2 RES2    0.0000
     96 C49        1.4249    1.1234    5.7422 C.3       2 RES2    0.0000
     97 H48        0.5050    0.8030    5.9148 H         2 RES2    0.0000
     98 H49        2.0042    0.7551    6.4564 H         2 RES2    0.0000
     99 C50        1.4294    2.6102    5.8638 C.3       2 RES2    0.0000
    100 H50        0.9169    2.9859    5.1041 H         2 RES2    0.0000
    101 H51        2.3633    2.9270    5.7749 H         2 RES2    0.0000
    102 C51        0.8625    3.1603    7.1347 C.3       2 RES2    0.0000
    103 H52        1.3280    2.7367    7.8983 H         2 RES2    0.0000
    104 H53       -0.0932    2.9098    7.1881 H         2 RES2    0.0000
    105 C52        0.9761    4.6631    7.2717 C.3       2 RES2    0.0000
    106 H54        0.5841    4.9442    8.1243 H         2 RES2    0.0000
    107 H55        0.4978    5.0952    6.5353 H         2 RES2    0.0000
    108 H56        1.9208    4.9221    7.2455 H         2 RES2    0.0000
@<TRIPOS>BOND
     1    1    2 1
     2    3    1 ar
     3    4    3 ar
     4    5    4 ar
     5    6    5 1
     6    7    5 ar
     7    8    7 ar
     8    9    8 1
     9   10    8 ar
    10   11   10 ar
    11   12   11 1
    12   13   11 ar
    13   14   13 ar
    14   15   14 1
    15   16   14 ar
    16   17   16 1
    17   18   16 ar
    18   19   18 1
    19   20   18 ar
    20   21   20 1
    21   22   13 ar
    22   23   22 ar
    23   24   23 1
    24   25   10 ar
    25   26   25 ar
    26   27   26 1
    27   28    1 ar
    28   29    3 1
    29   30   29 1
    30   31   29 1
    31   32   29 1
    32   33   32 1
    33   34   32 1
    34   35   32 1
    35   36   35 1
    36   37   35 1
    37   38   35 1
    38   39   38 1
    39   40   38 1
    40   41   38 1
    41   42    4 1
    42   43   42 1
    43   44   42 1
    44   45   42 1
    45   46   45 1
    46   47   45 1
    47   48   45 1
    48   49   48 1
    49   50   48 1
    50   51   48 1
    51   52   51 1
    52   53   51 1
    53   54   51 1
    54   55   56 1
    55   57   55 ar
    56   58   57 ar
    57   59   58 ar
    58   60   59 1
    59   61   59 ar
    60   62   61 ar
    61   63   62 1
    62   64   62 ar
    63   65   64 ar
    64   66   65 1
    65   67   65 ar
    66   68   67 ar
    67   69   68 1
    68   70   68 ar
    69   71   70 1
    70   72   70 ar
    71   73   72 1
    72   74   72 ar
    73   75   74 1
    74   76   67 ar
    75   77   76 ar
    76   78   77 1
    77   79   64 ar
    78   80   79 ar
    79   81   80 1
    80   82   55 ar
    81   83   57 1
    82   84   83 1
    83   85   83 1
    84   86   83 1
    85   87   86 1
    86   88   86 1
    87   89   86 1
    88   90   89 1
    89   91   89 1
    90   92   89 1
    91   93   92 1
    92   94   92 1
    93   95   92 1
    94   96   58 1
    95   97   96 1
    96   98   96 1
    97   99   96 1
    98  100   99 1
    99  101   99 1
   100  102   99 1
   101  103  102 1
   102  104  102 1
   103  105  102 1
   104  106  105 1
   105  107  105 1
   106  108  105 1
   107    7   28 ar
   108   20   22 ar
   109   23   25 ar
   110   26   28 ar
   111   61   82 ar
   112   74   76 ar
   113   77   79 ar
   114   80   82 ar
@<TRIPOS>SUBSTRUCTURE
     1 RES1 1
     2 RES2 55

@<TRIPOS>CRYSIN
  17.3570   12.2777   35.8760  90.0000  91.1440  90.0000  15 1

