# MOL2 file generated by ConQuest
# Please check atom types

@<TRIPOS>MOLECULE
HOQLOO
    96   104     2
SMALL
NO_CHARGES
****
Generated from CSD

@<TRIPOS>ATOM
      1 C1         9.1734   -1.2315    0.4033 C.3       1 RES1    0.0000
      2 H1         8.9926   -2.1031   -0.0310 H         1 RES1    0.0000
      3 H2        10.0315   -0.8898    0.0495 H         1 RES1    0.0000
      4 C2         8.0252   -0.2252    0.0195 C.3       1 RES1    0.0000
      5 H3         8.4074    0.5006   -0.5355 H         1 RES1    0.0000
      6 H4         7.3511   -0.7003   -0.5262 H         1 RES1    0.0000
      7 C3         7.3400    0.3869    1.2289 C.ar      1 RES1    0.0000
      8 C4         6.2028   -0.1938    1.8182 C.ar      1 RES1    0.0000
      9 C5         5.9919    0.0189    3.1827 C.ar      1 RES1    0.0000
     10 H5         5.2338   -0.3760    3.5969 H         1 RES1    0.0000
     11 C6         6.8642    0.7965    3.9649 C.ar      1 RES1    0.0000
     12 C7         7.7651    1.5820    3.2889 C.ar      1 RES1    0.0000
     13 H6         8.2218    2.2721    3.7547 H         1 RES1    0.0000
     14 C8         8.0204    1.3882    1.9411 C.ar      1 RES1    0.0000
     15 H7         8.6580    1.9355    1.4982 H         1 RES1    0.0000
     16 C9         6.9943    0.5509    5.4652 C.3       1 RES1    0.0000
     17 H8         6.1331    0.2084    5.8132 H         1 RES1    0.0000
     18 H9         7.1830    1.4108    5.9184 H         1 RES1    0.0000
     19 C10        8.1267   -0.4693    5.8132 C.3       1 RES1    0.0000
     20 H10        8.8118   -0.0109    6.3641 H         1 RES1    0.0000
     21 H11        7.7413   -1.1987    6.3610 H         1 RES1    0.0000
     22 C11        8.7944   -1.0683    4.6137 C.ar      1 RES1    0.0000
     23 C12        8.1600   -2.0805    3.9036 C.ar      1 RES1    0.0000
     24 H12        7.5383   -2.6459    4.3459 H         1 RES1    0.0000
     25 C13        8.4232   -2.2736    2.5559 C.ar      1 RES1    0.0000
     26 H13        7.9919   -2.9790    2.0863 H         1 RES1    0.0000
     27 C14        9.3098   -1.4443    1.8888 C.ar      1 RES1    0.0000
     28 C15       10.1631   -0.6631    2.6661 C.ar      1 RES1    0.0000
     29 H14       10.9228   -0.2529    2.2689 H         1 RES1    0.0000
     30 C16        9.9030   -0.4824    4.0206 C.ar      1 RES1    0.0000
     31 H15       10.4914    0.0481    4.5440 H         1 RES1    0.0000
     32 C17        5.3052   -1.1361    1.0989 C.ar      1 RES1    0.0000
     33 C18        5.0562   -2.3800    1.6443 C.ar      1 RES1    0.0000
     34 H16        5.4844   -2.6234    2.4577 H         1 RES1    0.0000
     35 C19        4.1823   -3.2981    1.0261 C.ar      1 RES1    0.0000
     36 H17        4.0253   -4.1442    1.4270 H         1 RES1    0.0000
     37 C20        3.5685   -2.9797   -0.1325 C.ar      1 RES1    0.0000
     38 H18        2.9896   -3.6115   -0.5417 H         1 RES1    0.0000
     39 C21        3.7715   -1.7212   -0.7485 C.ar      1 RES1    0.0000
     40 C22        3.1181   -1.3620   -1.9408 C.ar      1 RES1    0.0000
     41 H19        2.5297   -1.9865   -2.3494 H         1 RES1    0.0000
     42 C23        3.3005   -0.1683   -2.5203 C.ar      1 RES1    0.0000
     43 H20        2.8659    0.0306   -3.3399 H         1 RES1    0.0000
     44 C24        4.1379    0.7958   -1.9170 C.ar      1 RES1    0.0000
     45 H21        4.2473    1.6498   -2.3185 H         1 RES1    0.0000
     46 C25        4.7961    0.4941   -0.7448 C.ar      1 RES1    0.0000
     47 H22        5.3575    1.1455   -0.3436 H         1 RES1    0.0000
     48 C26        4.6454   -0.7826   -0.1251 C.ar      1 RES1    0.0000
     49 C27       10.3978    2.3071   10.4002 C.3       2 RES2    0.0000
     50 H23       10.7547    1.4735   10.7968 H         2 RES2    0.0000
     51 H24        9.5192    2.4900   10.8215 H         2 RES2    0.0000
     52 C28       11.3922    3.5087   10.7318 C.3       2 RES2    0.0000
     53 H25       10.8831    4.2316   11.1775 H         2 RES2    0.0000
     54 H26       12.0790    3.1881   11.3694 H         2 RES2    0.0000
     55 C29       12.0790    4.0728    9.5177 C.ar      2 RES2    0.0000
     56 C30       13.2352    3.4971    8.9330 C.ar      2 RES2    0.0000
     57 C31       13.4255    3.6742    7.5580 C.ar      2 RES2    0.0000
     58 H27       14.1836    3.2726    7.1504 H         2 RES2    0.0000
     59 C32       12.5579    4.4116    6.7619 C.ar      2 RES2    0.0000
     60 C33       11.6397    5.2066    7.4132 C.ar      2 RES2    0.0000
     61 H28       11.1702    5.8763    6.9306 H         2 RES2    0.0000
     62 C34       11.3954    5.0398    8.7721 C.ar      2 RES2    0.0000
     63 H29       10.7515    5.5914    9.2026 H         2 RES2    0.0000
     64 C35       12.4152    4.1187    5.2764 C.3       2 RES2    0.0000
     65 H30       13.2510    3.7011    4.9495 H         2 RES2    0.0000
     66 H31       12.2931    4.9734    4.7917 H         2 RES2    0.0000
     67 C36       11.2083    3.1699    4.9464 C.3       2 RES2    0.0000
     68 H32       10.5057    3.6895    4.4790 H         2 RES2    0.0000
     69 H33       11.5159    2.4565    4.3336 H         2 RES2    0.0000
     70 C37       10.6151    2.5366    6.1809 C.ar      2 RES2    0.0000
     71 C38       11.3018    1.5310    6.8566 C.ar      2 RES2    0.0000
     72 H34       11.9251    0.9910    6.3858 H         2 RES2    0.0000
     73 C39       11.0877    1.3066    8.2155 C.ar      2 RES2    0.0000
     74 H35       11.5508    0.6056    8.6578 H         2 RES2    0.0000
     75 C40       10.1996    2.1031    8.9262 C.ar      2 RES2    0.0000
     76 C41        9.3082    2.8835    8.1864 C.ar      2 RES2    0.0000
     77 H36        8.5533    3.2719    8.6114 H         2 RES2    0.0000
     78 C42        9.5223    3.0919    6.8371 C.ar      2 RES2    0.0000
     79 H37        8.9086    3.6268    6.3456 H         2 RES2    0.0000
     80 C43       14.1566    2.5804    9.6781 C.ar      2 RES2    0.0000
     81 C44       14.4469    1.3321    9.1581 C.ar      2 RES2    0.0000
     82 H38       14.0298    1.0544    8.3514 H         2 RES2    0.0000
     83 C45       15.3557    0.4627    9.8075 C.ar      2 RES2    0.0000
     84 H39       15.5460   -0.3877    9.4286 H         2 RES2    0.0000
     85 C46       15.9567    0.8322   10.9655 C.ar      2 RES2    0.0000
     86 H40       16.5483    0.2317   11.4035 H         2 RES2    0.0000
     87 C47       15.7062    2.1060   11.5254 C.ar      2 RES2    0.0000
     88 C48       16.3358    2.5330   12.7354 C.ar      2 RES2    0.0000
     89 H41       16.9258    1.9362   13.1802 H         2 RES2    0.0000
     90 C49       16.1217    3.7514   13.2709 C.ar      2 RES2    0.0000
     91 H42       16.5531    4.0013   14.0779 H         2 RES2    0.0000
     92 C50       15.2557    4.6484   12.6243 C.ar      2 RES2    0.0000
     93 H43       15.1114    5.5120   12.9945 H         2 RES2    0.0000
     94 C51       14.6150    4.2885   11.4629 C.ar      2 RES2    0.0000
     95 H44       14.0377    4.9115   11.0351 H         2 RES2    0.0000
     96 C52       14.8006    2.9957   10.8859 C.ar      2 RES2    0.0000
@<TRIPOS>BOND
     1    1    2 1
     2    3    1 1
     3    4    1 1
     4    5    4 1
     5    6    4 1
     6    7    4 1
     7    8    7 ar
     8    9    8 ar
     9   10    9 1
    10   11    9 ar
    11   12   11 ar
    12   13   12 1
    13   14    7 ar
    14   15   14 1
    15   16   11 1
    16   17   16 1
    17   18   16 1
    18   19   16 1
    19   20   19 1
    20   21   19 1
    21   22   19 1
    22   23   22 ar
    23   24   23 1
    24   25   23 ar
    25   26   25 1
    26   27    1 1
    27   28   27 ar
    28   29   28 1
    29   30   22 ar
    30   31   30 1
    31   32    8 1
    32   33   32 ar
    33   34   33 1
    34   35   33 ar
    35   36   35 1
    36   37   35 ar
    37   38   37 1
    38   39   37 ar
    39   40   39 ar
    40   41   40 1
    41   42   40 ar
    42   43   42 1
    43   44   42 ar
    44   45   44 1
    45   46   44 ar
    46   47   46 1
    47   48   32 ar
    48   49   50 1
    49   51   49 1
    50   52   49 1
    51   53   52 1
    52   54   52 1
    53   55   52 1
    54   56   55 ar
    55   57   56 ar
    56   58   57 1
    57   59   57 ar
    58   60   59 ar
    59   61   60 1
    60   62   55 ar
    61   63   62 1
    62   64   59 1
    63   65   64 1
    64   66   64 1
    65   67   64 1
    66   68   67 1
    67   69   67 1
    68   70   67 1
    69   71   70 ar
    70   72   71 1
    71   73   71 ar
    72   74   73 1
    73   75   49 1
    74   76   75 ar
    75   77   76 1
    76   78   70 ar
    77   79   78 1
    78   80   56 1
    79   81   80 ar
    80   82   81 1
    81   83   81 ar
    82   84   83 1
    83   85   83 ar
    84   86   85 1
    85   87   85 ar
    86   88   87 ar
    87   89   88 1
    88   90   88 ar
    89   91   90 1
    90   92   90 ar
    91   93   92 1
    92   94   92 ar
    93   95   94 1
    94   96   80 ar
    95   12   14 ar
    96   25   27 ar
    97   28   30 ar
    98   39   48 ar
    99   46   48 ar
   100   60   62 ar
   101   73   75 ar
   102   76   78 ar
   103   87   96 ar
   104   94   96 ar
@<TRIPOS>SUBSTRUCTURE
     1 RES1 1
     2 RES2 49

@<TRIPOS>CRYSIN
  15.8600    7.2871   30.9540  90.0000  90.0000  90.0000  29 1

