# MOL2 file generated by ConQuest
# Please check atom types

@<TRIPOS>MOLECULE
HOQLUU
    51    55     1
SMALL
NO_CHARGES
****
Generated from CSD

@<TRIPOS>ATOM
      1 C1         3.7770    5.8088    6.6705 C.3       1 RES1    0.0000
      2 H1         3.6925    6.7906    6.7579 H         1 RES1    0.0000
      3 H2         4.3394    5.6253    5.8765 H         1 RES1    0.0000
      4 C2         4.5024    5.2427    7.9528 C.3       1 RES1    0.0000
      5 H3         5.4302    4.9960    7.7122 H         1 RES1    0.0000
      6 H4         4.5484    5.9570    8.6373 H         1 RES1    0.0000
      7 C3         3.8144    4.0378    8.5503 C.ar      1 RES1    0.0000
      8 C4         3.0365    4.1033    9.7308 C.ar      1 RES1    0.0000
      9 C5         1.9848    3.1925    9.8685 C.ar      1 RES1    0.0000
     10 H5         1.4281    3.2458   10.6366 H         1 RES1    0.0000
     11 C6         1.7244    2.2061    8.9140 C.ar      1 RES1    0.0000
     12 C7         2.7299    1.9549    7.9866 C.ar      1 RES1    0.0000
     13 H6         2.7199    1.1505    7.4821 H         1 RES1    0.0000
     14 C8         3.7424    2.8725    7.7996 C.ar      1 RES1    0.0000
     15 H7         4.4063    2.7023    7.1418 H         1 RES1    0.0000
     16 C9         0.3524    1.6241    8.7089 C.3       1 RES1    0.0000
     17 H8        -0.1828    1.7710    9.5284 H         1 RES1    0.0000
     18 H9         0.4367    0.6471    8.5773 H         1 RES1    0.0000
     19 C10       -0.4194    2.2356    7.4852 C.3       1 RES1    0.0000
     20 H10       -0.5408    1.5326    6.8000 H         1 RES1    0.0000
     21 H11       -1.3192    2.5217    7.7851 H         1 RES1    0.0000
     22 C11        0.2827    3.4137    6.8560 C.ar      1 RES1    0.0000
     23 C12        1.1565    3.2536    5.7767 C.ar      1 RES1    0.0000
     24 H12        1.0342    2.5276    5.1765 H         1 RES1    0.0000
     25 C13        2.2013    4.1443    5.5743 C.ar      1 RES1    0.0000
     26 H13        2.7857    4.0217    4.8347 H         1 RES1    0.0000
     27 C14        2.4050    5.2194    6.4431 C.ar      1 RES1    0.0000
     28 C15        1.3536    5.5366    7.3001 C.ar      1 RES1    0.0000
     29 H14        1.3504    6.3731    7.7510 H         1 RES1    0.0000
     30 C16        0.3193    4.6495    7.5012 C.ar      1 RES1    0.0000
     31 H15       -0.3851    4.8849    8.0929 H         1 RES1    0.0000
     32 C17        3.3318    5.1016   10.8137 C.ar      1 RES1    0.0000
     33 C18        4.5859    5.0897   11.4171 C.ar      1 RES1    0.0000
     34 C19        4.8674    5.9847   12.4755 C.ar      1 RES1    0.0000
     35 H16        5.7277    5.9718   12.8774 H         1 RES1    0.0000
     36 C20        3.9380    6.8596   12.9295 C.ar      1 RES1    0.0000
     37 H17        4.1585    7.4451   13.6437 H         1 RES1    0.0000
     38 C21        2.6484    6.9172   12.3604 C.ar      1 RES1    0.0000
     39 C22        1.6736    7.8311   12.8101 C.ar      1 RES1    0.0000
     40 H18        1.8763    8.4076   13.5384 H         1 RES1    0.0000
     41 C23        0.4477    7.9056   12.2246 C.ar      1 RES1    0.0000
     42 H19       -0.1921    8.5349   12.5371 H         1 RES1    0.0000
     43 C24        0.1303    7.0471   11.1520 C.ar      1 RES1    0.0000
     44 H20       -0.7227    7.1031   10.7371 H         1 RES1    0.0000
     45 C25        1.0447    6.1329   10.7055 C.ar      1 RES1    0.0000
     46 H21        0.8082    5.5527    9.9902 H         1 RES1    0.0000
     47 C26        2.3355    6.0276   11.2808 C.ar      1 RES1    0.0000
     48 C27        5.6858    4.1351   11.0281 C.3       1 RES1    0.0000
     49 H22        5.2921    3.3035   10.6917 H         1 RES1    0.0000
     50 H23        6.2411    3.9402   11.8113 H         1 RES1    0.0000
     51 H24        6.2387    4.5414   10.3288 H         1 RES1    0.0000
@<TRIPOS>BOND
     1    1    2 1
     2    3    1 1
     3    4    1 1
     4    5    4 1
     5    6    4 1
     6    7    4 1
     7    8    7 ar
     8    9    8 ar
     9   10    9 1
    10   11    9 ar
    11   12   11 ar
    12   13   12 1
    13   14    7 ar
    14   15   14 1
    15   16   11 1
    16   17   16 1
    17   18   16 1
    18   19   16 1
    19   20   19 1
    20   21   19 1
    21   22   19 1
    22   23   22 ar
    23   24   23 1
    24   25   23 ar
    25   26   25 1
    26   27    1 1
    27   28   27 ar
    28   29   28 1
    29   30   22 ar
    30   31   30 1
    31   32    8 1
    32   33   32 ar
    33   34   33 ar
    34   35   34 1
    35   36   34 ar
    36   37   36 1
    37   38   36 ar
    38   39   38 ar
    39   40   39 1
    40   41   39 ar
    41   42   41 1
    42   43   41 ar
    43   44   43 1
    44   45   43 ar
    45   46   45 1
    46   47   32 ar
    47   48   33 1
    48   49   48 1
    49   50   48 1
    50   51   48 1
    51   12   14 ar
    52   25   27 ar
    53   28   30 ar
    54   38   47 ar
    55   45   47 ar
@<TRIPOS>SUBSTRUCTURE
     1 RES1 1

@<TRIPOS>CRYSIN
   8.0243   14.8073   16.2390  90.0000  93.8680  90.0000  14 1

