# MOL2 file generated by ConQuest
# Please check atom types

@<TRIPOS>MOLECULE
HOVZID
    89    95     1
SMALL
NO_CHARGES
****
Generated from CSD

@<TRIPOS>ATOM
      1 C1         6.6049   -0.1202    5.3014 C.ar      1 RES1    0.0000
      2 C2         6.8222   -1.0314    6.3266 C.ar      1 RES1    0.0000
      3 C3         6.7568   -2.4518    6.2532 C.ar      1 RES1    0.0000
      4 C4         6.4998   -2.9490    5.0213 C.ar      1 RES1    0.0000
      5 C5         6.2642   -2.0304    4.0020 C.ar      1 RES1    0.0000
      6 C6         6.2642   -0.6577    4.0020 C.ar      1 RES1    0.0000
      7 C7         6.2642   -4.1257    4.0020 C.3       1 RES1    0.0000
      8 C8         6.7472    1.3684    5.5577 C.3       1 RES1    0.0000
      9 C9         5.4515    2.1075    5.7631 C.ar      1 RES1    0.0000
     10 C10        4.2440    1.4779    6.0499 C.ar      1 RES1    0.0000
     11 C11        3.0662    2.1971    6.2167 C.ar      1 RES1    0.0000
     12 C12        3.1283    3.5809    6.0757 C.ar      1 RES1    0.0000
     13 C13        4.2972    4.2562    5.7912 C.ar      1 RES1    0.0000
     14 C14        5.4357    3.4963    5.6302 C.ar      1 RES1    0.0000
     15 C15        1.7741    1.4979    6.5243 C.3       1 RES1    0.0000
     16 C16        4.3202    5.7584    5.6617 C.3       1 RES1    0.0000
     17 C17        7.7857    1.6648    6.6528 C.ar      1 RES1    0.0000
     18 C18        7.4082    1.9295    7.9607 C.ar      1 RES1    0.0000
     19 C19        8.3823    2.1375    8.9476 C.ar      1 RES1    0.0000
     20 C20        9.7093    2.0748    8.5995 C.ar      1 RES1    0.0000
     21 C21       10.1268    1.8223    7.2963 C.ar      1 RES1    0.0000
     22 C22        9.1275    1.6145    6.3370 C.ar      1 RES1    0.0000
     23 C23        7.9730    2.4005   10.3865 C.3       1 RES1    0.0000
     24 C24       11.5720    1.7812    6.9440 C.3       1 RES1    0.0000
     25 H1         7.0349   -0.6713    7.1572 H         1 RES1    0.0000
     26 H2         6.8821   -2.9974    6.9955 H         1 RES1    0.0000
     27 H3         5.3859   -4.7276    4.2117 H         1 RES1    0.0000
     28 H4         7.1282    1.7378    4.7336 H         1 RES1    0.0000
     29 H5         4.2246    0.5521    6.1327 H         1 RES1    0.0000
     30 H6         2.3464    4.0730    6.1775 H         1 RES1    0.0000
     31 H7         6.2318    3.9296    5.4219 H         1 RES1    0.0000
     32 H8         1.1164    2.1451    6.7890 H         1 RES1    0.0000
     33 H9         1.9127    0.8704    7.2373 H         1 RES1    0.0000
     34 H10        1.4685    1.0333    5.7421 H         1 RES1    0.0000
     35 H11        3.4510    6.0687    5.3947 H         1 RES1    0.0000
     36 H12        4.9678    6.0129    5.0025 H         1 RES1    0.0000
     37 H13        4.5524    6.1486    6.5073 H         1 RES1    0.0000
     38 H14        6.5062    1.9701    8.1833 H         1 RES1    0.0000
     39 H15       10.3531    2.2054    9.2591 H         1 RES1    0.0000
     40 H16        9.3780    1.4376    5.4588 H         1 RES1    0.0000
     41 H17        7.8014    1.5658   10.8279 H         1 RES1    0.0000
     42 H18        7.1779    2.9386   10.3989 H         1 RES1    0.0000
     43 H19        8.6805    2.8631   10.8407 H         1 RES1    0.0000
     44 H20       11.9690    2.6369    7.1204 H         1 RES1    0.0000
     45 H21       11.6692    1.5703    6.0126 H         1 RES1    0.0000
     46 H22       12.0117    1.1103    7.4726 H         1 RES1    0.0000
     47 C1A        5.9236   -0.1202    2.7026 C.ar      1 RES1    0.0000
     48 C2A        5.7063   -1.0314    1.6775 C.ar      1 RES1    0.0000
     49 C3A        5.7717   -2.4518    1.7508 C.ar      1 RES1    0.0000
     50 C4A        6.0286   -2.9490    2.9828 C.ar      1 RES1    0.0000
     51 C8A        5.7813    1.3684    2.4464 C.3       1 RES1    0.0000
     52 C9A        7.0770    2.1075    2.2410 C.ar      1 RES1    0.0000
     53 C10A       8.2845    1.4779    1.9541 C.ar      1 RES1    0.0000
     54 C11A       9.4623    2.1971    1.7873 C.ar      1 RES1    0.0000
     55 C12A       9.4001    3.5809    1.9283 C.ar      1 RES1    0.0000
     56 C13A       8.2313    4.2562    2.2128 C.ar      1 RES1    0.0000
     57 C14A       7.0928    3.4963    2.3738 C.ar      1 RES1    0.0000
     58 C15A      10.7544    1.4979    1.4798 C.3       1 RES1    0.0000
     59 C16A       8.2082    5.7584    2.3423 C.3       1 RES1    0.0000
     60 C17A       4.7428    1.6648    1.3512 C.ar      1 RES1    0.0000
     61 C18A       5.1203    1.9295    0.0434 C.ar      1 RES1    0.0000
     62 C19A       4.1462    2.1375   -0.9435 C.ar      1 RES1    0.0000
     63 C20A       2.8191    2.0748   -0.5955 C.ar      1 RES1    0.0000
     64 C21A       2.4017    1.8223    0.7077 C.ar      1 RES1    0.0000
     65 C22A       3.4009    1.6145    1.6671 C.ar      1 RES1    0.0000
     66 C23A       4.5555    2.4005   -2.3825 C.3       1 RES1    0.0000
     67 C24A       0.9565    1.7812    1.0601 C.3       1 RES1    0.0000
     68 H1A        5.4936   -0.6713    0.8468 H         1 RES1    0.0000
     69 H2A        5.6463   -2.9974    1.0085 H         1 RES1    0.0000
     70 H3A        7.1426   -4.7276    3.7923 H         1 RES1    0.0000
     71 H4A        5.4003    1.7378    3.2705 H         1 RES1    0.0000
     72 H5A        8.3038    0.5521    1.8713 H         1 RES1    0.0000
     73 H6A       10.1821    4.0730    1.8265 H         1 RES1    0.0000
     74 H7A        6.2967    3.9296    2.5821 H         1 RES1    0.0000
     75 H8A       11.4121    2.1451    1.2150 H         1 RES1    0.0000
     76 H9A       10.6158    0.8704    0.7668 H         1 RES1    0.0000
     77 H10A      11.0600    1.0333    2.2619 H         1 RES1    0.0000
     78 H11A       9.0775    6.0687    2.6093 H         1 RES1    0.0000
     79 H12A       7.5607    6.0129    3.0015 H         1 RES1    0.0000
     80 H13A       7.9761    6.1486    1.4968 H         1 RES1    0.0000
     81 H14A       6.0223    1.9701   -0.1793 H         1 RES1    0.0000
     82 H15A       2.1753    2.2054   -1.2550 H         1 RES1    0.0000
     83 H16A       3.1504    1.4376    2.5453 H         1 RES1    0.0000
     84 H17A       4.7271    1.5658   -2.8238 H         1 RES1    0.0000
     85 H18A       5.3506    2.9386   -2.3948 H         1 RES1    0.0000
     86 H19A       3.8480    2.8631   -2.8366 H         1 RES1    0.0000
     87 H20A       0.5594    2.6369    0.8836 H         1 RES1    0.0000
     88 H21A       0.8593    1.5703    1.9914 H         1 RES1    0.0000
     89 H22A       0.5168    1.1103    0.5315 H         1 RES1    0.0000
@<TRIPOS>BOND
     1    1    2 ar
     2    2    3 ar
     3    3    4 ar
     4    4    5 ar
     5    5    6 ar
     6    6    1 ar
     7    7    4 1
     8    8    1 1
     9    9    8 1
    10   10    9 ar
    11   11   10 ar
    12   12   11 ar
    13   13   12 ar
    14   14    9 ar
    15   15   11 1
    16   16   13 1
    17   17    8 1
    18   18   17 ar
    19   19   18 ar
    20   20   19 ar
    21   21   20 ar
    22   22   17 ar
    23   23   19 1
    24   24   21 1
    25   25    2 1
    26   26    3 1
    27   27    7 1
    28   28    8 1
    29   29   10 1
    30   30   12 1
    31   31   14 1
    32   32   15 1
    33   33   15 1
    34   34   15 1
    35   35   16 1
    36   36   16 1
    37   37   16 1
    38   38   18 1
    39   39   20 1
    40   40   22 1
    41   41   23 1
    42   42   23 1
    43   43   23 1
    44   44   24 1
    45   45   24 1
    46   46   24 1
    47   47    6 ar
    48   48   47 ar
    49   49   48 ar
    50   50    5 ar
    51   51   47 1
    52   52   51 1
    53   53   52 ar
    54   54   53 ar
    55   55   54 ar
    56   56   55 ar
    57   57   52 ar
    58   58   54 1
    59   59   56 1
    60   60   51 1
    61   61   60 ar
    62   62   61 ar
    63   63   62 ar
    64   64   63 ar
    65   65   60 ar
    66   66   62 1
    67   67   64 1
    68   68   48 1
    69   69   49 1
    70   70    7 1
    71   71   51 1
    72   72   53 1
    73   73   55 1
    74   74   57 1
    75   75   58 1
    76   76   58 1
    77   77   58 1
    78   78   59 1
    79   79   59 1
    80   80   59 1
    81   81   61 1
    82   82   63 1
    83   83   65 1
    84   84   66 1
    85   85   66 1
    86   86   66 1
    87   87   67 1
    88   88   67 1
    89   89   67 1
    90    7   50 1
    91   13   14 ar
    92   21   22 ar
    93   49   50 ar
    94   56   57 ar
    95   64   65 ar
@<TRIPOS>SUBSTRUCTURE
     1 RES1 1

@<TRIPOS>CRYSIN
  14.1290   15.0850   16.3250  90.0000 101.3080  90.0000  15 1

