# MOL2 file generated by ConQuest
# Please check atom types

@<TRIPOS>MOLECULE
HPHENA01
    76    84     2
SMALL
NO_CHARGES
****
Generated from CSD

@<TRIPOS>ATOM
      1 C1         2.3784    2.8239    0.3616 C.ar      1 RES1    0.0000
      2 C2         2.4293    1.4347    0.3515 C.ar      1 RES1    0.0000
      3 C3         3.5101    0.7421    0.9442 C.ar      1 RES1    0.0000
      4 H1         3.5465   -0.2055    0.8915 H         1 RES1    0.0000
      5 C4         4.5055    1.4249    1.5942 C.ar      1 RES1    0.0000
      6 H2         5.2559    0.9525    1.9341 H         1 RES1    0.0000
      7 C5         4.4240    2.8281    1.7612 C.ar      1 RES1    0.0000
      8 C6         5.3629    3.5304    2.5655 C.ar      1 RES1    0.0000
      9 H3         6.1190    3.0706    2.9108 H         1 RES1    0.0000
     10 C7         5.1934    4.8582    2.8469 C.ar      1 RES1    0.0000
     11 H4         5.8276    5.3152    3.3876 H         1 RES1    0.0000
     12 C8         4.0746    5.5465    2.3329 C.ar      1 RES1    0.0000
     13 H5         3.9350    6.4564    2.5659 H         1 RES1    0.0000
     14 C9         3.1845    4.9162    1.4981 C.ar      1 RES1    0.0000
     15 H6         2.4547    5.4061    1.1357 H         1 RES1    0.0000
     16 C10        3.3375    3.5416    1.1647 C.ar      1 RES1    0.0000
     17 C11        1.2447    0.6883   -0.2143 C.3       1 RES1    0.0000
     18 H7         1.2330   -0.2404    0.1279 H         1 RES1    0.0000
     19 H8         1.3028    0.6576   -1.2015 H         1 RES1    0.0000
     20 C12       -0.8247    2.4585    5.9232 C.ar      2 RES2    0.0000
     21 C13       -0.0847    1.5178    5.2120 C.ar      2 RES2    0.0000
     22 C14        0.7274    1.9113    4.1232 C.ar      2 RES2    0.0000
     23 H9         1.2064    1.2523    3.6356 H         2 RES2    0.0000
     24 C15        0.8340    3.2265    3.7635 C.ar      2 RES2    0.0000
     25 H10        1.3246    3.4669    2.9845 H         2 RES2    0.0000
     26 C16        0.2138    4.2321    4.5461 C.ar      2 RES2    0.0000
     27 C17        0.4511    5.6073    4.2849 C.ar      2 RES2    0.0000
     28 H11        0.9433    5.8547    3.5116 H         2 RES2    0.0000
     29 C18       -0.0129    6.5829    5.1225 C.ar      2 RES2    0.0000
     30 H12        0.1505    7.4991    4.9302 H         2 RES2    0.0000
     31 C19       -0.7391    6.2111    6.2756 C.ar      2 RES2    0.0000
     32 H13       -1.0268    6.8827    6.8837 H         2 RES2    0.0000
     33 C20       -1.0377    4.8945    6.5329 C.ar      2 RES2    0.0000
     34 H14       -1.5481    4.6730    7.3023 H         2 RES2    0.0000
     35 C21       -0.5939    3.8561    5.6651 C.ar      2 RES2    0.0000
     36 C22       -0.0863    0.0894    5.6961 C.3       2 RES2    0.0000
     37 H15        0.6988   -0.3941    5.3372 H         2 RES2    0.0000
     38 H16       -0.9070   -0.3732    5.3914 H         2 RES2    0.0000
     39 C1C        1.2564    3.4717   -0.3616 C.ar      1 RES1    0.0000
     40 C2C        0.0278    2.8211   -0.3515 C.ar      1 RES1    0.0000
     41 C3C       -1.1124    3.4109   -0.9442 C.ar      1 RES1    0.0000
     42 H1C       -1.9512    2.9686   -0.8915 H         1 RES1    0.0000
     43 C4C       -1.0187    4.6143   -1.5942 C.ar      1 RES1    0.0000
     44 H2C       -1.8031    5.0280   -1.9341 H         1 RES1    0.0000
     45 C5C        0.2372    5.2454   -1.7612 C.ar      1 RES1    0.0000
     46 C6C        0.3760    6.4096   -2.5655 C.ar      1 RES1    0.0000
     47 H3C       -0.4002    6.8345   -2.9108 H         1 RES1    0.0000
     48 C7C        1.6106    6.9267   -2.8469 C.ar      1 RES1    0.0000
     49 H4C        1.6893    7.7045   -3.3876 H         1 RES1    0.0000
     50 C8C        2.7662    6.3020   -2.3329 C.ar      1 RES1    0.0000
     51 H5C        3.6239    6.6360   -2.5659 H         1 RES1    0.0000
     52 C9C        2.6653    5.2160   -1.4981 C.ar      1 RES1    0.0000
     53 H6C        3.4545    4.8289   -1.1357 H         1 RES1    0.0000
     54 C10C       1.3984    4.6611   -1.1647 C.ar      1 RES1    0.0000
     55 C11C      -0.0262    1.4221    0.2143 C.3       1 RES1    0.0000
     56 H7C       -0.8247    0.9476   -0.1279 H         1 RES1    0.0000
     57 H8C       -0.0819    1.4570    1.2015 H         1 RES1    0.0000
     58 C12E      -1.7167    1.9434    6.9966 C.ar      2 RES2    0.0000
     59 C13E      -1.2721    0.8323    7.7078 C.ar      2 RES2    0.0000
     60 C14E      -2.0189    0.3257    8.7966 C.ar      2 RES2    0.0000
     61 H9E       -1.6877   -0.4186    9.2842 H         2 RES2    0.0000
     62 C15E      -3.2112    0.8910    9.1563 C.ar      2 RES2    0.0000
     63 H10E      -3.6647    0.5863    9.9354 H         2 RES2    0.0000
     64 C16E      -3.7720    1.9308    8.3737 C.ar      2 RES2    0.0000
     65 C17E      -5.0816    2.4130    8.6350 C.ar      2 RES2    0.0000
     66 H11E      -5.5420    2.1104    9.4082 H         2 RES2    0.0000
     67 C18E      -5.6945    3.3026    7.7974 C.ar      2 RES2    0.0000
     68 H12E      -6.5696    3.6192    7.9896 H         2 RES2    0.0000
     69 C19E      -5.0094    3.7457    6.6443 C.ar      2 RES2    0.0000
     70 H13E      -5.4472    4.3306    6.0361 H         2 RES2    0.0000
     71 C20E      -3.7199    3.3460    6.3869 C.ar      2 RES2    0.0000
     72 H14E      -3.2729    3.6772    5.6175 H         2 RES2    0.0000
     73 C21E      -3.0425    2.4424    7.2547 C.ar      2 RES2    0.0000
     74 C22E      -0.0343    0.1195    7.2237 C.3       2 RES2    0.0000
     75 H15E      -0.0081   -0.8022    7.5827 H         2 RES2    0.0000
     76 H16E       0.7767    0.5989    7.5284 H         2 RES2    0.0000
@<TRIPOS>BOND
     1    1    2 ar
     2    2    3 ar
     3    3    4 1
     4    5    3 ar
     5    6    5 1
     6    7    5 ar
     7    8    7 ar
     8    9    8 1
     9   10    8 ar
    10   11   10 1
    11   12   10 ar
    12   13   12 1
    13   14   12 ar
    14   15   14 1
    15   16    1 ar
    16   17    2 1
    17   18   17 1
    18   19   17 1
    19   20   21 ar
    20   21   22 ar
    21   22   23 1
    22   24   22 ar
    23   25   24 1
    24   26   24 ar
    25   27   26 ar
    26   28   27 1
    27   29   27 ar
    28   30   29 1
    29   31   29 ar
    30   32   31 1
    31   33   31 ar
    32   34   33 1
    33   35   20 ar
    34   36   21 1
    35   37   36 1
    36   38   36 1
    37   39    1 1
    38   40   39 ar
    39   41   40 ar
    40   42   41 1
    41   43   41 ar
    42   44   43 1
    43   45   43 ar
    44   46   45 ar
    45   47   46 1
    46   48   46 ar
    47   49   48 1
    48   50   48 ar
    49   51   50 1
    50   52   50 ar
    51   53   52 1
    52   54   39 ar
    53   55   17 1
    54   56   55 1
    55   57   55 1
    56   58   20 1
    57   59   58 ar
    58   60   59 ar
    59   61   60 1
    60   62   60 ar
    61   63   62 1
    62   64   62 ar
    63   65   64 ar
    64   66   65 1
    65   67   65 ar
    66   68   67 1
    67   69   67 ar
    68   70   69 1
    69   71   69 ar
    70   72   71 1
    71   73   58 ar
    72   74   36 1
    73   75   74 1
    74   76   74 1
    75    7   16 ar
    76   14   16 ar
    77   26   35 ar
    78   33   35 ar
    79   40   55 1
    80   45   54 ar
    81   52   54 ar
    82   59   74 1
    83   64   73 ar
    84   71   73 ar
@<TRIPOS>SUBSTRUCTURE
     1 RES1 1
     2 RES2 20

@<TRIPOS>CRYSIN
   8.0693    8.0693   38.7595  90.0000  90.0000 120.0000 152 1

