# MOL2 file generated by ConQuest
# Please check atom types

@<TRIPOS>MOLECULE
HPHENA
    44    52     2
SMALL
NO_CHARGES
****
Generated from CSD

@<TRIPOS>ATOM
      1 C1         2.3951    2.8467    0.3686 C.ar      1 RES1    0.0000
      2 C2         2.4366    1.4533    0.3569 C.ar      1 RES1    0.0000
      3 C3         3.5036    0.7587    0.9569 C.ar      1 RES1    0.0000
      4 C4         4.4994    1.4455    1.6196 C.ar      1 RES1    0.0000
      5 C5         4.4196    2.8502    1.7765 C.ar      1 RES1    0.0000
      6 C6         5.3580    3.5462    2.5883 C.ar      1 RES1    0.0000
      7 C7         5.2001    4.8732    2.8667 C.ar      1 RES1    0.0000
      8 C8         4.0813    5.5685    2.3412 C.ar      1 RES1    0.0000
      9 C9         3.1877    4.9374    1.5020 C.ar      1 RES1    0.0000
     10 C10        3.3343    3.5610    1.1726 C.ar      1 RES1    0.0000
     11 C11        1.2433    0.7066   -0.2196 C.3       1 RES1    0.0000
     12 C12       -0.8260    2.4715    5.9922 C.ar      2 RES2    0.0000
     13 C13       -0.0932    1.5309    5.2824 C.ar      2 RES2    0.0000
     14 C14        0.7080    1.9187    4.1922 C.ar      2 RES2    0.0000
     15 C15        0.8155    3.2359    3.8353 C.ar      2 RES2    0.0000
     16 C16        0.1954    4.2393    4.6157 C.ar      2 RES2    0.0000
     17 C17        0.4401    5.6249    4.3373 C.ar      2 RES2    0.0000
     18 C18       -0.0269    6.5846    5.1883 C.ar      2 RES2    0.0000
     19 C19       -0.7365    6.2201    6.3608 C.ar      2 RES2    0.0000
     20 C20       -1.0316    4.8951    6.6197 C.ar      2 RES2    0.0000
     21 C21       -0.5976    3.8670    5.7412 C.ar      2 RES2    0.0000
     22 C22       -0.0806    0.1058    5.7687 C.3       2 RES2    0.0000
     23 C1C        1.2678    3.4975   -0.3686 C.ar      1 RES1    0.0000
     24 C11C      -0.0098    1.4300    0.2196 C.3       1 RES1    0.0000
     25 C2C        0.0403    2.8368   -0.3569 C.ar      1 RES1    0.0000
     26 C10C       1.4168    4.6681   -1.1726 C.ar      1 RES1    0.0000
     27 C3C       -1.0947    3.4136   -0.9569 C.ar      1 RES1    0.0000
     28 C5C        0.2585    5.2526   -1.7765 C.ar      1 RES1    0.0000
     29 C9C        2.6821    5.2293   -1.5020 C.ar      1 RES1    0.0000
     30 C4C       -0.9978    4.6194   -1.6196 C.ar      1 RES1    0.0000
     31 C6C        0.3921    6.4133   -2.5883 C.ar      1 RES1    0.0000
     32 C8C        2.7818    6.3188   -2.3412 C.ar      1 RES1    0.0000
     33 C7C        1.6203    6.9400   -2.8667 C.ar      1 RES1    0.0000
     34 C12E      -1.7274    1.9511    7.0798 C.ar      2 RES2    0.0000
     35 C22E      -0.0513    0.1227    7.3033 C.3       2 RES2    0.0000
     36 C13E      -1.2792    0.8462    7.7896 C.ar      2 RES2    0.0000
     37 C21E      -3.0501    2.4511    7.3308 C.ar      2 RES2    0.0000
     38 C14E      -2.0156    0.3462    8.8798 C.ar      2 RES2    0.0000
     39 C16E      -3.7691    1.9504    8.4563 C.ar      2 RES2    0.0000
     40 C20E      -3.7235    3.3410    6.4523 C.ar      2 RES2    0.0000
     41 C15E      -3.2101    0.9118    9.2367 C.ar      2 RES2    0.0000
     42 C17E      -5.0914    2.4313    8.7347 C.ar      2 RES2    0.0000
     43 C19E      -5.0185    3.7478    6.7112 C.ar      2 RES2    0.0000
     44 C18E      -5.6890    3.3156    7.8837 C.ar      2 RES2    0.0000
@<TRIPOS>BOND
     1    1    2 ar
     2    2    3 ar
     3    3    4 ar
     4    4    5 ar
     5    5    6 ar
     6    6    7 ar
     7    7    8 ar
     8    8    9 ar
     9    9   10 ar
    10   10    1 ar
    11   11    2 1
    12   12   13 ar
    13   13   14 ar
    14   14   15 ar
    15   15   16 ar
    16   16   17 ar
    17   17   18 ar
    18   18   19 ar
    19   19   20 ar
    20   20   21 ar
    21   21   12 ar
    22   22   13 1
    23   23    1 1
    24   24   11 1
    25   25   23 ar
    26   26   23 ar
    27   27   25 ar
    28   28   26 ar
    29   29   26 ar
    30   30   27 ar
    31   31   28 ar
    32   32   29 ar
    33   33   31 ar
    34   34   12 1
    35   35   22 1
    36   36   34 ar
    37   37   34 ar
    38   38   36 ar
    39   39   37 ar
    40   40   37 ar
    41   41   38 ar
    42   42   39 ar
    43   43   40 ar
    44   44   42 ar
    45    5   10 ar
    46   16   21 ar
    47   24   25 1
    48   28   30 ar
    49   32   33 ar
    50   35   36 1
    51   39   41 ar
    52   43   44 ar
@<TRIPOS>SUBSTRUCTURE
     1 RES1 1
     2 RES2 12

@<TRIPOS>CRYSIN
   8.1423    8.1423   39.2160  90.0000  90.0000 120.0000 152 1

