# MOL2 file generated by ConQuest
# Please check atom types

@<TRIPOS>MOLECULE
HPTHEL
    64    76     2
SMALL
NO_CHARGES
****
Generated from CSD

@<TRIPOS>ATOM
      1 C1        -0.1789    7.3598   -1.9159 C.ar      1 RES1    0.0000
      2 C2        -3.3894    3.5154   -2.6027 C.ar      1 RES1    0.0000
      3 C3        -1.6740    3.6875   -4.2921 C.ar      1 RES1    0.0000
      4 C4        -0.4391    4.0392   -4.6613 C.ar      1 RES1    0.0000
      5 C5         1.8600    4.8286   -4.1006 C.ar      1 RES1    0.0000
      6 C6         2.8138    5.1637   -3.2021 C.ar      1 RES1    0.0000
      7 C7         3.5261    5.1848   -0.8700 C.ar      1 RES1    0.0000
      8 C8         3.3362    4.8799    0.4447 C.ar      1 RES1    0.0000
      9 C9         2.0942    4.3622    0.8645 C.ar      1 RES1    0.0000
     10 C10        1.0723    4.2384   -0.0442 C.ar      1 RES1    0.0000
     11 C11        1.2357    4.6142   -1.3865 C.ar      1 RES1    0.0000
     12 C12        0.7114    8.3092   -2.3661 C.ar      1 RES1    0.0000
     13 C13        2.5358    5.0142   -1.8165 C.ar      1 RES1    0.0000
     14 C14        0.1659    4.5222   -2.3661 C.ar      1 RES1    0.0000
     15 C15        0.5499    4.4663   -3.7407 C.ar      1 RES1    0.0000
     16 C16       -1.2071    4.4905   -2.0107 C.ar      1 RES1    0.0000
     17 C17       -2.1141    3.8927   -2.9664 C.ar      1 RES1    0.0000
     18 C18       -1.7936    5.0354   -0.8240 C.ar      1 RES1    0.0000
     19 C19       -3.0147    4.4618   -0.4014 C.ar      1 RES1    0.0000
     20 C20       -1.2147    6.0950   -0.0433 C.ar      1 RES1    0.0000
     21 C21       -1.6507    6.1976    1.3092 C.ar      1 RES1    0.0000
     22 C22       -0.3214    7.0942   -0.5469 C.ar      1 RES1    0.0000
     23 C23        1.4909    9.0353   -1.4362 C.ar      1 RES1    0.0000
     24 C24        0.3742    7.9394    0.3545 C.ar      1 RES1    0.0000
     25 C25        1.3001    8.8572   -0.1307 C.ar      1 RES1    0.0000
     26 C26        0.0470    7.8700    1.7428 C.ar      1 RES1    0.0000
     27 C27       -0.9574    7.0715    2.1774 C.ar      1 RES1    0.0000
     28 C28       -2.7760    5.4837    1.7741 C.ar      1 RES1    0.0000
     29 C29       -3.4766    4.6731    0.9124 C.ar      1 RES1    0.0000
     30 C30       -3.8012    3.7116   -1.2825 C.ar      1 RES1    0.0000
     31 H1        -0.6348    6.8225   -2.4398 H         1 RES1    0.0000
     32 H2         0.2530    3.8641    0.2394 H         1 RES1    0.0000
     33 C31        5.7827   -6.7410    4.5389 C.ar      2 RES2    0.0000
     34 C32        4.4964   -6.9342    4.9983 C.ar      2 RES2    0.0000
     35 C33        3.4518   -7.2874    4.1209 C.ar      2 RES2    0.0000
     36 C34        3.7403   -7.4066    2.7970 C.ar      2 RES2    0.0000
     37 C35        5.2253   -7.0942    0.8645 C.ar      2 RES2    0.0000
     38 C36        6.4281   -6.7093    0.4189 C.ar      2 RES2    0.0000
     39 C37        8.7794   -5.9802    0.7485 C.ar      2 RES2    0.0000
     40 C38        9.8246   -5.7901    1.5412 C.ar      2 RES2    0.0000
     41 C39       10.8581   -5.9244    3.7222 C.ar      2 RES2    0.0000
     42 C40       10.8235   -6.2368    5.0425 C.ar      2 RES2    0.0000
     43 C41        9.7069   -7.3538    6.9307 C.ar      2 RES2    0.0000
     44 C42        8.7248   -8.1311    7.4178 C.ar      2 RES2    0.0000
     45 C43        6.8752   -9.7190    7.0431 C.ar      2 RES2    0.0000
     46 C44        6.1214  -10.4390    6.2817 C.ar      2 RES2    0.0000
     47 C45        5.5901  -11.3311    4.0472 C.ar      2 RES2    0.0000
     48 C46        5.8954  -11.4322    2.6994 C.ar      2 RES2    0.0000
     49 C47        6.8861  -10.6549    2.1847 C.ar      2 RES2    0.0000
     50 C48        7.5427   -9.7356    2.9295 C.ar      2 RES2    0.0000
     51 C49        7.2585   -9.5636    4.3013 C.ar      2 RES2    0.0000
     52 C50        6.3025  -10.4284    4.8731 C.ar      2 RES2    0.0000
     53 C51        7.9374   -8.4798    5.1493 C.ar      2 RES2    0.0000
     54 C52        7.8506   -8.8013    6.5524 C.ar      2 RES2    0.0000
     55 C53        8.7610   -7.5153    4.6889 C.ar      2 RES2    0.0000
     56 C54        9.7689   -7.0278    5.5461 C.ar      2 RES2    0.0000
     57 C55        8.6217   -6.8678    3.3936 C.ar      2 RES2    0.0000
     58 C56        9.7860   -6.2172    2.8826 C.ar      2 RES2    0.0000
     59 C57        7.4237   -6.7953    2.6248 C.ar      2 RES2    0.0000
     60 C58        7.5291   -6.4949    1.2411 C.ar      2 RES2    0.0000
     61 C59        6.0782   -6.9372    3.1662 C.ar      2 RES2    0.0000
     62 C60        5.0194   -7.1923    2.2657 C.ar      2 RES2    0.0000
     63 H3         6.4942   -6.4904    4.9808 H         2 RES2    0.0000
     64 H4         8.1350   -9.2677    2.4674 H         2 RES2    0.0000
@<TRIPOS>BOND
     1    1   12 ar
     2    2   17 ar
     3    3    4 ar
     4    4   15 ar
     5    5    6 ar
     6    6   13 ar
     7    7    8 ar
     8    8    9 ar
     9    9   10 ar
    10   10   11 ar
    11   11   13 ar
    12   12   23 ar
    13   13    7 ar
    14   14   11 ar
    15   15    5 ar
    16   16   14 ar
    17   17    3 ar
    18   18   16 ar
    19   19   18 ar
    20   20   18 ar
    21   21   20 ar
    22   22    1 ar
    23   23   25 ar
    24   24   22 ar
    25   25   24 ar
    26   26   24 ar
    27   27   21 ar
    28   28   21 ar
    29   29   19 ar
    30   30    2 ar
    31   31    1 1
    32   32   10 1
    33   33   34 ar
    34   34   35 ar
    35   35   36 ar
    36   36   62 ar
    37   37   38 ar
    38   38   60 ar
    39   39   40 ar
    40   40   58 ar
    41   41   42 ar
    42   42   56 ar
    43   43   44 ar
    44   44   54 ar
    45   45   46 ar
    46   46   52 ar
    47   47   48 ar
    48   48   49 ar
    49   49   50 ar
    50   50   51 ar
    51   51   52 ar
    52   52   47 ar
    53   53   51 ar
    54   54   45 ar
    55   55   53 ar
    56   56   43 ar
    57   57   55 ar
    58   58   41 ar
    59   59   57 ar
    60   60   39 ar
    61   61   33 ar
    62   62   37 ar
    63   63   33 1
    64   64   50 1
    65   14   15 ar
    66   16   17 ar
    67   19   30 ar
    68   20   22 ar
    69   26   27 ar
    70   28   29 ar
    71   53   54 ar
    72   55   56 ar
    73   57   58 ar
    74   59   60 ar
    75   59   61 ar
    76   61   62 ar
@<TRIPOS>SUBSTRUCTURE
     1 RES1 1
     2 RES2 33

@<TRIPOS>CRYSIN
  14.0220   15.0940    9.2210  90.0000  93.2000  90.0000   4 1

