# MOL2 file generated by ConQuest
# Please check atom types

@<TRIPOS>MOLECULE
HPTHEL04
    48    54     1
SMALL
NO_CHARGES
****
Generated from CSD

@<TRIPOS>ATOM
      1 C1         4.5735    3.3637    0.6309 C.ar      1 RES1    0.0000
      2 H1         4.0098    3.8494    1.2225 H         1 RES1    0.0000
      3 C2         4.9021    3.9148   -0.5825 C.ar      1 RES1    0.0000
      4 H2         4.5594    4.7667   -0.8266 H         1 RES1    0.0000
      5 C3         5.7433    3.2202   -1.4610 C.ar      1 RES1    0.0000
      6 H3         6.0100    3.6200   -2.2808 H         1 RES1    0.0000
      7 C4         6.1797    1.9699   -1.1392 C.ar      1 RES1    0.0000
      8 H4         6.7393    1.4994   -1.7455 H         1 RES1    0.0000
      9 C5         5.8133    1.3606    0.0818 C.ar      1 RES1    0.0000
     10 C6         6.1285   -0.0104    0.3360 C.ar      1 RES1    0.0000
     11 H5         6.7093   -0.4794   -0.2523 H         1 RES1    0.0000
     12 C7         5.6063   -0.6395    1.4046 C.ar      1 RES1    0.0000
     13 H6         5.7316   -1.5766    1.4993 H         1 RES1    0.0000
     14 C8         4.8711    0.0671    2.3965 C.ar      1 RES1    0.0000
     15 C9         4.2774   -0.6342    3.4893 C.ar      1 RES1    0.0000
     16 H7         4.4058   -1.5720    3.5710 H         1 RES1    0.0000
     17 C10        3.5358    0.0212    4.4051 C.ar      1 RES1    0.0000
     18 H8         3.0412   -0.4714    5.0498 H         1 RES1    0.0000
     19 C11        3.4866    1.4419    4.4162 C.ar      1 RES1    0.0000
     20 C12        2.6945    2.1268    5.3806 C.ar      1 RES1    0.0000
     21 H9         2.2121    1.6296    6.0302 H         1 RES1    0.0000
     22 C13        2.6214    3.4756    5.3812 C.ar      1 RES1    0.0000
     23 H10        1.9851    3.9116    5.9359 H         1 RES1    0.0000
     24 C14        3.4832    4.2478    4.5637 C.ar      1 RES1    0.0000
     25 C15        3.4249    5.6723    4.5846 C.ar      1 RES1    0.0000
     26 H11        2.7900    6.1048    5.1421 H         1 RES1    0.0000
     27 C16        4.2553    6.4163    3.8267 C.ar      1 RES1    0.0000
     28 H12        4.1213    7.3541    3.7597 H         1 RES1    0.0000
     29 C17        5.3297    5.8076    3.1275 C.ar      1 RES1    0.0000
     30 C18        6.2506    6.5999    2.3811 C.ar      1 RES1    0.0000
     31 H13        6.0958    7.5339    2.2993 H         1 RES1    0.0000
     32 C19        7.3284    6.0612    1.7918 C.ar      1 RES1    0.0000
     33 H14        7.8725    6.5935    1.2245 H         1 RES1    0.0000
     34 C20        7.6621    4.6898    2.0150 C.ar      1 RES1    0.0000
     35 C21        8.8796    4.1512    1.5449 C.ar      1 RES1    0.0000
     36 H15        9.4500    4.6872    1.0071 H         1 RES1    0.0000
     37 C22        9.2535    2.8720    1.8493 C.ar      1 RES1    0.0000
     38 H16       10.0539    2.5078    1.4911 H         1 RES1    0.0000
     39 C23        8.4454    2.1037    2.6951 C.ar      1 RES1    0.0000
     40 H17        8.7288    1.2343    2.9536 H         1 RES1    0.0000
     41 C24        7.2555    2.5882    3.1531 C.ar      1 RES1    0.0000
     42 H18        6.7311    2.0549    3.7391 H         1 RES1    0.0000
     43 C25        6.7848    3.8721    2.7725 C.ar      1 RES1    0.0000
     44 C26        5.5048    4.4043    3.1929 C.ar      1 RES1    0.0000
     45 C27        4.4219    3.5976    3.7186 C.ar      1 RES1    0.0000
     46 C28        4.2230    2.1800    3.4590 C.ar      1 RES1    0.0000
     47 C29        4.7250    1.4690    2.3021 C.ar      1 RES1    0.0000
     48 C30        5.0504    2.0929    1.0255 C.ar      1 RES1    0.0000
@<TRIPOS>BOND
     1    1    2 1
     2    3    1 ar
     3    4    3 1
     4    5    3 ar
     5    6    5 1
     6    7    5 ar
     7    8    7 1
     8    9    7 ar
     9   10    9 ar
    10   11   10 1
    11   12   10 ar
    12   13   12 1
    13   14   12 ar
    14   15   14 ar
    15   16   15 1
    16   17   15 ar
    17   18   17 1
    18   19   17 ar
    19   20   19 ar
    20   21   20 1
    21   22   20 ar
    22   23   22 1
    23   24   22 ar
    24   25   24 ar
    25   26   25 1
    26   27   25 ar
    27   28   27 1
    28   29   27 ar
    29   30   29 ar
    30   31   30 1
    31   32   30 ar
    32   33   32 1
    33   34   32 ar
    34   35   34 ar
    35   36   35 1
    36   37   35 ar
    37   38   37 1
    38   39   37 ar
    39   40   39 1
    40   41   39 ar
    41   42   41 1
    42   43   34 ar
    43   44   29 ar
    44   45   24 ar
    45   46   19 ar
    46   47   14 ar
    47   48    1 ar
    48    9   48 ar
    49   41   43 ar
    50   43   44 ar
    51   44   45 ar
    52   45   46 ar
    53   46   47 ar
    54   47   48 ar
@<TRIPOS>SUBSTRUCTURE
     1 RES1 1

@<TRIPOS>CRYSIN
   8.0010   11.5250   20.6410  90.0000  96.4360  90.0000 231 1

