# MOL2 file generated by ConQuest
# Please check atom types

@<TRIPOS>MOLECULE
HPTHEL03
    48    54     1
SMALL
NO_CHARGES
****
Generated from CSD

@<TRIPOS>ATOM
      1 C1         4.6173    2.4031    0.6466 C.ar      1 RES1    0.0000
      2 H1         4.0592    1.9106    1.2364 H         1 RES1    0.0000
      3 C2         4.9379    1.8639   -0.5749 C.ar      1 RES1    0.0000
      4 H2         4.5927    1.0139   -0.8243 H         1 RES1    0.0000
      5 C3         5.7731    2.5649   -1.4557 C.ar      1 RES1    0.0000
      6 H3         6.0357    2.1726   -2.2812 H         1 RES1    0.0000
      7 C4         6.2055    3.8098   -1.1229 C.ar      1 RES1    0.0000
      8 H4         6.7607    4.2867   -1.7289 H         1 RES1    0.0000
      9 C5         5.8485    4.4091    0.1024 C.ar      1 RES1    0.0000
     10 C6         6.1562    5.7752    0.3717 C.ar      1 RES1    0.0000
     11 H5         6.7318    6.2524   -0.2143 H         1 RES1    0.0000
     12 C7         5.6390    6.3932    1.4456 C.ar      1 RES1    0.0000
     13 H6         5.7579    7.3307    1.5455 H         1 RES1    0.0000
     14 C8         4.9139    5.6735    2.4409 C.ar      1 RES1    0.0000
     15 C9         4.3199    6.3602    3.5464 C.ar      1 RES1    0.0000
     16 H7         4.4468    7.2973    3.6392 H         1 RES1    0.0000
     17 C10        3.5866    5.6977    4.4542 C.ar      1 RES1    0.0000
     18 H8         3.0923    6.1834    5.1043 H         1 RES1    0.0000
     19 C11        3.5421    4.2831    4.4517 C.ar      1 RES1    0.0000
     20 C12        2.7539    3.5838    5.4124 C.ar      1 RES1    0.0000
     21 H9         2.2773    4.0729    6.0728 H         1 RES1    0.0000
     22 C13        2.6762    2.2417    5.3965 C.ar      1 RES1    0.0000
     23 H10        2.0374    1.8002    5.9450 H         1 RES1    0.0000
     24 C14        3.5434    1.4774    4.5652 C.ar      1 RES1    0.0000
     25 C15        3.4881    0.0544    4.5677 C.ar      1 RES1    0.0000
     26 H11        2.8532   -0.3874    5.1208 H         1 RES1    0.0000
     27 C16        4.3168   -0.6733    3.8032 C.ar      1 RES1    0.0000
     28 H12        4.1820   -1.6105    3.7236 H         1 RES1    0.0000
     29 C17        5.3915   -0.0546    3.1135 C.ar      1 RES1    0.0000
     30 C18        6.3182   -0.8388    2.3615 C.ar      1 RES1    0.0000
     31 H13        6.1671   -1.7726    2.2688 H         1 RES1    0.0000
     32 C19        7.3970   -0.2918    1.7815 C.ar      1 RES1    0.0000
     33 H14        7.9450   -0.8185    1.2117 H         1 RES1    0.0000
     34 C20        7.7256    1.0736    2.0162 C.ar      1 RES1    0.0000
     35 C21        8.9448    1.6195    1.5581 C.ar      1 RES1    0.0000
     36 H15        9.5171    1.0898    1.0159 H         1 RES1    0.0000
     37 C22        9.3163    2.8871    1.8785 C.ar      1 RES1    0.0000
     38 H16       10.1200    3.2532    1.5290 H         1 RES1    0.0000
     39 C23        8.5056    3.6501    2.7279 C.ar      1 RES1    0.0000
     40 H17        8.7877    4.5166    2.9962 H         1 RES1    0.0000
     41 C24        7.3051    3.1541    3.1755 C.ar      1 RES1    0.0000
     42 H18        6.7758    3.6797    3.7649 H         1 RES1    0.0000
     43 C25        6.8403    1.8828    2.7813 C.ar      1 RES1    0.0000
     44 C26        5.5609    1.3446    3.1928 C.ar      1 RES1    0.0000
     45 C27        4.4803    2.1402    3.7282 C.ar      1 RES1    0.0000
     46 C28        4.2790    3.5534    3.4830 C.ar      1 RES1    0.0000
     47 C29        4.7746    4.2760    2.3286 C.ar      1 RES1    0.0000
     48 C30        5.0941    3.6667    1.0491 C.ar      1 RES1    0.0000
@<TRIPOS>BOND
     1    1    2 1
     2    3    1 ar
     3    4    3 1
     4    5    3 ar
     5    6    5 1
     6    7    5 ar
     7    8    7 1
     8    9    7 ar
     9   10    9 ar
    10   11   10 1
    11   12   10 ar
    12   13   12 1
    13   14   12 ar
    14   15   14 ar
    15   16   15 1
    16   17   15 ar
    17   18   17 1
    18   19   17 ar
    19   20   19 ar
    20   21   20 1
    21   22   20 ar
    22   23   22 1
    23   24   22 ar
    24   25   24 ar
    25   26   25 1
    26   27   25 ar
    27   28   27 1
    28   29   27 ar
    29   30   29 ar
    30   31   30 1
    31   32   30 ar
    32   33   32 1
    33   34   32 ar
    34   35   34 ar
    35   36   35 1
    36   37   35 ar
    37   38   37 1
    38   39   37 ar
    39   40   39 1
    40   41   39 ar
    41   42   41 1
    42   43   34 ar
    43   44   29 ar
    44   45   24 ar
    45   46   19 ar
    46   47   14 ar
    47   48    1 ar
    48    9   48 ar
    49   41   43 ar
    50   43   44 ar
    51   44   45 ar
    52   45   46 ar
    53   46   47 ar
    54   47   48 ar
@<TRIPOS>SUBSTRUCTURE
     1 RES1 1

@<TRIPOS>CRYSIN
   8.0463   11.4955   20.7227  90.0000  96.0637  90.0000 231 1

