# MOL2 file generated by ConQuest
# Please check atom types

@<TRIPOS>MOLECULE
HPTHEL02
    30    36     1
SMALL
NO_CHARGES
****
Generated from CSD

@<TRIPOS>ATOM
      1 C1        11.4369    3.3430   -3.3701 C.ar      1 RES1    0.0000
      2 C2        10.1410    3.8743   -3.1980 C.ar      1 RES1    0.0000
      3 C3         9.1796    3.1705   -2.4344 C.ar      1 RES1    0.0000
      4 C4         9.4787    1.9354   -1.9480 C.ar      1 RES1    0.0000
      5 C5        10.7505    1.3225   -2.2131 C.ar      1 RES1    0.0000
      6 C6        10.9874   -0.0460   -1.8535 C.ar      1 RES1    0.0000
      7 C7        12.1241   -0.6601   -2.2252 C.ar      1 RES1    0.0000
      8 C8        13.1650    0.0655   -2.8667 C.ar      1 RES1    0.0000
      9 C9        14.3659   -0.6003   -3.3596 C.ar      1 RES1    0.0000
     10 C10       15.3410    0.0690   -4.0092 C.ar      1 RES1    0.0000
     11 C11       15.3153    1.4616   -4.0439 C.ar      1 RES1    0.0000
     12 C12       16.3544    2.1677   -4.7299 C.ar      1 RES1    0.0000
     13 C13       16.3442    3.4776   -4.8156 C.ar      1 RES1    0.0000
     14 C14       15.4304    4.2745   -4.0286 C.ar      1 RES1    0.0000
     15 C15       15.3973    5.7086   -4.0730 C.ar      1 RES1    0.0000
     16 C16       14.5552    6.4572   -3.3361 C.ar      1 RES1    0.0000
     17 C17       13.7744    5.7960   -2.3593 C.ar      1 RES1    0.0000
     18 C18       12.9497    6.5711   -1.5061 C.ar      1 RES1    0.0000
     19 C19       12.2712    6.0640   -0.4694 C.ar      1 RES1    0.0000
     20 C20       12.4644    4.6909   -0.1107 C.ar      1 RES1    0.0000
     21 C21       11.8832    4.1619    1.0778 C.ar      1 RES1    0.0000
     22 C22       12.1873    2.8739    1.4729 C.ar      1 RES1    0.0000
     23 C23       13.1252    2.0965    0.7369 C.ar      1 RES1    0.0000
     24 C24       13.6768    2.6105   -0.4476 C.ar      1 RES1    0.0000
     25 C25       13.3092    3.8675   -0.9356 C.ar      1 RES1    0.0000
     26 C26       13.8504    4.4056   -2.1613 C.ar      1 RES1    0.0000
     27 C27       14.4785    3.6202   -3.1729 C.ar      1 RES1    0.0000
     28 C28       14.2630    2.2034   -3.3919 C.ar      1 RES1    0.0000
     29 C29       13.0948    1.4570   -3.0388 C.ar      1 RES1    0.0000
     30 C30       11.7713    2.0803   -2.8619 C.ar      1 RES1    0.0000
@<TRIPOS>BOND
     1    1    2 ar
     2    2    3 ar
     3    3    4 ar
     4    4    5 ar
     5    5    6 ar
     6    6    7 ar
     7    7    8 ar
     8    8    9 ar
     9    9   10 ar
    10   10   11 ar
    11   11   12 ar
    12   12   13 ar
    13   13   14 ar
    14   14   15 ar
    15   15   16 ar
    16   16   17 ar
    17   17   18 ar
    18   18   19 ar
    19   19   20 ar
    20   20   21 ar
    21   21   22 ar
    22   22   23 ar
    23   23   24 ar
    24   24   25 ar
    25   25   20 ar
    26   26   17 ar
    27   27   14 ar
    28   28   11 ar
    29   29    8 ar
    30   30    1 ar
    31    5   30 ar
    32   25   26 ar
    33   26   27 ar
    34   27   28 ar
    35   28   29 ar
    36   29   30 ar
@<TRIPOS>SUBSTRUCTURE
     1 RES1 1

@<TRIPOS>CRYSIN
  20.8250   11.5000   23.0930  90.0000 159.5200  90.0000  14 1

