# MOL2 file generated by ConQuest
# Please check atom types

@<TRIPOS>MOLECULE
HUTGOS01
    64    69     1
SMALL
NO_CHARGES
****
Generated from CSD

@<TRIPOS>ATOM
      1 C1        -0.7197   -5.4493   -0.6307 C.3       1 RES1    0.0000
      2 C2        -0.8789   -4.4207    0.4574 C.ar      1 RES1    0.0000
      3 C3        -1.6710   -4.6323    1.5490 C.ar      1 RES1    0.0000
      4 C4        -1.8464   -3.6605    2.5633 C.ar      1 RES1    0.0000
      5 C5        -1.1393   -2.4278    2.4801 C.ar      1 RES1    0.0000
      6 C6        -0.3300   -2.2251    1.3392 C.ar      1 RES1    0.0000
      7 C7        -0.2116   -3.1650    0.3627 C.ar      1 RES1    0.0000
      8 C8        -2.7442   -3.8611    3.6366 C.ar      1 RES1    0.0000
      9 C9        -2.9495   -2.8869    4.5562 C.ar      1 RES1    0.0000
     10 C10       -2.2460   -1.6655    4.5055 C.ar      1 RES1    0.0000
     11 C11       -1.3183   -1.4417    3.4992 C.ar      1 RES1    0.0000
     12 C12       -0.6655   -0.0982    3.4769 C.2       1 RES1    0.0000
     13 C13       -1.6764    1.0095    3.7151 C.3       1 RES1    0.0000
     14 C14       -2.1782    0.7925    5.1680 C.3       1 RES1    0.0000
     15 C15       -2.5517   -0.6020    5.5205 C.3       1 RES1    0.0000
     16 C16       -2.8039    1.0416    2.6960 C.3       1 RES1    0.0000
     17 H1         0.2351   -5.7621   -0.6699 H         1 RES1    0.0000
     18 H2        -0.8771   -5.0607   -1.5090 H         1 RES1    0.0000
     19 H3        -1.2659   -6.2222   -0.5143 H         1 RES1    0.0000
     20 H4        -2.1701   -5.4397    1.6444 H         1 RES1    0.0000
     21 H5         0.0814   -1.4047    1.2316 H         1 RES1    0.0000
     22 H6         0.3617   -3.0357   -0.4534 H         1 RES1    0.0000
     23 H7        -3.2642   -4.6704    3.7015 H         1 RES1    0.0000
     24 H8        -3.5897   -3.0111    5.2174 H         1 RES1    0.0000
     25 H9        -1.2207    1.8648    3.6880 H         1 RES1    0.0000
     26 H10       -2.7036    1.4518    5.3662 H         1 RES1    0.0000
     27 H11       -1.2116    0.9428    5.8941 H         1 RES1    0.0000
     28 H12       -2.3238   -0.8485    6.4016 H         1 RES1    0.0000
     29 H13       -3.5535   -0.6222    5.6640 H         1 RES1    0.0000
     30 H14       -3.3184    0.2263    2.6662 H         1 RES1    0.0000
     31 H15       -3.4902    1.7045    2.9166 H         1 RES1    0.0000
     32 H16       -2.4685    1.1690    1.7256 H         1 RES1    0.0000
     33 C1A        0.7197    5.4493   -0.6307 C.3       1 RES1    0.0000
     34 C2A        0.8789    4.4207    0.4574 C.ar      1 RES1    0.0000
     35 C3A        1.6710    4.6323    1.5490 C.ar      1 RES1    0.0000
     36 C4A        1.8464    3.6605    2.5633 C.ar      1 RES1    0.0000
     37 C5A        1.1393    2.4278    2.4801 C.ar      1 RES1    0.0000
     38 C6A        0.3300    2.2251    1.3392 C.ar      1 RES1    0.0000
     39 C7A        0.2116    3.1650    0.3627 C.ar      1 RES1    0.0000
     40 C8A        2.7442    3.8611    3.6366 C.ar      1 RES1    0.0000
     41 C9A        2.9495    2.8869    4.5562 C.ar      1 RES1    0.0000
     42 C10A       2.2460    1.6655    4.5055 C.ar      1 RES1    0.0000
     43 C11A       1.3183    1.4417    3.4992 C.ar      1 RES1    0.0000
     44 C12A       0.6655    0.0982    3.4769 C.2       1 RES1    0.0000
     45 C13A       1.6764   -1.0095    3.7151 C.3       1 RES1    0.0000
     46 C14A       2.1782   -0.7925    5.1680 C.3       1 RES1    0.0000
     47 C15A       2.5517    0.6020    5.5205 C.3       1 RES1    0.0000
     48 C16A       2.8039   -1.0416    2.6960 C.3       1 RES1    0.0000
     49 H1A       -0.2351    5.7621   -0.6699 H         1 RES1    0.0000
     50 H2A        0.8771    5.0607   -1.5090 H         1 RES1    0.0000
     51 H3A        1.2659    6.2222   -0.5143 H         1 RES1    0.0000
     52 H4A        2.1701    5.4397    1.6444 H         1 RES1    0.0000
     53 H5A       -0.0814    1.4047    1.2316 H         1 RES1    0.0000
     54 H6A       -0.3617    3.0357   -0.4534 H         1 RES1    0.0000
     55 H7A        3.2642    4.6704    3.7015 H         1 RES1    0.0000
     56 H8A        3.5897    3.0111    5.2174 H         1 RES1    0.0000
     57 H9A        1.2207   -1.8648    3.6880 H         1 RES1    0.0000
     58 H10A       2.7036   -1.4518    5.3662 H         1 RES1    0.0000
     59 H11A       1.2116   -0.9427    5.8941 H         1 RES1    0.0000
     60 H12A       2.3238    0.8485    6.4016 H         1 RES1    0.0000
     61 H13A       3.5535    0.6222    5.6640 H         1 RES1    0.0000
     62 H14A       3.3184   -0.2263    2.6662 H         1 RES1    0.0000
     63 H15A       3.4902   -1.7045    2.9166 H         1 RES1    0.0000
     64 H16A       2.4685   -1.1690    1.7256 H         1 RES1    0.0000
@<TRIPOS>BOND
     1    1    2 1
     2    2    3 ar
     3    3    4 ar
     4    4    5 ar
     5    5    6 ar
     6    6    7 ar
     7    7    2 ar
     8    8    4 ar
     9    9    8 ar
    10   10    9 ar
    11   11    5 ar
    12   12   11 1
    13   13   12 1
    14   14   13 1
    15   15   10 1
    16   16   13 1
    17   17    1 1
    18   18    1 1
    19   19    1 1
    20   20    3 1
    21   21    6 1
    22   22    7 1
    23   23    8 1
    24   24    9 1
    25   25   13 1
    26   26   14 1
    27   27   14 1
    28   28   15 1
    29   29   15 1
    30   30   16 1
    31   31   16 1
    32   32   16 1
    33   33   34 1
    34   34   35 ar
    35   35   36 ar
    36   36   37 ar
    37   37   38 ar
    38   38   39 ar
    39   39   34 ar
    40   40   36 ar
    41   41   40 ar
    42   42   41 ar
    43   43   37 ar
    44   44   12 2
    45   45   44 1
    46   46   45 1
    47   47   42 1
    48   48   45 1
    49   49   33 1
    50   50   33 1
    51   51   33 1
    52   52   35 1
    53   53   38 1
    54   54   39 1
    55   55   40 1
    56   56   41 1
    57   57   45 1
    58   58   46 1
    59   59   46 1
    60   60   47 1
    61   61   47 1
    62   62   48 1
    63   63   48 1
    64   64   48 1
    65   10   11 ar
    66   14   15 1
    67   42   43 ar
    68   43   44 1
    69   46   47 1
@<TRIPOS>SUBSTRUCTURE
     1 RES1 1

@<TRIPOS>CRYSIN
   9.0420   18.8550    6.7670  90.0000  90.0000  90.0000  18 1

