# MOL2 file generated by ConQuest
# Please check atom types

@<TRIPOS>MOLECULE
ICUPUU
    68    74     1
SMALL
NO_CHARGES
****
Generated from CSD

@<TRIPOS>ATOM
      1 C1         4.7622   -0.1387    8.9247 C.ar      1 RES1    0.0000
      2 C2         3.6233   -0.2437    9.6948 C.ar      1 RES1    0.0000
      3 H1         3.5863   -0.9234   10.3559 H         1 RES1    0.0000
      4 C3         2.5151    0.6054    9.5450 C.ar      1 RES1    0.0000
      5 C4         2.6098    1.6173    8.6104 C.ar      1 RES1    0.0000
      6 H2         1.8689    2.1990    8.4834 H         1 RES1    0.0000
      7 C5         3.7717    1.8126    7.8353 C.ar      1 RES1    0.0000
      8 C6         3.8664    2.9218    6.9007 C.ar      1 RES1    0.0000
      9 C7         2.8465    3.8794    6.7297 C.ar      1 RES1    0.0000
     10 H3         2.0353    3.7933    7.2166 H         1 RES1    0.0000
     11 C8         3.0101    4.9368    5.8684 C.ar      1 RES1    0.0000
     12 H4         2.3195    5.5829    5.7772 H         1 RES1    0.0000
     13 C9         4.1820    5.0672    5.1259 C.ar      1 RES1    0.0000
     14 H5         4.2850    5.7900    4.5169 H         1 RES1    0.0000
     15 C10        5.1812    4.1497    5.2789 C.ar      1 RES1    0.0000
     16 H6         5.9806    4.2447    4.7741 H         1 RES1    0.0000
     17 C11        5.0507    3.0676    6.1647 C.ar      1 RES1    0.0000
     18 C12        6.1131    2.1530    6.3471 C.ar      1 RES1    0.0000
     19 H7         6.9121    2.2864    5.8504 H         1 RES1    0.0000
     20 C13        6.0489    1.0945    7.1938 C.ar      1 RES1    0.0000
     21 C14        4.8570    0.9193    7.9868 C.ar      1 RES1    0.0000
     22 C15        1.2945    0.4248   10.4439 C.3       1 RES1    0.0000
     23 C16        0.8876   -1.0532   10.4895 C.3       1 RES1    0.0000
     24 H8         0.0955   -1.1570   11.0561 H         1 RES1    0.0000
     25 H9         1.6254   -1.5831   10.8574 H         1 RES1    0.0000
     26 H10        0.6849   -1.3636    9.5825 H         1 RES1    0.0000
     27 C17        1.6618    0.8992   11.8588 C.3       1 RES1    0.0000
     28 H11        0.9025    0.7529   12.4597 H         1 RES1    0.0000
     29 H12        1.8818    1.8539   11.8360 H         1 RES1    0.0000
     30 H13        2.4371    0.3930   12.1812 H         1 RES1    0.0000
     31 C18        0.0737    1.2172    9.9537 C.3       1 RES1    0.0000
     32 H14       -0.6890    1.0414   10.5432 H         1 RES1    0.0000
     33 H15       -0.1489    0.9405    9.0403 H         1 RES1    0.0000
     34 H16        0.2808    2.1749    9.9635 H         1 RES1    0.0000
     35 C1B        7.1678    0.1387    7.3582 C.ar      1 RES1    0.0000
     36 C2B        8.3067    0.2437    6.5881 C.ar      1 RES1    0.0000
     37 H1B        8.3437    0.9234    5.9270 H         1 RES1    0.0000
     38 C3B        9.4149   -0.6054    6.7379 C.ar      1 RES1    0.0000
     39 C4B        9.3202   -1.6173    7.6725 C.ar      1 RES1    0.0000
     40 H2B       10.0611   -2.1990    7.7995 H         1 RES1    0.0000
     41 C5B        8.1582   -1.8126    8.4476 C.ar      1 RES1    0.0000
     42 C6B        8.0635   -2.9218    9.3822 C.ar      1 RES1    0.0000
     43 C7B        9.0834   -3.8794    9.5532 C.ar      1 RES1    0.0000
     44 H3B        9.8947   -3.7933    9.0663 H         1 RES1    0.0000
     45 C8B        8.9199   -4.9368   10.4145 C.ar      1 RES1    0.0000
     46 H4B        9.6105   -5.5829   10.5057 H         1 RES1    0.0000
     47 C9B        7.7480   -5.0672   11.1571 C.ar      1 RES1    0.0000
     48 H5B        7.6450   -5.7900   11.7660 H         1 RES1    0.0000
     49 C10B       6.7488   -4.1497   11.0040 C.ar      1 RES1    0.0000
     50 H6B        5.9494   -4.2447   11.5088 H         1 RES1    0.0000
     51 C11B       6.8793   -3.0676   10.1182 C.ar      1 RES1    0.0000
     52 C12B       5.8169   -2.1530    9.9358 C.ar      1 RES1    0.0000
     53 H7B        5.0178   -2.2864   10.4325 H         1 RES1    0.0000
     54 C13B       5.8811   -1.0945    9.0891 C.ar      1 RES1    0.0000
     55 C14B       7.0729   -0.9193    8.2961 C.ar      1 RES1    0.0000
     56 C15B      10.6355   -0.4248    5.8391 C.3       1 RES1    0.0000
     57 C16B      11.0424    1.0532    5.7935 C.3       1 RES1    0.0000
     58 H8B       11.8344    1.1570    5.2268 H         1 RES1    0.0000
     59 H9B       10.3046    1.5831    5.4255 H         1 RES1    0.0000
     60 H10B      11.2450    1.3636    6.7004 H         1 RES1    0.0000
     61 C17B      10.2681   -0.8992    4.4241 C.3       1 RES1    0.0000
     62 H11B      11.0275   -0.7529    3.8232 H         1 RES1    0.0000
     63 H12B      10.0482   -1.8539    4.4469 H         1 RES1    0.0000
     64 H13B       9.4929   -0.3930    4.1017 H         1 RES1    0.0000
     65 C18B      11.8563   -1.2172    6.3292 C.3       1 RES1    0.0000
     66 H14B      12.6190   -1.0414    5.7397 H         1 RES1    0.0000
     67 H15B      12.0789   -0.9405    7.2426 H         1 RES1    0.0000
     68 H16B      11.6492   -2.1749    6.3194 H         1 RES1    0.0000
@<TRIPOS>BOND
     1    1    2 ar
     2    2    3 1
     3    4    2 ar
     4    5    4 ar
     5    6    5 1
     6    7    5 ar
     7    8    7 ar
     8    9    8 ar
     9   10    9 1
    10   11    9 ar
    11   12   11 1
    12   13   11 ar
    13   14   13 1
    14   15   13 ar
    15   16   15 1
    16   17    8 ar
    17   18   17 ar
    18   19   18 1
    19   20   18 ar
    20   21    1 ar
    21   22    4 1
    22   23   22 1
    23   24   23 1
    24   25   23 1
    25   26   23 1
    26   27   22 1
    27   28   27 1
    28   29   27 1
    29   30   27 1
    30   31   22 1
    31   32   31 1
    32   33   31 1
    33   34   31 1
    34   35   20 ar
    35   36   35 ar
    36   37   36 1
    37   38   36 ar
    38   39   38 ar
    39   40   39 1
    40   41   39 ar
    41   42   41 ar
    42   43   42 ar
    43   44   43 1
    44   45   43 ar
    45   46   45 1
    46   47   45 ar
    47   48   47 1
    48   49   47 ar
    49   50   49 1
    50   51   42 ar
    51   52   51 ar
    52   53   52 1
    53   54    1 ar
    54   55   35 ar
    55   56   38 1
    56   57   56 1
    57   58   57 1
    58   59   57 1
    59   60   57 1
    60   61   56 1
    61   62   61 1
    62   63   61 1
    63   64   61 1
    64   65   56 1
    65   66   65 1
    66   67   65 1
    67   68   65 1
    68    7   21 ar
    69   15   17 ar
    70   20   21 ar
    71   41   55 ar
    72   49   51 ar
    73   52   54 ar
    74   54   55 ar
@<TRIPOS>SUBSTRUCTURE
     1 RES1 1

@<TRIPOS>CRYSIN
  12.6540    5.9003   16.2990  90.0000  92.5460  90.0000  14 1

