# MOL2 file generated by ConQuest
# Please check atom types

@<TRIPOS>MOLECULE
ICURAC
    80    88     1
SMALL
NO_CHARGES
****
Generated from CSD

@<TRIPOS>ATOM
      1 C1         3.4634    0.7077    8.9753 C.ar      1 RES1    0.0000
      2 C2         4.5394    0.0174    9.5098 C.ar      1 RES1    0.0000
      3 H1         4.3688   -0.7173   10.0867 H         1 RES1    0.0000
      4 C3         5.8655    0.3613    9.2327 C.ar      1 RES1    0.0000
      5 C4         6.0846    1.3810    8.3335 C.ar      1 RES1    0.0000
      6 H2         6.9875    1.6594    8.1654 H         1 RES1    0.0000
      7 C5         5.0437    2.0881    7.6987 C.ar      1 RES1    0.0000
      8 C6         5.2758    3.1403    6.7245 C.ar      1 RES1    0.0000
      9 C7         6.4793    3.2870    5.9180 C.ar      1 RES1    0.0000
     10 C8         7.4549    2.2781    5.7432 C.ar      1 RES1    0.0000
     11 H3         7.3575    1.4189    6.1522 H         1 RES1    0.0000
     12 C9         8.5320    2.4416    4.9159 C.ar      1 RES1    0.0000
     13 H4         9.1648    1.7382    4.8202 H         1 RES1    0.0000
     14 C10        8.7133    3.6363    4.2084 C.ar      1 RES1    0.0000
     15 H5         9.4776    3.7584    3.6569 H         1 RES1    0.0000
     16 C11        7.7776    4.6229    4.3208 C.ar      1 RES1    0.0000
     17 H6         7.8957    5.4316    3.8374 H         1 RES1    0.0000
     18 C12        6.6415    4.4702    5.1352 C.ar      1 RES1    0.0000
     19 C13        5.6150    5.4538    5.1214 C.ar      1 RES1    0.0000
     20 H7         5.7541    6.2727    4.6601 H         1 RES1    0.0000
     21 C14        4.4448    5.2368    5.7563 C.ar      1 RES1    0.0000
     22 H8         3.7512    5.8825    5.6889 H         1 RES1    0.0000
     23 C15        4.2292    4.0608    6.5259 C.ar      1 RES1    0.0000
     24 C16        2.9350    3.7956    7.0266 C.ar      1 RES1    0.0000
     25 H9         2.2538    4.4438    6.8897 H         1 RES1    0.0000
     26 C17        2.6191    2.6503    7.6975 C.ar      1 RES1    0.0000
     27 C18        3.7045    1.7977    8.1051 C.ar      1 RES1    0.0000
     28 C19        7.0559   -0.3457    9.9007 C.3       1 RES1    0.0000
     29 C20        7.8820    0.6878   10.6796 C.3       1 RES1    0.0000
     30 H10        8.6529    0.2453   11.0916 H         1 RES1    0.0000
     31 H11        7.3272    1.0913   11.3778 H         1 RES1    0.0000
     32 H12        8.1951    1.3859   10.0663 H         1 RES1    0.0000
     33 C21        7.9318   -0.9920    8.8246 C.3       1 RES1    0.0000
     34 H13        8.6993   -1.4285    9.2487 H         1 RES1    0.0000
     35 H14        8.2473   -0.3030    8.2029 H         1 RES1    0.0000
     36 H15        7.4060   -1.6588    8.3341 H         1 RES1    0.0000
     37 C22        6.6102   -1.4400   10.8687 C.3       1 RES1    0.0000
     38 H16        7.3978   -1.8819   11.2483 H         1 RES1    0.0000
     39 H17        6.0677   -2.0989   10.3882 H         1 RES1    0.0000
     40 H18        6.0803   -1.0419   11.5907 H         1 RES1    0.0000
     41 C1F        1.2315    2.2985    8.0573 C.ar      1 RES1    0.0000
     42 C2F        0.1555    2.9888    7.5228 C.ar      1 RES1    0.0000
     43 H1F        0.3261    3.7235    6.9459 H         1 RES1    0.0000
     44 C3F       -1.1706    2.6449    7.7999 C.ar      1 RES1    0.0000
     45 C4F       -1.3897    1.6252    8.6991 C.ar      1 RES1    0.0000
     46 H2F       -2.2926    1.3468    8.8672 H         1 RES1    0.0000
     47 C5F       -0.3488    0.9181    9.3339 C.ar      1 RES1    0.0000
     48 C6F       -0.5809   -0.1341   10.3081 C.ar      1 RES1    0.0000
     49 C7F       -1.7844   -0.2808   11.1146 C.ar      1 RES1    0.0000
     50 C8F       -2.7600    0.7281   11.2894 C.ar      1 RES1    0.0000
     51 H3F       -2.6626    1.5873   10.8804 H         1 RES1    0.0000
     52 C9F       -3.8371    0.5646   12.1167 C.ar      1 RES1    0.0000
     53 H4F       -4.4699    1.2680   12.2124 H         1 RES1    0.0000
     54 C10F      -4.0184   -0.6301   12.8242 C.ar      1 RES1    0.0000
     55 H5F       -4.7827   -0.7522   13.3757 H         1 RES1    0.0000
     56 C11F      -3.0828   -1.6167   12.7118 C.ar      1 RES1    0.0000
     57 H6F       -3.2009   -2.4254   13.1952 H         1 RES1    0.0000
     58 C12F      -1.9467   -1.4640   11.8974 C.ar      1 RES1    0.0000
     59 C13F      -0.9201   -2.4476   11.9112 C.ar      1 RES1    0.0000
     60 H7F       -1.0592   -3.2665   12.3725 H         1 RES1    0.0000
     61 C14F       0.2501   -2.2306   11.2763 C.ar      1 RES1    0.0000
     62 H8F        0.9437   -2.8763   11.3437 H         1 RES1    0.0000
     63 C15F       0.4657   -1.0546   10.5067 C.ar      1 RES1    0.0000
     64 C16F       1.7599   -0.7894   10.0060 C.ar      1 RES1    0.0000
     65 H9F        2.4411   -1.4376   10.1429 H         1 RES1    0.0000
     66 C17F       2.0758    0.3559    9.3351 C.ar      1 RES1    0.0000
     67 C18F       0.9903    1.2085    8.9275 C.ar      1 RES1    0.0000
     68 C19F      -2.3610    3.3519    7.1319 C.3       1 RES1    0.0000
     69 C20F      -3.1871    2.3184    6.3530 C.3       1 RES1    0.0000
     70 H10F      -3.9581    2.7609    5.9410 H         1 RES1    0.0000
     71 H11F      -2.6323    1.9149    5.6548 H         1 RES1    0.0000
     72 H12F      -3.5002    1.6203    6.9663 H         1 RES1    0.0000
     73 C21F      -3.2369    3.9982    8.2080 C.3       1 RES1    0.0000
     74 H13F      -4.0045    4.4347    7.7839 H         1 RES1    0.0000
     75 H14F      -3.5525    3.3092    8.8297 H         1 RES1    0.0000
     76 H15F      -2.7111    4.6650    8.6986 H         1 RES1    0.0000
     77 C22F      -1.9153    4.4462    6.1639 C.3       1 RES1    0.0000
     78 H16F      -2.7029    4.8881    5.7843 H         1 RES1    0.0000
     79 H17F      -1.3728    5.1051    6.6444 H         1 RES1    0.0000
     80 H18F      -1.3854    4.0481    5.4419 H         1 RES1    0.0000
@<TRIPOS>BOND
     1    1    2 ar
     2    2    3 1
     3    4    2 ar
     4    5    4 ar
     5    6    5 1
     6    7    5 ar
     7    8    7 ar
     8    9    8 ar
     9   10    9 ar
    10   11   10 1
    11   12   10 ar
    12   13   12 1
    13   14   12 ar
    14   15   14 1
    15   16   14 ar
    16   17   16 1
    17   18    9 ar
    18   19   18 ar
    19   20   19 1
    20   21   19 ar
    21   22   21 1
    22   23    8 ar
    23   24   23 ar
    24   25   24 1
    25   26   24 ar
    26   27    1 ar
    27   28    4 1
    28   29   28 1
    29   30   29 1
    30   31   29 1
    31   32   29 1
    32   33   28 1
    33   34   33 1
    34   35   33 1
    35   36   33 1
    36   37   28 1
    37   38   37 1
    38   39   37 1
    39   40   37 1
    40   41   26 ar
    41   42   41 ar
    42   43   42 1
    43   44   42 ar
    44   45   44 ar
    45   46   45 1
    46   47   45 ar
    47   48   47 ar
    48   49   48 ar
    49   50   49 ar
    50   51   50 1
    51   52   50 ar
    52   53   52 1
    53   54   52 ar
    54   55   54 1
    55   56   54 ar
    56   57   56 1
    57   58   49 ar
    58   59   58 ar
    59   60   59 1
    60   61   59 ar
    61   62   61 1
    62   63   48 ar
    63   64   63 ar
    64   65   64 1
    65   66    1 ar
    66   67   41 ar
    67   68   44 1
    68   69   68 1
    69   70   69 1
    70   71   69 1
    71   72   69 1
    72   73   68 1
    73   74   73 1
    74   75   73 1
    75   76   73 1
    76   77   68 1
    77   78   77 1
    78   79   77 1
    79   80   77 1
    80    7   27 ar
    81   16   18 ar
    82   21   23 ar
    83   26   27 ar
    84   47   67 ar
    85   56   58 ar
    86   61   63 ar
    87   64   66 ar
    88   66   67 ar
@<TRIPOS>SUBSTRUCTURE
     1 RES1 1

@<TRIPOS>CRYSIN
  28.7250    6.0124   19.5850  90.0000 119.5790  90.0000  15 1

