# MOL2 file generated by ConQuest
# Please check atom types

@<TRIPOS>MOLECULE
IDAKII
    44    48     1
SMALL
NO_CHARGES
****
Generated from CSD

@<TRIPOS>ATOM
      1 C1         0.8587    3.2483    0.6663 C.3       1 RES1    0.0000
      2 H1         0.6195    3.4943    1.5955 H         1 RES1    0.0000
      3 H2         0.7903    2.2645    0.5821 H         1 RES1    0.0000
      4 C2        -0.1259    3.9218   -0.3164 C.3       1 RES1    0.0000
      5 H3        -1.0319    3.5497   -0.1734 H         1 RES1    0.0000
      6 H4        -0.1631    4.8921   -0.1238 H         1 RES1    0.0000
      7 C3         0.2718    3.7176   -1.7833 C.3       1 RES1    0.0000
      8 H5        -0.4098    3.1568   -2.2312 H         1 RES1    0.0000
      9 H6         0.2916    4.5963   -2.2395 H         1 RES1    0.0000
     10 C4         1.6360    3.0529   -1.9177 C.3       1 RES1    0.0000
     11 H7         1.5530    2.0864   -1.7214 H         1 RES1    0.0000
     12 H8         1.9611    3.1509   -2.8484 H         1 RES1    0.0000
     13 C5         2.6228    3.6715   -0.9763 C.ar      1 RES1    0.0000
     14 C6         3.8068    4.2736   -1.4116 C.ar      1 RES1    0.0000
     15 H9         4.0638    4.2094   -2.3241 H         1 RES1    0.0000
     16 C7         4.5961    4.9548   -0.5255 C.ar      1 RES1    0.0000
     17 H10        5.3692    5.4094   -0.8401 H         1 RES1    0.0000
     18 C8         4.2784    4.9909    0.8438 C.ar      1 RES1    0.0000
     19 C9         4.9838    5.8753    1.7293 C.ar      1 RES1    0.0000
     20 H11        5.7549    6.3341    1.4159 H         1 RES1    0.0000
     21 C10        4.5724    6.0634    2.9883 C.ar      1 RES1    0.0000
     22 H12        4.9430    6.7731    3.4985 H         1 RES1    0.0000
     23 C11        3.5782    5.2091    3.5819 C.ar      1 RES1    0.0000
     24 C12        3.2923    5.2918    4.9498 C.ar      1 RES1    0.0000
     25 H13        3.6186    6.0273    5.4553 H         1 RES1    0.0000
     26 C13        2.5456    4.3211    5.5688 C.ar      1 RES1    0.0000
     27 H14        2.3028    4.4199    6.4811 H         1 RES1    0.0000
     28 C14        2.1410    3.1855    4.8571 C.ar      1 RES1    0.0000
     29 C15        1.5459    1.9798    5.5374 C.3       1 RES1    0.0000
     30 H15        0.6074    1.8673    5.2427 H         1 RES1    0.0000
     31 H16        1.5444    2.1230    6.5162 H         1 RES1    0.0000
     32 C16        2.3365    0.7031    5.2119 C.3       1 RES1    0.0000
     33 H17        3.1113    0.6367    5.8247 H         1 RES1    0.0000
     34 H18        1.7575   -0.0844    5.3686 H         1 RES1    0.0000
     35 C17        2.8391    0.6788    3.7632 C.3       1 RES1    0.0000
     36 H19        2.6807   -0.2199    3.3788 H         1 RES1    0.0000
     37 H20        3.8153    0.8446    3.7545 H         1 RES1    0.0000
     38 C18        2.1416    1.7300    2.8894 C.3       1 RES1    0.0000
     39 H21        2.5073    1.6994    1.9691 H         1 RES1    0.0000
     40 H22        1.1708    1.5392    2.8442 H         1 RES1    0.0000
     41 C19        2.3679    3.0993    3.4872 C.ar      1 RES1    0.0000
     42 C20        2.9864    4.1773    2.7947 C.ar      1 RES1    0.0000
     43 C21        3.1685    4.2401    1.3350 C.ar      1 RES1    0.0000
     44 C22        2.2773    3.6835    0.3775 C.ar      1 RES1    0.0000
@<TRIPOS>BOND
     1    1    2 1
     2    3    1 1
     3    4    1 1
     4    5    4 1
     5    6    4 1
     6    7    4 1
     7    8    7 1
     8    9    7 1
     9   10    7 1
    10   11   10 1
    11   12   10 1
    12   13   10 1
    13   14   13 ar
    14   15   14 1
    15   16   14 ar
    16   17   16 1
    17   18   16 ar
    18   19   18 ar
    19   20   19 1
    20   21   19 ar
    21   22   21 1
    22   23   21 ar
    23   24   23 ar
    24   25   24 1
    25   26   24 ar
    26   27   26 1
    27   28   26 ar
    28   29   28 1
    29   30   29 1
    30   31   29 1
    31   32   29 1
    32   33   32 1
    33   34   32 1
    34   35   32 1
    35   36   35 1
    36   37   35 1
    37   38   35 1
    38   39   38 1
    39   40   38 1
    40   41   28 ar
    41   42   23 ar
    42   43   18 ar
    43   44    1 1
    44   13   44 ar
    45   38   41 1
    46   41   42 ar
    47   42   43 ar
    48   43   44 ar
@<TRIPOS>SUBSTRUCTURE
     1 RES1 1

@<TRIPOS>CRYSIN
   8.6280    8.5228   20.6404  90.0000  90.0000  90.0000  33 1

