# MOL2 file generated by ConQuest
# Please check atom types

@<TRIPOS>MOLECULE
IDEFIH
   108   120     2
SMALL
NO_CHARGES
****
Generated from CSD

@<TRIPOS>ATOM
      1 C1        11.0576    1.6654    7.6025 C.ar      1 RES1    0.0000
      2 C2        12.4215    1.8538    7.8712 C.ar      1 RES1    0.0000
      3 C3        13.3602    1.2575    7.0381 C.ar      1 RES1    0.0000
      4 C4        12.9821    0.4436    5.9753 C.ar      1 RES1    0.0000
      5 C5        11.6315    0.1795    5.7424 C.ar      1 RES1    0.0000
      6 C6        10.6895    0.8042    6.5466 C.ar      1 RES1    0.0000
      7 C7         9.2277    0.7124    6.5056 C.ar      1 RES1    0.0000
      8 C8         8.4079    0.0455    5.6038 C.ar      1 RES1    0.0000
      9 C9         7.0287    0.1747    5.7273 C.ar      1 RES1    0.0000
     10 C10        6.4952    0.9651    6.7388 C.ar      1 RES1    0.0000
     11 C11        7.3089    1.6247    7.6528 C.ar      1 RES1    0.0000
     12 C12        8.6987    1.4874    7.5571 C.ar      1 RES1    0.0000
     13 C13        9.8180    2.1243    8.3001 C.2       1 RES1    0.0000
     14 C14        9.6920    2.8555    9.4361 C.2       1 RES1    0.0000
     15 C15       10.6643    3.6467   10.2123 C.ar      1 RES1    0.0000
     16 C16       11.7511    4.4835    9.7879 C.ar      1 RES1    0.0000
     17 C17       11.9929    4.8287    8.4415 C.ar      1 RES1    0.0000
     18 C18       13.0180    5.6915    8.1159 C.ar      1 RES1    0.0000
     19 C19       13.8434    6.2244    9.1184 C.ar      1 RES1    0.0000
     20 C20       13.6139    5.9327   10.4241 C.ar      1 RES1    0.0000
     21 C21       12.5406    5.0862   10.8096 C.ar      1 RES1    0.0000
     22 C22       12.2080    4.9140   12.1711 C.ar      1 RES1    0.0000
     23 C23       11.0754    4.2398   12.5424 C.ar      1 RES1    0.0000
     24 C24       10.2975    3.6354   11.5411 C.ar      1 RES1    0.0000
     25 C25        8.9933    2.9132   11.7254 C.3       1 RES1    0.0000
     26 C26        8.4300    2.8449   10.2875 C.3       1 RES1    0.0000
     27 C27        7.5062    4.0131    9.9824 C.ar      1 RES1    0.0000
     28 C28        7.8352    5.0148    9.0791 C.ar      1 RES1    0.0000
     29 C29        6.9758    6.0879    8.8553 C.ar      1 RES1    0.0000
     30 C30        5.7627    6.1521    9.5233 C.ar      1 RES1    0.0000
     31 C31        5.4154    5.1472   10.3939 C.ar      1 RES1    0.0000
     32 C32        6.2721    4.0862   10.6272 C.ar      1 RES1    0.0000
     33 H1        12.7220    2.3965    8.5989 H         1 RES1    0.0000
     34 H2        14.2840    1.4298    7.1828 H         1 RES1    0.0000
     35 H3        13.6847    0.0650    5.4451 H         1 RES1    0.0000
     36 H4        11.3673   -0.4468    5.0164 H         1 RES1    0.0000
     37 H5         8.7810   -0.5280    4.9246 H         1 RES1    0.0000
     38 H6         6.4985   -0.3412    5.1006 H         1 RES1    0.0000
     39 H7         5.5071    1.0398    6.7745 H         1 RES1    0.0000
     40 H8         6.8967    2.1284    8.3463 H         1 RES1    0.0000
     41 H9        11.4063    4.4274    7.7722 H         1 RES1    0.0000
     42 H10       13.1243    5.9465    7.1700 H         1 RES1    0.0000
     43 H11       14.6248    6.7995    8.8974 H         1 RES1    0.0000
     44 H12       14.1239    6.3040   11.1301 H         1 RES1    0.0000
     45 H13       12.7446    5.3698   12.8907 H         1 RES1    0.0000
     46 H14       10.8028    4.2324   13.4622 H         1 RES1    0.0000
     47 H15        8.4362    3.3876   12.3293 H         1 RES1    0.0000
     48 H16        9.1012    2.0228   12.0767 H         1 RES1    0.0000
     49 H17        7.8902    2.0066   10.1222 H         1 RES1    0.0000
     50 H18        8.7174    4.9717    8.5632 H         1 RES1    0.0000
     51 H19        7.2190    6.7752    8.1983 H         1 RES1    0.0000
     52 H20        5.1951    6.9133    9.3669 H         1 RES1    0.0000
     53 H21        4.5301    5.1342   10.8443 H         1 RES1    0.0000
     54 H22        5.9895    3.3795   11.2347 H         1 RES1    0.0000
     55 C33        9.7211    5.6858    3.1418 C.ar      2 RES2    0.0000
     56 C34       11.0748    5.7954    2.8188 C.ar      2 RES2    0.0000
     57 C35       12.0186    5.1699    3.6399 C.ar      2 RES2    0.0000
     58 C36       11.6325    4.4152    4.7317 C.ar      2 RES2    0.0000
     59 C37       10.2891    4.2528    5.0333 C.ar      2 RES2    0.0000
     60 C38        9.3432    4.8807    4.2298 C.ar      2 RES2    0.0000
     61 C39        7.8861    4.8563    4.3171 C.ar      2 RES2    0.0000
     62 C40        7.0692    4.2666    5.2716 C.ar      2 RES2    0.0000
     63 C41        5.6997    4.4396    5.1785 C.ar      2 RES2    0.0000
     64 C42        5.1625    5.1975    4.1497 C.ar      2 RES2    0.0000
     65 C43        5.9694    5.7922    3.1854 C.ar      2 RES2    0.0000
     66 C44        7.3600    5.6086    3.2574 C.ar      2 RES2    0.0000
     67 C45        8.4904    6.1740    2.4638 C.2       2 RES2    0.0000
     68 C46        8.3570    6.8954    1.3176 C.2       2 RES2    0.0000
     69 C47        9.3291    7.6558    0.5050 C.ar      2 RES2    0.0000
     70 C48       10.4344    8.4820    0.8895 C.ar      2 RES2    0.0000
     71 C49       10.7330    8.8370    2.2227 C.ar      2 RES2    0.0000
     72 C50       11.7674    9.6891    2.5151 C.ar      2 RES2    0.0000
     73 C51       12.5668   10.2131    1.4776 C.ar      2 RES2    0.0000
     74 C52       12.2996    9.9101    0.1822 C.ar      2 RES2    0.0000
     75 C53       11.2066    9.0669   -0.1572 C.ar      2 RES2    0.0000
     76 C54       10.8414    8.8743   -1.5090 C.ar      2 RES2    0.0000
     77 C55        9.6852    8.2106   -1.8423 C.ar      2 RES2    0.0000
     78 C56        8.9224    7.6282   -0.8129 C.ar      2 RES2    0.0000
     79 C57        7.6053    6.9303   -0.9617 C.3       2 RES2    0.0000
     80 C58        7.0694    6.9003    0.4971 C.3       2 RES2    0.0000
     81 C59        6.1796    8.1001    0.7923 C.ar      2 RES2    0.0000
     82 C60        6.5320    9.0880    1.7149 C.ar      2 RES2    0.0000
     83 C61        5.6906   10.1798    1.9349 C.ar      2 RES2    0.0000
     84 C62        4.4995   10.2887    1.2426 C.ar      2 RES2    0.0000
     85 C63        4.1220    9.2959    0.3549 C.ar      2 RES2    0.0000
     86 C64        4.9595    8.2106    0.1240 C.ar      2 RES2    0.0000
     87 H23       11.3447    6.3527    2.0438 H         2 RES2    0.0000
     88 H24       12.9909    5.2967    3.3809 H         2 RES2    0.0000
     89 H25       12.3053    3.9075    5.2640 H         2 RES2    0.0000
     90 H26       10.0228    3.7288    5.8253 H         2 RES2    0.0000
     91 H27        7.4263    3.7369    5.9452 H         2 RES2    0.0000
     92 H28        5.1253    4.0537    5.8712 H         2 RES2    0.0000
     93 H29        4.2222    5.3210    4.1259 H         2 RES2    0.0000
     94 H30        5.5523    6.3852    2.5286 H         2 RES2    0.0000
     95 H31       10.1481    8.5380    2.9369 H         2 RES2    0.0000
     96 H32       11.9297    9.9434    3.3732 H         2 RES2    0.0000
     97 H33       13.3070   10.8208    1.7070 H         2 RES2    0.0000
     98 H34       12.7898   10.3009   -0.5945 H         2 RES2    0.0000
     99 H35       11.3324    9.2773   -2.2378 H         2 RES2    0.0000
    100 H36        9.4112    8.1643   -2.7761 H         2 RES2    0.0000
    101 H37        7.7116    5.9953   -1.2554 H         2 RES2    0.0000
    102 H38        6.9727    7.3763   -1.6101 H         2 RES2    0.0000
    103 H39        6.5437    6.0522    0.6200 H         2 RES2    0.0000
    104 H40        7.4037    8.9604    2.1714 H         2 RES2    0.0000
    105 H41        5.9423   10.8289    2.5593 H         2 RES2    0.0000
    106 H42        3.9430   11.0889    1.4034 H         2 RES2    0.0000
    107 H43        3.2205    9.4072   -0.1123 H         2 RES2    0.0000
    108 H44        4.7066    7.5388   -0.5818 H         2 RES2    0.0000
@<TRIPOS>BOND
     1    1    2 ar
     2    2    3 ar
     3    3    4 ar
     4    4    5 ar
     5    5    6 ar
     6    6    1 ar
     7    7    6 1
     8    8    7 ar
     9    9    8 ar
    10   10    9 ar
    11   11   10 ar
    12   12    7 ar
    13   13    1 1
    14   14   13 2
    15   15   14 1
    16   16   15 ar
    17   17   16 ar
    18   18   17 ar
    19   19   18 ar
    20   20   19 ar
    21   21   16 ar
    22   22   21 ar
    23   23   22 ar
    24   24   15 ar
    25   25   24 1
    26   26   14 1
    27   27   26 1
    28   28   27 ar
    29   29   28 ar
    30   30   29 ar
    31   31   30 ar
    32   32   27 ar
    33   33    2 1
    34   34    3 1
    35   35    4 1
    36   36    5 1
    37   37    8 1
    38   38    9 1
    39   39   10 1
    40   40   11 1
    41   41   17 1
    42   42   18 1
    43   43   19 1
    44   44   20 1
    45   45   22 1
    46   46   23 1
    47   47   25 1
    48   48   25 1
    49   49   26 1
    50   50   28 1
    51   51   29 1
    52   52   30 1
    53   53   31 1
    54   54   32 1
    55   55   56 ar
    56   56   57 ar
    57   57   58 ar
    58   58   59 ar
    59   59   60 ar
    60   60   55 ar
    61   61   60 1
    62   62   61 ar
    63   63   62 ar
    64   64   63 ar
    65   65   64 ar
    66   66   61 ar
    67   67   55 1
    68   68   67 2
    69   69   68 1
    70   70   69 ar
    71   71   70 ar
    72   72   71 ar
    73   73   72 ar
    74   74   73 ar
    75   75   70 ar
    76   76   75 ar
    77   77   76 ar
    78   78   69 ar
    79   79   78 1
    80   80   68 1
    81   81   80 1
    82   82   81 ar
    83   83   82 ar
    84   84   83 ar
    85   85   84 ar
    86   86   81 ar
    87   87   56 1
    88   88   57 1
    89   89   58 1
    90   90   59 1
    91   91   62 1
    92   92   63 1
    93   93   64 1
    94   94   65 1
    95   95   71 1
    96   96   72 1
    97   97   73 1
    98   98   74 1
    99   99   76 1
   100  100   77 1
   101  101   79 1
   102  102   79 1
   103  103   80 1
   104  104   82 1
   105  105   83 1
   106  106   84 1
   107  107   85 1
   108  108   86 1
   109   11   12 ar
   110   12   13 1
   111   20   21 ar
   112   23   24 ar
   113   25   26 1
   114   31   32 ar
   115   65   66 ar
   116   66   67 1
   117   74   75 ar
   118   77   78 ar
   119   79   80 1
   120   85   86 ar
@<TRIPOS>SUBSTRUCTURE
     1 RES1 1
     2 RES2 55

@<TRIPOS>CRYSIN
  20.5260    8.1237   25.5160  90.0000  90.0000  90.0000  29 1

