# MOL2 file generated by ConQuest
# Please check atom types

@<TRIPOS>MOLECULE
IDILAJ
   128   138     2
SMALL
NO_CHARGES
****
Generated from CSD

@<TRIPOS>ATOM
      1 C1         1.5876    9.1927    2.7263 C.ar      1 RES1    0.0000
      2 H1         1.6338   10.0967    2.9409 H         1 RES1    0.0000
      3 C2         0.4585    8.7083    2.0770 C.ar      1 RES1    0.0000
      4 H2        -0.2429    9.2836    1.8751 H         1 RES1    0.0000
      5 C3         0.3772    7.4078    1.7405 C.ar      1 RES1    0.0000
      6 H3        -0.3755    7.0915    1.2949 H         1 RES1    0.0000
      7 C4         1.4174    6.5260    2.0534 C.ar      1 RES1    0.0000
      8 C5         1.3561    5.1463    1.7205 C.ar      1 RES1    0.0000
      9 H4         0.6118    4.8242    1.2658 H         1 RES1    0.0000
     10 C6         2.3388    4.2942    2.0443 C.ar      1 RES1    0.0000
     11 H5         2.2702    3.3917    1.8260 H         1 RES1    0.0000
     12 C7         3.4669    4.7738    2.7099 C.ar      1 RES1    0.0000
     13 H6         4.1562    4.1863    2.9245 H         1 RES1    0.0000
     14 C8         3.5756    6.0788    3.0464 C.ar      1 RES1    0.0000
     15 H7         4.3372    6.3711    3.4938 H         1 RES1    0.0000
     16 C9         2.5660    6.9978    2.7390 C.ar      1 RES1    0.0000
     17 C10        2.6293    8.3793    3.0555 C.ar      1 RES1    0.0000
     18 C11        3.8349    8.9577    3.7975 C.3       1 RES1    0.0000
     19 H8         4.6003    8.3882    3.5757 H         1 RES1    0.0000
     20 C12        4.1685   10.3003    3.3392 C.1       1 RES1    0.0000
     21 C13        4.4518   11.3650    2.9846 C.1       1 RES1    0.0000
     22 C14        4.7572   12.6744    2.5517 C.ar      1 RES1    0.0000
     23 C15        4.3072   13.7408    3.1264 C.ar      1 RES1    0.0000
     24 H9         3.7490   13.6474    3.8667 H         1 RES1    0.0000
     25 C16        4.6058   15.0070    2.6899 C.ar      1 RES1    0.0000
     26 H10        4.2625   15.7119    3.1901 H         1 RES1    0.0000
     27 C17        5.2486   15.2994    1.7551 C.ar      1 RES1    0.0000
     28 H11        5.2956   16.1665    1.4259 H         1 RES1    0.0000
     29 C18        5.9756   14.1841    1.1549 C.ar      1 RES1    0.0000
     30 H12        6.6410   14.3086    0.5165 H         1 RES1    0.0000
     31 C19        5.5929   12.8982    1.6132 C.ar      1 RES1    0.0000
     32 H13        5.9822   12.1618    1.1986 H         1 RES1    0.0000
     33 C20        3.6554    8.8831    5.3453 C.3       1 RES1    0.0000
     34 H14        3.2419    8.0167    5.5435 H         1 RES1    0.0000
     35 C21        2.7464    9.9135    5.8455 C.1       1 RES1    0.0000
     36 C22        1.9615   10.7020    6.2656 C.1       1 RES1    0.0000
     37 C23        0.9988   11.6392    6.8021 C.ar      1 RES1    0.0000
     38 C24        0.6825   11.6496    8.0971 C.ar      1 RES1    0.0000
     39 H15        1.0888   11.0409    8.6718 H         1 RES1    0.0000
     40 C25       -0.2390   12.5456    8.5990 C.ar      1 RES1    0.0000
     41 H16       -0.4510   12.5329    9.5048 H         1 RES1    0.0000
     42 C26       -0.8300   13.4361    7.7861 C.ar      1 RES1    0.0000
     43 H17       -1.4539   14.0364    8.1225 H         1 RES1    0.0000
     44 C27       -0.5157   13.4512    6.4820 C.ar      1 RES1    0.0000
     45 H18       -0.9154   14.0732    5.9164 H         1 RES1    0.0000
     46 C28        0.3999   12.5509    5.9709 C.ar      1 RES1    0.0000
     47 H19        0.6089   12.5621    5.0652 H         1 RES1    0.0000
     48 C29        5.0010    8.9022    6.0492 C.ar      1 RES1    0.0000
     49 C30        5.6947   10.0813    6.1565 C.ar      1 RES1    0.0000
     50 H20        5.2982   10.8687    5.8636 H         1 RES1    0.0000
     51 C31        6.9930   10.1226    6.6984 C.ar      1 RES1    0.0000
     52 H21        7.4540   10.9297    6.7366 H         1 RES1    0.0000
     53 C32        7.5680    8.9979    7.1622 C.ar      1 RES1    0.0000
     54 H22        8.4200    9.0362    7.5314 H         1 RES1    0.0000
     55 C33        6.8979    7.7628    7.0968 C.ar      1 RES1    0.0000
     56 C34        7.4947    6.5915    7.5769 C.ar      1 RES1    0.0000
     57 H23        8.3561    6.6317    7.9243 H         1 RES1    0.0000
     58 C35        6.8472    5.3932    7.5460 C.ar      1 RES1    0.0000
     59 H24        7.2620    4.6233    7.8624 H         1 RES1    0.0000
     60 C36        5.5437    5.3409    7.0295 C.ar      1 RES1    0.0000
     61 H25        5.0867    4.5319    7.0204 H         1 RES1    0.0000
     62 C37        4.9463    6.4497    6.5420 C.ar      1 RES1    0.0000
     63 H26        4.0857    6.3810    6.1965 H         1 RES1    0.0000
     64 C38        5.5837    7.7097    6.5420 C.ar      1 RES1    0.0000
     65 C39        9.9480    2.4580    6.5111 C.ar      2 RES2    0.0000
     66 H27        9.6386    1.6705    6.1237 H         2 RES2    0.0000
     67 C40       10.4005    2.4423    7.8497 C.ar      2 RES2    0.0000
     68 H28       10.3972    1.6456    8.3317 H         2 RES2    0.0000
     69 C41       10.8337    3.5773    8.4281 C.ar      2 RES2    0.0000
     70 H29       11.1175    3.5620    9.3138 H         2 RES2    0.0000
     71 C42       10.8622    4.7812    7.7097 C.ar      2 RES2    0.0000
     72 C43       11.2765    5.9859    8.3208 C.ar      2 RES2    0.0000
     73 H30       11.5603    5.9750    9.2065 H         2 RES2    0.0000
     74 C44       11.2702    7.1532    7.6424 C.ar      2 RES2    0.0000
     75 H31       11.5493    7.9342    8.0625 H         2 RES2    0.0000
     76 C45       10.8415    7.1897    6.3092 C.ar      2 RES2    0.0000
     77 H32       10.8246    7.9965    5.8473 H         2 RES2    0.0000
     78 C46       10.4480    6.0360    5.6854 C.ar      2 RES2    0.0000
     79 H33       10.1891    6.0694    4.7924 H         2 RES2    0.0000
     80 C47       10.4260    4.8075    6.3620 C.ar      2 RES2    0.0000
     81 C48        9.9584    3.5994    5.7782 C.ar      2 RES2    0.0000
     82 C49        9.4075    3.5988    4.3504 C.3       2 RES2    0.0000
     83 H34        9.9062    4.2764    3.8466 H         2 RES2    0.0000
     84 C50        9.6227    2.3145    3.6811 C.1       2 RES2    0.0000
     85 C51        9.8084    1.2740    3.1592 C.1       2 RES2    0.0000
     86 C52       10.0355    0.0038    2.5353 C.ar      2 RES2    0.0000
     87 C53        9.2439   -1.0471    2.6972 C.ar      2 RES2    0.0000
     88 H35        8.4915   -0.9653    3.2374 H         2 RES2    0.0000
     89 C54        9.5062   -2.2770    2.0770 C.ar      2 RES2    0.0000
     90 H36        8.9316   -2.9945    2.2171 H         2 RES2    0.0000
     91 C55       10.5270   -2.4235    1.3168 C.ar      2 RES2    0.0000
     92 H37       10.6702   -3.2234    0.8639 H         2 RES2    0.0000
     93 C56       11.3383   -1.4540    1.1967 C.ar      2 RES2    0.0000
     94 H38       12.1167   -1.5468    0.6911 H         2 RES2    0.0000
     95 C57       11.0521   -0.2498    1.8369 C.ar      2 RES2    0.0000
     96 H39       11.6724    0.4357    1.7387 H         2 RES2    0.0000
     97 C58        7.9085    4.0332    4.3504 C.3       2 RES2    0.0000
     98 H40        7.8340    4.8052    4.9488 H         2 RES2    0.0000
     99 C59        7.0329    2.9847    4.8942 C.1       2 RES2    0.0000
    100 C60        6.3140    2.1529    5.3362 C.1       2 RES2    0.0000
    101 C61        5.4643    1.1528    5.9291 C.ar      2 RES2    0.0000
    102 C62        4.1368    1.3892    6.1565 C.ar      2 RES2    0.0000
    103 H41        3.7608    2.2083    5.9273 H         2 RES2    0.0000
    104 C63        3.3459    0.3893    6.7366 C.ar      2 RES2    0.0000
    105 H42        2.4331    0.5201    6.8585 H         2 RES2    0.0000
    106 C64        3.9305   -0.7729    7.1222 C.ar      2 RES2    0.0000
    107 H43        3.4131   -1.4236    7.5369 H         2 RES2    0.0000
    108 C65        5.2077   -1.0068    6.9222 C.ar      2 RES2    0.0000
    109 H44        5.5878   -1.8146    7.1841 H         2 RES2    0.0000
    110 C66        5.9719   -0.0379    6.3201 C.ar      2 RES2    0.0000
    111 H45        6.8753   -0.2071    6.1765 H         2 RES2    0.0000
    112 C67        7.4431    4.4901    2.9700 C.ar      2 RES2    0.0000
    113 C68        7.1854    3.5738    2.0043 C.ar      2 RES2    0.0000
    114 H46        7.2811    2.6715    2.2080 H         2 RES2    0.0000
    115 C69        6.7799    3.9306    0.7129 C.ar      2 RES2    0.0000
    116 H47        6.6240    3.2698    0.0764 H         2 RES2    0.0000
    117 C70        6.6167    5.2157    0.3874 C.ar      2 RES2    0.0000
    118 H48        6.3394    5.4426   -0.4711 H         2 RES2    0.0000
    119 C71        6.8629    6.2427    1.3422 C.ar      2 RES2    0.0000
    120 C72        6.7052    7.6113    1.0240 C.ar      2 RES2    0.0000
    121 H49        6.4430    7.8531    0.1655 H         2 RES2    0.0000
    122 C73        6.9340    8.5850    1.9570 C.ar      2 RES2    0.0000
    123 H50        6.8377    9.4832    1.7314 H         2 RES2    0.0000
    124 C74        7.3121    8.2223    3.2446 C.ar      2 RES2    0.0000
    125 H51        7.4540    8.8830    3.8848 H         2 RES2    0.0000
    126 C75        7.4748    6.9235    3.5811 C.ar      2 RES2    0.0000
    127 H52        7.7239    6.7114    4.4505 H         2 RES2    0.0000
    128 C76        7.2792    5.8722    2.6517 C.ar      2 RES2    0.0000
@<TRIPOS>BOND
     1    1    2 1
     2    3    1 ar
     3    4    3 1
     4    5    3 ar
     5    6    5 1
     6    7    5 ar
     7    8    7 ar
     8    9    8 1
     9   10    8 ar
    10   11   10 1
    11   12   10 ar
    12   13   12 1
    13   14   12 ar
    14   15   14 1
    15   16    7 ar
    16   17    1 ar
    17   18   17 1
    18   19   18 1
    19   20   18 1
    20   21   20 3
    21   22   21 1
    22   23   22 ar
    23   24   23 1
    24   25   23 ar
    25   26   25 1
    26   27   25 ar
    27   28   27 1
    28   29   27 ar
    29   30   29 1
    30   31   22 ar
    31   32   31 1
    32   33   18 1
    33   34   33 1
    34   35   33 1
    35   36   35 3
    36   37   36 1
    37   38   37 ar
    38   39   38 1
    39   40   38 ar
    40   41   40 1
    41   42   40 ar
    42   43   42 1
    43   44   42 ar
    44   45   44 1
    45   46   37 ar
    46   47   46 1
    47   48   33 1
    48   49   48 ar
    49   50   49 1
    50   51   49 ar
    51   52   51 1
    52   53   51 ar
    53   54   53 1
    54   55   53 ar
    55   56   55 ar
    56   57   56 1
    57   58   56 ar
    58   59   58 1
    59   60   58 ar
    60   61   60 1
    61   62   60 ar
    62   63   62 1
    63   64   48 ar
    64   65   66 1
    65   67   65 ar
    66   68   67 1
    67   69   67 ar
    68   70   69 1
    69   71   69 ar
    70   72   71 ar
    71   73   72 1
    72   74   72 ar
    73   75   74 1
    74   76   74 ar
    75   77   76 1
    76   78   76 ar
    77   79   78 1
    78   80   71 ar
    79   81   65 ar
    80   82   81 1
    81   83   82 1
    82   84   82 1
    83   85   84 3
    84   86   85 1
    85   87   86 ar
    86   88   87 1
    87   89   87 ar
    88   90   89 1
    89   91   89 ar
    90   92   91 1
    91   93   91 ar
    92   94   93 1
    93   95   86 ar
    94   96   95 1
    95   97   82 1
    96   98   97 1
    97   99   97 1
    98  100   99 3
    99  101  100 1
   100  102  101 ar
   101  103  102 1
   102  104  102 ar
   103  105  104 1
   104  106  104 ar
   105  107  106 1
   106  108  106 ar
   107  109  108 1
   108  110  101 ar
   109  111  110 1
   110  112   97 1
   111  113  112 ar
   112  114  113 1
   113  115  113 ar
   114  116  115 1
   115  117  115 ar
   116  118  117 1
   117  119  117 ar
   118  120  119 ar
   119  121  120 1
   120  122  120 ar
   121  123  122 1
   122  124  122 ar
   123  125  124 1
   124  126  124 ar
   125  127  126 1
   126  128  112 ar
   127   14   16 ar
   128   16   17 ar
   129   29   31 ar
   130   44   46 ar
   131   55   64 ar
   132   62   64 ar
   133   78   80 ar
   134   80   81 ar
   135   93   95 ar
   136  108  110 ar
   137  119  128 ar
   138  126  128 ar
@<TRIPOS>SUBSTRUCTURE
     1 RES1 1
     2 RES2 65

@<TRIPOS>CRYSIN
  10.1221   14.9303   18.7341  90.8400 103.8400  90.5200   2 1

