# MOL2 file generated by ConQuest
# Please check atom types

@<TRIPOS>MOLECULE
IDUVUB
    52    58     1
SMALL
NO_CHARGES
****
Generated from CSD

@<TRIPOS>ATOM
      1 C1         4.9327    0.5326    2.9916 C.ar      1 RES1    0.0000
      2 C2         5.9767    1.2619    3.5940 C.ar      1 RES1    0.0000
      3 H1         5.9560    2.1910    3.5735 H         1 RES1    0.0000
      4 C3         7.0169    0.6273    4.2050 C.ar      1 RES1    0.0000
      5 H2         7.6933    1.1271    4.6032 H         1 RES1    0.0000
      6 C4         7.0755   -0.7636    4.2391 C.ar      1 RES1    0.0000
      7 H3         7.7957   -1.1869    4.6476 H         1 RES1    0.0000
      8 C5         6.0881   -1.4995    3.6799 C.ar      1 RES1    0.0000
      9 H4         6.1358   -2.4282    3.7120 H         1 RES1    0.0000
     10 C6         4.9864   -0.8854    3.0482 C.ar      1 RES1    0.0000
     11 C7         3.9177   -1.6312    2.5040 C.ar      1 RES1    0.0000
     12 H5         3.9386   -2.5601    2.5404 H         1 RES1    0.0000
     13 C8         2.8597   -1.0021    1.9284 C.ar      1 RES1    0.0000
     14 C9         2.8245    0.4099    1.8329 C.ar      1 RES1    0.0000
     15 C10        3.8279    1.1578    2.3587 C.ar      1 RES1    0.0000
     16 H6         3.7905    2.0857    2.3042 H         1 RES1    0.0000
     17 C11        1.5814   -1.5814    1.3973 C.3       1 RES1    0.0000
     18 H7         1.2546   -2.2919    1.9705 H         1 RES1    0.0000
     19 H8         1.7006   -1.9273    0.4988 H         1 RES1    0.0000
     20 C12        0.6282   -0.3815    1.4060 C.3       1 RES1    0.0000
     21 H9         0.2831   -0.2804    2.3185 H         1 RES1    0.0000
     22 C13        1.5421    0.8252    1.1132 C.3       1 RES1    0.0000
     23 C14        1.8312    1.0249   -0.4136 C.3       1 RES1    0.0000
     24 H10        2.5250    0.4012   -0.7136 H         1 RES1    0.0000
     25 C15        0.5751    0.8641   -1.2595 C.3       1 RES1    0.0000
     26 H11       -0.0169    1.6136   -1.0882 H         1 RES1    0.0000
     27 H12        0.8225    0.8910   -2.1977 H         1 RES1    0.0000
     28 C16       -0.1728   -0.4211   -0.9867 C.3       1 RES1    0.0000
     29 H13       -0.9675   -0.4577   -1.5427 H         1 RES1    0.0000
     30 H14        0.3894   -1.1781   -1.2160 H         1 RES1    0.0000
     31 C17       -0.5692   -0.5107    0.4658 C.3       1 RES1    0.0000
     32 H15       -1.0072   -1.3621    0.6231 H         1 RES1    0.0000
     33 H16       -1.2069    0.1928    0.6657 H         1 RES1    0.0000
     34 C18        2.3443    2.4644   -0.4814 C.3       1 RES1    0.0000
     35 H17        3.2879    2.5113   -0.2627 H         1 RES1    0.0000
     36 H18        2.2022    2.8471   -1.3616 H         1 RES1    0.0000
     37 C19        1.5137    3.1590    0.5521 C.ar      1 RES1    0.0000
     38 C20        1.0462    2.2074    1.4967 C.ar      1 RES1    0.0000
     39 C21        0.2301    2.5937    2.5155 C.ar      1 RES1    0.0000
     40 H19       -0.0656    1.9683    3.1368 H         1 RES1    0.0000
     41 C22       -0.1709    3.9544    2.6314 C.ar      1 RES1    0.0000
     42 C23        0.2945    4.8946    1.6829 C.ar      1 RES1    0.0000
     43 C24        1.1535    4.4588    0.6405 C.ar      1 RES1    0.0000
     44 H20        1.4701    5.0703    0.0160 H         1 RES1    0.0000
     45 C25       -1.0622    4.4013    3.6252 C.ar      1 RES1    0.0000
     46 H21       -1.3797    3.8002    4.2588 H         1 RES1    0.0000
     47 C26       -1.4671    5.7053    3.6724 C.ar      1 RES1    0.0000
     48 H22       -2.0651    5.9780    4.3316 H         1 RES1    0.0000
     49 C27       -0.9963    6.6318    2.7440 C.ar      1 RES1    0.0000
     50 H23       -1.2655    7.5207    2.7924 H         1 RES1    0.0000
     51 C28       -0.1412    6.2303    1.7680 C.ar      1 RES1    0.0000
     52 H24        0.1619    6.8502    1.1432 H         1 RES1    0.0000
@<TRIPOS>BOND
     1    1    2 ar
     2    2    3 1
     3    4    2 ar
     4    5    4 1
     5    6    4 ar
     6    7    6 1
     7    8    6 ar
     8    9    8 1
     9   10    1 ar
    10   11   10 ar
    11   12   11 1
    12   13   11 ar
    13   14   13 ar
    14   15    1 ar
    15   16   15 1
    16   17   13 1
    17   18   17 1
    18   19   17 1
    19   20   17 1
    20   21   20 1
    21   22   14 1
    22   23   22 1
    23   24   23 1
    24   25   23 1
    25   26   25 1
    26   27   25 1
    27   28   25 1
    28   29   28 1
    29   30   28 1
    30   31   20 1
    31   32   31 1
    32   33   31 1
    33   34   23 1
    34   35   34 1
    35   36   34 1
    36   37   34 1
    37   38   22 1
    38   39   38 ar
    39   40   39 1
    40   41   39 ar
    41   42   41 ar
    42   43   37 ar
    43   44   43 1
    44   45   41 ar
    45   46   45 1
    46   47   45 ar
    47   48   47 1
    48   49   47 ar
    49   50   49 1
    50   51   42 ar
    51   52   51 1
    52    8   10 ar
    53   14   15 ar
    54   20   22 1
    55   28   31 1
    56   37   38 ar
    57   42   43 ar
    58   49   51 ar
@<TRIPOS>SUBSTRUCTURE
     1 RES1 1

@<TRIPOS>CRYSIN
   9.9333   11.0826   17.7523  90.0000  90.0000  90.0000  19 1

