# MOL2 file generated by ConQuest
# Please check atom types

@<TRIPOS>MOLECULE
IFAPOU
    50    54     1
SMALL
NO_CHARGES
****
Generated from CSD

@<TRIPOS>ATOM
      1 C1         6.4429    1.0792    1.6557 C.ar      1 RES1    0.0000
      2 H1         6.1064    0.2736    1.3347 H         1 RES1    0.0000
      3 C2         5.9546    2.2696    1.1711 C.ar      1 RES1    0.0000
      4 H2         5.2907    2.2607    0.5200 H         1 RES1    0.0000
      5 C3         6.4408    3.4954    1.6423 C.ar      1 RES1    0.0000
      6 C4         5.9400    4.7572    1.0252 C.ar      1 RES1    0.0000
      7 C5         6.8012    5.5658    0.3273 C.ar      1 RES1    0.0000
      8 H3         7.7072    5.3572    0.3057 H         1 RES1    0.0000
      9 C6         6.3405    6.7012   -0.3539 C.ar      1 RES1    0.0000
     10 H4         6.9539    7.2335   -0.8069 H         1 RES1    0.0000
     11 C7         5.0231    7.0486   -0.3730 C.ar      1 RES1    0.0000
     12 C8         4.0973    6.2499    0.3630 C.ar      1 RES1    0.0000
     13 C9         4.5581    5.1123    1.0831 C.ar      1 RES1    0.0000
     14 C10        3.6273    4.3749    1.8506 C.ar      1 RES1    0.0000
     15 H5         3.9229    3.6436    2.3423 H         1 RES1    0.0000
     16 C11        2.3099    4.7117    1.8854 C.ar      1 RES1    0.0000
     17 H6         1.7187    4.2193    2.4080 H         1 RES1    0.0000
     18 C12        1.8468    5.7932    1.1389 C.ar      1 RES1    0.0000
     19 H7         0.9405    6.0033    1.1417 H         1 RES1    0.0000
     20 C13        2.7126    6.5437    0.4058 C.ar      1 RES1    0.0000
     21 H8         2.3873    7.2671   -0.0794 H         1 RES1    0.0000
     22 C14        4.5602    8.2523   -1.1459 C.3       1 RES1    0.0000
     23 H9         5.3101    8.6567   -1.5874 H         1 RES1    0.0000
     24 H10        4.1629    8.8867   -0.5439 H         1 RES1    0.0000
     25 H11        3.9118    7.9820   -1.8000 H         1 RES1    0.0000
     26 C1F        7.4289    1.0792    2.6138 C.ar      1 RES1    0.0000
     27 H1F        7.7654    0.2736    2.9349 H         1 RES1    0.0000
     28 C2F        7.9172    2.2696    3.0985 C.ar      1 RES1    0.0000
     29 H2F        8.5811    2.2607    3.7495 H         1 RES1    0.0000
     30 C3F        7.4310    3.4954    2.6272 C.ar      1 RES1    0.0000
     31 C4F        7.9318    4.7572    3.2443 C.ar      1 RES1    0.0000
     32 C5F        7.0706    5.5658    3.9422 C.ar      1 RES1    0.0000
     33 H3F        6.1646    5.3572    3.9639 H         1 RES1    0.0000
     34 C6F        7.5313    6.7012    4.6235 C.ar      1 RES1    0.0000
     35 H4F        6.9179    7.2335    5.0765 H         1 RES1    0.0000
     36 C7F        8.8487    7.0486    4.6425 C.ar      1 RES1    0.0000
     37 C8F        9.7745    6.2499    3.9066 C.ar      1 RES1    0.0000
     38 C9F        9.3137    5.1123    3.1865 C.ar      1 RES1    0.0000
     39 C10F      10.2445    4.3749    2.4190 C.ar      1 RES1    0.0000
     40 H5F        9.9489    3.6436    1.9273 H         1 RES1    0.0000
     41 C11F      11.5619    4.7117    2.3841 C.ar      1 RES1    0.0000
     42 H6F       12.1531    4.2193    1.8615 H         1 RES1    0.0000
     43 C12F      12.0250    5.7932    3.1307 C.ar      1 RES1    0.0000
     44 H7F       12.9313    6.0033    3.1279 H         1 RES1    0.0000
     45 C13F      11.1592    6.5437    3.8638 C.ar      1 RES1    0.0000
     46 H8F       11.4845    7.2671    4.3490 H         1 RES1    0.0000
     47 C14F       9.3116    8.2523    5.4155 C.3       1 RES1    0.0000
     48 H9F        8.5617    8.6567    5.8570 H         1 RES1    0.0000
     49 H10F       9.7089    8.8867    4.8135 H         1 RES1    0.0000
     50 H11F       9.9600    7.9820    6.0696 H         1 RES1    0.0000
@<TRIPOS>BOND
     1    1    2 1
     2    3    1 ar
     3    4    3 1
     4    5    3 ar
     5    6    5 1
     6    7    6 ar
     7    8    7 1
     8    9    7 ar
     9   10    9 1
    10   11    9 ar
    11   12   11 ar
    12   13    6 ar
    13   14   13 ar
    14   15   14 1
    15   16   14 ar
    16   17   16 1
    17   18   16 ar
    18   19   18 1
    19   20   12 ar
    20   21   20 1
    21   22   11 1
    22   23   22 1
    23   24   22 1
    24   25   22 1
    25   26    1 ar
    26   27   26 1
    27   28   26 ar
    28   29   28 1
    29   30    5 ar
    30   31   30 1
    31   32   31 ar
    32   33   32 1
    33   34   32 ar
    34   35   34 1
    35   36   34 ar
    36   37   36 ar
    37   38   31 ar
    38   39   38 ar
    39   40   39 1
    40   41   39 ar
    41   42   41 1
    42   43   41 ar
    43   44   43 1
    44   45   37 ar
    45   46   45 1
    46   47   36 1
    47   48   47 1
    48   49   47 1
    49   50   47 1
    50   12   13 ar
    51   18   20 ar
    52   28   30 ar
    53   37   38 ar
    54   43   45 ar
@<TRIPOS>SUBSTRUCTURE
     1 RES1 1

@<TRIPOS>CRYSIN
  13.8718   16.7831    8.5391  90.0000  90.0000  90.0000  60 1

