# MOL2 file generated by ConQuest
# Please check atom types

@<TRIPOS>MOLECULE
IFOMEY
    68    74     1
SMALL
NO_CHARGES
****
Generated from CSD

@<TRIPOS>ATOM
      1 C1        -1.7065    0.9392    5.9566 C.ar      1 RES1    0.0000
      2 C2        -0.5385    1.0161    6.7401 C.ar      1 RES1    0.0000
      3 C3        -0.4359    0.1473    7.8959 C.ar      1 RES1    0.0000
      4 C4        -1.2569   -1.0042    7.9370 C.ar      1 RES1    0.0000
      5 C5        -2.3031   -1.1548    6.9997 C.ar      1 RES1    0.0000
      6 H1        -2.8209   -1.9521    6.9953 H         1 RES1    0.0000
      7 C6        -2.5744   -0.1691    6.1052 C.ar      1 RES1    0.0000
      8 H2        -3.3580   -0.2244    5.5717 H         1 RES1    0.0000
      9 C7        -1.0437   -2.0094    8.9309 C.ar      1 RES1    0.0000
     10 H3        -1.5692   -2.8016    8.9135 H         1 RES1    0.0000
     11 C8        -0.1127   -1.8547    9.8900 C.ar      1 RES1    0.0000
     12 H4         0.0762   -2.5715   10.4838 H         1 RES1    0.0000
     13 C9         0.5918   -0.6205   10.0226 C.ar      1 RES1    0.0000
     14 C10        0.3751    0.4148    9.0780 C.ar      1 RES1    0.0000
     15 C11        0.8265    1.7093    9.4168 C.ar      1 RES1    0.0000
     16 H5         0.6175    2.4372    8.8425 H         1 RES1    0.0000
     17 C12        1.5605    1.9438   10.5558 C.ar      1 RES1    0.0000
     18 H6         1.8412    2.8265   10.7680 H         1 RES1    0.0000
     19 C13        1.8949    0.8782   11.4038 C.ar      1 RES1    0.0000
     20 H7         2.4602    1.0240   12.1534 H         1 RES1    0.0000
     21 C14        1.4054   -0.3661   11.1479 C.ar      1 RES1    0.0000
     22 H8         1.6156   -1.0796   11.7399 H         1 RES1    0.0000
     23 C15       -2.0002    1.9743    4.9655 C.ar      1 RES1    0.0000
     24 C16       -3.2560    2.0951    4.3642 C.ar      1 RES1    0.0000
     25 H9        -3.9422    1.4880    4.6144 H         1 RES1    0.0000
     26 C17       -3.5424    3.0739    3.4103 C.ar      1 RES1    0.0000
     27 C18       -2.5187    3.9314    3.0322 C.ar      1 RES1    0.0000
     28 H10       -2.6886    4.5868    2.3655 H         1 RES1    0.0000
     29 C19       -1.2466    3.8589    3.6048 C.ar      1 RES1    0.0000
     30 C20       -0.9907    2.8951    4.6125 C.ar      1 RES1    0.0000
     31 C21        0.3069    2.7904    5.2040 C.ar      1 RES1    0.0000
     32 C22        1.3682    3.5958    4.7002 C.ar      1 RES1    0.0000
     33 C23        1.0854    4.5258    3.6410 C.ar      1 RES1    0.0000
     34 H11        1.7935    5.0470    3.2809 H         1 RES1    0.0000
     35 C24       -0.1594    4.6779    3.1462 C.ar      1 RES1    0.0000
     36 H12       -0.3203    5.3385    2.4830 H         1 RES1    0.0000
     37 C25        0.5587    1.8679    6.2515 C.ar      1 RES1    0.0000
     38 C26        1.8816    1.7187    6.6864 C.ar      1 RES1    0.0000
     39 H13        2.0744    1.0412    7.3232 H         1 RES1    0.0000
     40 C27        2.9291    2.5197    6.2289 C.ar      1 RES1    0.0000
     41 C28        2.6472    3.4581    5.2406 C.ar      1 RES1    0.0000
     42 H14        3.3455    4.0211    4.9249 H         1 RES1    0.0000
     43 C29       -4.9203    3.1347    2.7310 C.3       1 RES1    0.0000
     44 C30       -6.0276    2.4986    3.5860 C.3       1 RES1    0.0000
     45 H15       -6.8840    2.5676    3.1151 H         1 RES1    0.0000
     46 H16       -6.0888    2.9703    4.4440 H         1 RES1    0.0000
     47 H17       -5.8166    1.5551    3.7445 H         1 RES1    0.0000
     48 C31       -5.3242    4.5590    2.4037 C.3       1 RES1    0.0000
     49 H18       -4.7063    4.9282    1.7379 H         1 RES1    0.0000
     50 H19       -5.2908    5.1027    3.2180 H         1 RES1    0.0000
     51 H20       -6.2352    4.5657    2.0430 H         1 RES1    0.0000
     52 C32       -4.8467    2.3404    1.4382 C.3       1 RES1    0.0000
     53 H21       -4.1756    2.7402    0.8471 H         1 RES1    0.0000
     54 H22       -5.7214    2.3548    0.9956 H         1 RES1    0.0000
     55 H23       -4.5962    1.4132    1.6377 H         1 RES1    0.0000
     56 C33        4.3279    2.4438    6.8600 C.3       1 RES1    0.0000
     57 C34        4.4843    3.6766    7.7668 C.3       1 RES1    0.0000
     58 H24        4.4033    4.4909    7.2276 H         1 RES1    0.0000
     59 H25        5.3644    3.6549    8.1976 H         1 RES1    0.0000
     60 H26        3.7853    3.6683    8.4527 H         1 RES1    0.0000
     61 C35        5.4234    2.4587    5.7957 C.3       1 RES1    0.0000
     62 H27        5.3300    1.6721    5.2192 H         1 RES1    0.0000
     63 H28        6.3013    2.4430    6.2302 H         1 RES1    0.0000
     64 H29        5.3416    3.2714    5.2547 H         1 RES1    0.0000
     65 C36        4.5282    1.2027    7.7322 C.3       1 RES1    0.0000
     66 H30        3.8863    1.2177    8.4727 H         1 RES1    0.0000
     67 H31        5.4397    1.1985    8.0911 H         1 RES1    0.0000
     68 H32        4.3859    0.3969    7.1920 H         1 RES1    0.0000
@<TRIPOS>BOND
     1    1    2 ar
     2    2    3 ar
     3    3    4 ar
     4    4    5 ar
     5    5    6 1
     6    7    1 ar
     7    8    7 1
     8    9    4 ar
     9   10    9 1
    10   11    9 ar
    11   12   11 1
    12   13   11 ar
    13   14    3 ar
    14   15   14 ar
    15   16   15 1
    16   17   15 ar
    17   18   17 1
    18   19   17 ar
    19   20   19 1
    20   21   13 ar
    21   22   21 1
    22   23    1 ar
    23   24   23 ar
    24   25   24 1
    25   26   24 ar
    26   27   26 ar
    27   28   27 1
    28   29   27 ar
    29   30   23 ar
    30   31   30 ar
    31   32   31 ar
    32   33   32 ar
    33   34   33 1
    34   35   29 ar
    35   36   35 1
    36   37    2 ar
    37   38   37 ar
    38   39   38 1
    39   40   38 ar
    40   41   32 ar
    41   42   41 1
    42   43   26 1
    43   44   43 1
    44   45   44 1
    45   46   44 1
    46   47   44 1
    47   48   43 1
    48   49   48 1
    49   50   48 1
    50   51   48 1
    51   52   43 1
    52   53   52 1
    53   54   52 1
    54   55   52 1
    55   56   40 1
    56   57   56 1
    57   58   57 1
    58   59   57 1
    59   60   57 1
    60   61   56 1
    61   62   61 1
    62   63   61 1
    63   64   61 1
    64   65   56 1
    65   66   65 1
    66   67   65 1
    67   68   65 1
    68    5    7 ar
    69   13   14 ar
    70   19   21 ar
    71   29   30 ar
    72   31   37 ar
    73   33   35 ar
    74   40   41 ar
@<TRIPOS>SUBSTRUCTURE
     1 RES1 1

@<TRIPOS>CRYSIN
  14.5009   19.1757    9.3758  90.0000 103.7150  90.0000  14 1

