# MOL2 file generated by ConQuest
# Please check atom types

@<TRIPOS>MOLECULE
IGEBOM
    56    62     1
SMALL
NO_CHARGES
****
Generated from CSD

@<TRIPOS>ATOM
      1 C1         2.0429    0.9418    8.8671 C.ar      1 RES1    0.0000
      2 H1         2.5343    1.4269    9.5194 H         1 RES1    0.0000
      3 C2         1.6282   -0.3548    9.1225 C.ar      1 RES1    0.0000
      4 H2         1.8446   -0.7587    9.9538 H         1 RES1    0.0000
      5 C3         0.9047   -1.0704    8.1859 C.ar      1 RES1    0.0000
      6 H3         0.6410   -1.9633    8.3775 H         1 RES1    0.0000
      7 C4         0.5617   -0.5016    6.9742 C.ar      1 RES1    0.0000
      8 H4         0.0547   -0.9901    6.3360 H         1 RES1    0.0000
      9 C5         0.9717    0.7970    6.7076 C.ar      1 RES1    0.0000
     10 C6         0.7171    1.6525    5.5437 C.ar      1 RES1    0.0000
     11 C7         0.0111    1.3777    4.3850 C.ar      1 RES1    0.0000
     12 H5        -0.3870    0.5260    4.2514 H         1 RES1    0.0000
     13 C8        -0.1046    2.3692    3.4238 C.ar      1 RES1    0.0000
     14 H6        -0.6007    2.2037    2.6305 H         1 RES1    0.0000
     15 C9         0.5007    3.6003    3.6166 C.ar      1 RES1    0.0000
     16 H7         0.4263    4.2653    2.9424 H         1 RES1    0.0000
     17 C10        1.2140    3.8827    4.7761 C.ar      1 RES1    0.0000
     18 H8         1.6229    4.7318    4.8948 H         1 RES1    0.0000
     19 C11        1.3218    2.9053    5.7625 C.ar      1 RES1    0.0000
     20 C12        2.0047    2.8771    7.0877 C.2       1 RES1    0.0000
     21 C13        1.7311    1.5232    7.6454 C.ar      1 RES1    0.0000
     22 C14        3.4886    3.7358    8.9405 C.ar      1 RES1    0.0000
     23 C15        3.1269    4.5031   10.0231 C.ar      1 RES1    0.0000
     24 H9         2.3728    5.0769    9.9538 H         1 RES1    0.0000
     25 C16        3.8449    4.4577   11.2273 C.ar      1 RES1    0.0000
     26 H10        3.5700    4.9981   11.9591 H         1 RES1    0.0000
     27 C17        4.9268    3.6511   11.3570 C.ar      1 RES1    0.0000
     28 H11        5.3948    3.6190   12.1833 H         1 RES1    0.0000
     29 C18        5.3635    2.8566   10.2701 C.ar      1 RES1    0.0000
     30 C19        6.5210    2.0410   10.3671 C.ar      1 RES1    0.0000
     31 H12        6.9933    1.9956   11.1904 H         1 RES1    0.0000
     32 C20        6.9648    1.3230    9.2994 C.ar      1 RES1    0.0000
     33 H13        7.7474    0.7910    9.3787 H         1 RES1    0.0000
     34 C21        6.2661    1.3684    8.0787 C.ar      1 RES1    0.0000
     35 H14        6.5796    0.8660    7.3359 H         1 RES1    0.0000
     36 C22        5.1389    2.1311    7.9560 C.ar      1 RES1    0.0000
     37 H15        4.6742    2.1443    7.1270 H         1 RES1    0.0000
     38 C23        4.6482    2.9046    9.0420 C.ar      1 RES1    0.0000
     39 C24        2.7286    3.8672    7.6542 C.2       1 RES1    0.0000
     40 C25        2.8495    5.2124    7.0061 C.ar      1 RES1    0.0000
     41 C26        3.9170    5.4699    6.1844 C.ar      1 RES1    0.0000
     42 H16        4.5703    4.7952    6.0436 H         1 RES1    0.0000
     43 C27        4.0634    6.7184    5.5455 C.ar      1 RES1    0.0000
     44 H17        4.8019    6.8722    4.9686 H         1 RES1    0.0000
     45 C28        3.1493    7.7014    5.7548 C.ar      1 RES1    0.0000
     46 H18        3.2603    8.5421    5.3264 H         1 RES1    0.0000
     47 C29        2.0341    7.4931    6.6012 C.ar      1 RES1    0.0000
     48 C30        1.0702    8.5015    6.8236 C.ar      1 RES1    0.0000
     49 H19        1.1782    9.3487    6.4084 H         1 RES1    0.0000
     50 C31       -0.0124    8.2821    7.6236 C.ar      1 RES1    0.0000
     51 H20       -0.6483    8.9738    7.7676 H         1 RES1    0.0000
     52 C32       -0.1834    7.0286    8.2342 C.ar      1 RES1    0.0000
     53 H21       -0.9386    6.8748    8.7883 H         1 RES1    0.0000
     54 C33        0.7235    6.0296    8.0391 C.ar      1 RES1    0.0000
     55 H22        0.5844    5.1868    8.4541 H         1 RES1    0.0000
     56 C34        1.8690    6.2265    7.2300 C.ar      1 RES1    0.0000
@<TRIPOS>BOND
     1    1    2 1
     2    3    1 ar
     3    4    3 1
     4    5    3 ar
     5    6    5 1
     6    7    5 ar
     7    8    7 1
     8    9    7 ar
     9   10    9 1
    10   11   10 ar
    11   12   11 1
    12   13   11 ar
    13   14   13 1
    14   15   13 ar
    15   16   15 1
    16   17   15 ar
    17   18   17 1
    18   19   10 ar
    19   20   19 1
    20   21    1 ar
    21   22   23 ar
    22   23   24 1
    23   25   23 ar
    24   26   25 1
    25   27   25 ar
    26   28   27 1
    27   29   27 ar
    28   30   29 ar
    29   31   30 1
    30   32   30 ar
    31   33   32 1
    32   34   32 ar
    33   35   34 1
    34   36   34 ar
    35   37   36 1
    36   38   22 ar
    37   39   20 2
    38   40   39 1
    39   41   40 ar
    40   42   41 1
    41   43   41 ar
    42   44   43 1
    43   45   43 ar
    44   46   45 1
    45   47   45 ar
    46   48   47 ar
    47   49   48 1
    48   50   48 ar
    49   51   50 1
    50   52   50 ar
    51   53   52 1
    52   54   52 ar
    53   55   54 1
    54   56   40 ar
    55    9   21 ar
    56   17   19 ar
    57   20   21 1
    58   22   39 1
    59   29   38 ar
    60   36   38 ar
    61   47   56 ar
    62   54   56 ar
@<TRIPOS>SUBSTRUCTURE
     1 RES1 1

@<TRIPOS>CRYSIN
  12.4286   12.9250   14.0899  90.0000  98.7650  90.0000  14 1

