# MOL2 file generated by ConQuest
# Please check atom types

@<TRIPOS>MOLECULE
IGEBOM01
    56    62     1
SMALL
NO_CHARGES
****
Generated from CSD

@<TRIPOS>ATOM
      1 C1         3.0821   10.1169    0.1207 C.2       1 RES1    0.0000
      2 C2         2.4036   10.0941   -1.2070 C.ar      1 RES1    0.0000
      3 C3         2.2970    9.1145   -2.1932 C.ar      1 RES1    0.0000
      4 H1         2.6888    8.2791   -2.0726 H         1 RES1    0.0000
      5 C4         1.5975    9.4028   -3.3578 C.ar      1 RES1    0.0000
      6 H2         1.5227    8.7528   -4.0178 H         1 RES1    0.0000
      7 C5         1.0095   10.6392   -3.5538 C.ar      1 RES1    0.0000
      8 H3         0.5390   10.8076   -4.3385 H         1 RES1    0.0000
      9 C6         1.1170   11.6234   -2.5962 C.ar      1 RES1    0.0000
     10 H4         0.7295   12.4577   -2.7322 H         1 RES1    0.0000
     11 C7         1.8095   11.3535   -1.4267 C.ar      1 RES1    0.0000
     12 C8         2.0581   12.2028   -0.2582 C.ar      1 RES1    0.0000
     13 C9         1.6545   13.5056    0.0095 C.ar      1 RES1    0.0000
     14 H5         1.1677   13.9881   -0.6190 H         1 RES1    0.0000
     15 C10        1.9855   14.0711    1.2193 C.ar      1 RES1    0.0000
     16 H6         1.7307   14.9459    1.4046 H         1 RES1    0.0000
     17 C11        2.6927   13.3512    2.1617 C.ar      1 RES1    0.0000
     18 H7         2.8944   13.7435    2.9801 H         1 RES1    0.0000
     19 C12        3.1063   12.0521    1.9071 C.ar      1 RES1    0.0000
     20 H8         3.5798   11.5741    2.5501 H         1 RES1    0.0000
     21 C13        2.8051   11.4720    0.6796 C.ar      1 RES1    0.0000
     22 C14        3.8125    9.1323    0.6824 C.2       1 RES1    0.0000
     23 C15        3.9503    7.7859    0.0337 C.ar      1 RES1    0.0000
     24 C16        5.0262    7.5387   -0.7809 C.ar      1 RES1    0.0000
     25 H9         5.6612    8.2049   -0.9187 H         1 RES1    0.0000
     26 C17        5.1819    6.2826   -1.4140 C.ar      1 RES1    0.0000
     27 H10        5.9092    6.1345   -1.9746 H         1 RES1    0.0000
     28 C18        4.2786    5.2939   -1.2083 C.ar      1 RES1    0.0000
     29 H11        4.3974    4.4714   -1.6245 H         1 RES1    0.0000
     30 C19        3.1621    5.4940   -0.3725 C.ar      1 RES1    0.0000
     31 C20        2.2023    4.4767   -0.1405 C.ar      1 RES1    0.0000
     32 H12        2.3182    3.6451   -0.5392 H         1 RES1    0.0000
     33 C21        1.1237    4.6839    0.6449 C.ar      1 RES1    0.0000
     34 H13        0.5105    3.9990    0.7842 H         1 RES1    0.0000
     35 C22        0.9315    5.9363    1.2510 C.ar      1 RES1    0.0000
     36 H14        0.1859    6.0799    1.7883 H         1 RES1    0.0000
     37 C23        1.8316    6.9466    1.0584 C.ar      1 RES1    0.0000
     38 H15        1.6859    7.7703    1.4648 H         1 RES1    0.0000
     39 C24        2.9812    6.7640    0.2526 C.ar      1 RES1    0.0000
     40 C25        4.5750    9.2654    1.9649 C.ar      1 RES1    0.0000
     41 C26        4.2136    8.5014    3.0500 C.ar      1 RES1    0.0000
     42 H16        3.4754    7.9395    2.9843 H         1 RES1    0.0000
     43 C27        4.9344    8.5507    4.2546 C.ar      1 RES1    0.0000
     44 H17        4.6708    8.0215    4.9729 H         1 RES1    0.0000
     45 C28        6.0113    9.3634    4.3782 C.ar      1 RES1    0.0000
     46 H18        6.4687    9.4009    5.1871 H         1 RES1    0.0000
     47 C29        6.4476   10.1553    3.2928 C.ar      1 RES1    0.0000
     48 C30        7.5936   10.9769    3.3835 C.ar      1 RES1    0.0000
     49 H19        8.0559   11.0263    4.1886 H         1 RES1    0.0000
     50 C31        8.0350   11.6964    2.3178 C.ar      1 RES1    0.0000
     51 H20        8.7977   12.2222    2.3961 H         1 RES1    0.0000
     52 C32        7.3384   11.6462    1.0999 C.ar      1 RES1    0.0000
     53 H21        7.6430   12.1402    0.3725 H         1 RES1    0.0000
     54 C33        6.2154   10.8758    0.9765 C.ar      1 RES1    0.0000
     55 H22        5.7615   10.8571    0.1652 H         1 RES1    0.0000
     56 C34        5.7290   10.1048    2.0617 C.ar      1 RES1    0.0000
@<TRIPOS>BOND
     1    1    2 1
     2    2    3 ar
     3    3    4 1
     4    5    3 ar
     5    6    5 1
     6    7    5 ar
     7    8    7 1
     8    9    7 ar
     9   10    9 1
    10   11    2 ar
    11   12   11 1
    12   13   12 ar
    13   14   13 1
    14   15   13 ar
    15   16   15 1
    16   17   15 ar
    17   18   17 1
    18   19   17 ar
    19   20   19 1
    20   21    1 1
    21   22    1 2
    22   23   22 1
    23   24   23 ar
    24   25   24 1
    25   26   24 ar
    26   27   26 1
    27   28   26 ar
    28   29   28 1
    29   30   28 ar
    30   31   30 ar
    31   32   31 1
    32   33   31 ar
    33   34   33 1
    34   35   33 ar
    35   36   35 1
    36   37   35 ar
    37   38   37 1
    38   39   23 ar
    39   40   22 1
    40   41   40 ar
    41   42   41 1
    42   43   41 ar
    43   44   43 1
    44   45   43 ar
    45   46   45 1
    46   47   45 ar
    47   48   47 ar
    48   49   48 1
    49   50   48 ar
    50   51   50 1
    51   52   50 ar
    52   53   52 1
    53   54   52 ar
    54   55   54 1
    55   56   40 ar
    56    9   11 ar
    57   12   21 ar
    58   19   21 ar
    59   30   39 ar
    60   37   39 ar
    61   47   56 ar
    62   54   56 ar
@<TRIPOS>SUBSTRUCTURE
     1 RES1 1

@<TRIPOS>CRYSIN
  12.5099   13.0134   14.1880  90.0000  99.2350  90.0000  14 1

