# MOL2 file generated by ConQuest
# Please check atom types

@<TRIPOS>MOLECULE
IHUQUZ
    41    44     1
SMALL
NO_CHARGES
****
Generated from CSD

@<TRIPOS>ATOM
      1 C1         1.1800   12.7881    0.1943 C.3       1 RES1    0.0000
      2 H1         1.6065   13.6696    0.2434 H         1 RES1    0.0000
      3 C2         1.9638   11.8790    1.1293 C.ar      1 RES1    0.0000
      4 C3         1.2567   12.3540   -1.2626 C.ar      1 RES1    0.0000
      5 C4         2.4672   10.6571    0.7522 C.ar      1 RES1    0.0000
      6 H2         2.3554   10.3647   -0.1231 H         1 RES1    0.0000
      7 C5         2.4313   12.6377   -2.0335 C.ar      1 RES1    0.0000
      8 C6         2.4764   12.2178   -3.3936 C.ar      1 RES1    0.0000
      9 C7        -0.2512   12.9749    0.6935 C.ar      1 RES1    0.0000
     10 C8         0.2426   11.6658   -1.8584 C.ar      1 RES1    0.0000
     11 H3        -0.5276   11.4834   -1.3697 H         1 RES1    0.0000
     12 C9        -0.9737   11.9483    1.2745 C.ar      1 RES1    0.0000
     13 H4        -0.5830   11.1105    1.3669 H         1 RES1    0.0000
     14 C10        3.5547   13.2908   -1.5073 C.ar      1 RES1    0.0000
     15 H5         3.5579   13.5374   -0.6108 H         1 RES1    0.0000
     16 C11        2.1705   12.2843    2.4384 C.ar      1 RES1    0.0000
     17 H6         1.8526   13.1132    2.7135 H         1 RES1    0.0000
     18 C12        3.1365    9.8576    1.6593 C.ar      1 RES1    0.0000
     19 H7         3.4671    9.0309    1.3890 H         1 RES1    0.0000
     20 C13        0.3245   11.2246   -3.1820 C.ar      1 RES1    0.0000
     21 H8        -0.3742   10.7297   -3.5446 H         1 RES1    0.0000
     22 C14        1.3900   11.5032   -3.9303 C.ar      1 RES1    0.0000
     23 H9         1.4162   11.2230   -4.8162 H         1 RES1    0.0000
     24 C15        4.6603   13.2103   -3.6331 C.ar      1 RES1    0.0000
     25 H10        5.3948   13.4289   -4.1612 H         1 RES1    0.0000
     26 C16       -0.8596   14.1990    0.5791 C.ar      1 RES1    0.0000
     27 H11       -0.3994   14.9009    0.1808 H         1 RES1    0.0000
     28 C17        3.6285   12.5505   -4.1746 C.ar      1 RES1    0.0000
     29 H12        3.6606   12.3043   -5.0711 H         1 RES1    0.0000
     30 C18       -2.2684   12.1488    1.7199 C.ar      1 RES1    0.0000
     31 H13       -2.7462   11.4460    2.0998 H         1 RES1    0.0000
     32 C19        3.3176   10.2686    2.9444 C.ar      1 RES1    0.0000
     33 H14        3.7657    9.7254    3.5523 H         1 RES1    0.0000
     34 C20        4.6454   13.5743   -2.2835 C.ar      1 RES1    0.0000
     35 H15        5.3789   14.0090   -1.9132 H         1 RES1    0.0000
     36 C21        2.8334   11.4890    3.3359 C.ar      1 RES1    0.0000
     37 H16        2.9546   11.7774    4.2112 H         1 RES1    0.0000
     38 C22       -2.1398   14.4072    1.0417 C.ar      1 RES1    0.0000
     39 H17       -2.5257   15.2501    0.9734 H         1 RES1    0.0000
     40 C23       -2.8443   13.3835    1.5996 C.ar      1 RES1    0.0000
     41 H18       -3.7136   13.5236    1.8978 H         1 RES1    0.0000
@<TRIPOS>BOND
     1    1    2 1
     2    3    1 1
     3    4    1 1
     4    5    3 ar
     5    6    5 1
     6    7    4 ar
     7    8    7 ar
     8    9    1 1
     9   10    4 ar
    10   11   10 1
    11   12    9 ar
    12   13   12 1
    13   14    7 ar
    14   15   14 1
    15   16    3 ar
    16   17   16 1
    17   18    5 ar
    18   19   18 1
    19   20   10 ar
    20   21   20 1
    21   22    8 ar
    22   23   22 1
    23   24   25 1
    24   26    9 ar
    25   27   26 1
    26   28    8 ar
    27   29   28 1
    28   30   12 ar
    29   31   30 1
    30   32   18 ar
    31   33   32 1
    32   34   14 ar
    33   35   34 1
    34   36   16 ar
    35   37   36 1
    36   38   26 ar
    37   39   38 1
    38   40   30 ar
    39   41   40 1
    40   20   22 ar
    41   24   28 ar
    42   24   34 ar
    43   32   36 ar
    44   38   40 ar
@<TRIPOS>SUBSTRUCTURE
     1 RES1 1

@<TRIPOS>CRYSIN
   8.6180   19.7310   10.3850  90.0000 112.1440  90.0000  14 1

