# MOL2 file generated by ConQuest
# Please check atom types

@<TRIPOS>MOLECULE
IKACEC
    62    67     1
SMALL
NO_CHARGES
****
Generated from CSD

@<TRIPOS>ATOM
      1 C1         0.2857   12.9851   10.2374 C.ar      1 RES1    0.0000
      2 C2         0.7616   13.4621    9.0255 C.ar      1 RES1    0.0000
      3 C3         0.1079   13.1093    7.7924 C.ar      1 RES1    0.0000
      4 C4        -1.5335   11.8200    9.0332 C.ar      1 RES1    0.0000
      5 C5        -1.0109   12.2927    7.7935 C.ar      1 RES1    0.0000
      6 C6        -2.6949   11.0087    9.0761 C.ar      1 RES1    0.0000
      7 H1        -3.1334   10.7810    8.2643 H         1 RES1    0.0000
      8 C7        -3.1973   10.5485   10.2554 C.ar      1 RES1    0.0000
      9 H2        -3.9687    9.9942   10.2598 H         1 RES1    0.0000
     10 C8        -2.5746   10.8937   11.4583 C.ar      1 RES1    0.0000
     11 H3        -2.9335   10.5796   12.2804 H         1 RES1    0.0000
     12 C9        -0.8852   12.1569   10.2594 C.ar      1 RES1    0.0000
     13 C10       -1.4563   11.6777   11.4659 C.ar      1 RES1    0.0000
     14 H4        -1.0531   11.9065   12.2950 H         1 RES1    0.0000
     15 C11        0.9852   13.3096   11.5194 C.ar      1 RES1    0.0000
     16 C12        1.0666   14.6133   11.9909 C.ar      1 RES1    0.0000
     17 H5         0.6972   15.3238   11.4792 H         1 RES1    0.0000
     18 C13        1.6824   14.8863   13.2032 C.ar      1 RES1    0.0000
     19 H6         1.7292   15.7812   13.5166 H         1 RES1    0.0000
     20 C14        2.2262   13.8705   13.9533 C.ar      1 RES1    0.0000
     21 H7         2.6491   14.0624   14.7820 H         1 RES1    0.0000
     22 C15        2.1544   12.5764   13.4984 C.ar      1 RES1    0.0000
     23 H8         2.5288   11.8706   14.0144 H         1 RES1    0.0000
     24 C16        1.5392   12.2985   12.2940 C.ar      1 RES1    0.0000
     25 H9         1.4936   11.3992   11.9896 H         1 RES1    0.0000
     26 C17        1.9046   14.3236    8.9420 C.1       1 RES1    0.0000
     27 C18        2.8222   15.0815    8.7860 C.1       1 RES1    0.0000
     28 C19        3.9317   15.9821    8.6201 C.ar      1 RES1    0.0000
     29 C20        4.1153   17.0536    9.4928 C.ar      1 RES1    0.0000
     30 H10        3.5039   17.1924   10.2075 H         1 RES1    0.0000
     31 C21        5.1852   17.9177    9.3248 C.ar      1 RES1    0.0000
     32 H11        5.3030   18.6473    9.9209 H         1 RES1    0.0000
     33 C22        6.0752   17.7216    8.3005 C.ar      1 RES1    0.0000
     34 H12        6.8112   18.3133    8.1932 H         1 RES1    0.0000
     35 C23        5.9058   16.6707    7.4280 C.ar      1 RES1    0.0000
     36 H13        6.5252   16.5383    6.7206 H         1 RES1    0.0000
     37 C24        4.8364   15.8061    7.5797 C.ar      1 RES1    0.0000
     38 H14        4.7196   15.0880    6.9695 H         1 RES1    0.0000
     39 C25        0.6055   13.6026    6.5430 C.1       1 RES1    0.0000
     40 C26        0.9317   14.0059    5.4654 C.1       1 RES1    0.0000
     41 C27        1.2256   14.4564    4.1309 C.ar      1 RES1    0.0000
     42 C28        2.4237   15.0843    3.8157 C.ar      1 RES1    0.0000
     43 H15        3.0781   15.2254    4.4909 H         1 RES1    0.0000
     44 C29        2.6653   15.5034    2.5207 C.ar      1 RES1    0.0000
     45 H16        3.4909   15.9217    2.3071 H         1 RES1    0.0000
     46 C30        1.7224   15.3208    1.5426 C.ar      1 RES1    0.0000
     47 H17        1.8917   15.6235    0.6589 H         1 RES1    0.0000
     48 C31        0.5362   14.7017    1.8399 C.ar      1 RES1    0.0000
     49 H18       -0.1154   14.5744    1.1609 H         1 RES1    0.0000
     50 C32        0.2852   14.2621    3.1260 C.ar      1 RES1    0.0000
     51 H19       -0.5347   13.8251    3.3237 H         1 RES1    0.0000
     52 C33       -1.6707   11.8950    6.5104 C.ar      1 RES1    0.0000
     53 C34       -1.1729   10.8518    5.7603 C.ar      1 RES1    0.0000
     54 H20       -0.3787   10.4125    6.0408 H         1 RES1    0.0000
     55 C35       -1.8085   10.4313    4.6059 C.ar      1 RES1    0.0000
     56 H21       -1.4481    9.7132    4.0997 H         1 RES1    0.0000
     57 C36       -2.9601   11.0545    4.1953 C.ar      1 RES1    0.0000
     58 H22       -3.4129   10.7529    3.4157 H         1 RES1    0.0000
     59 C37       -3.4545   12.1113    4.9105 C.ar      1 RES1    0.0000
     60 H23       -4.2385   12.5590    4.6122 H         1 RES1    0.0000
     61 C38       -2.8166   12.5334    6.0693 C.ar      1 RES1    0.0000
     62 H24       -3.1691   13.2647    6.5617 H         1 RES1    0.0000
@<TRIPOS>BOND
     1    1    2 ar
     2    2    3 ar
     3    3    5 ar
     4    4    5 ar
     5    5   52 1
     6    6    4 ar
     7    7    6 1
     8    8    6 ar
     9    9    8 1
    10   10    8 ar
    11   11   10 1
    12   12    1 ar
    13   13   10 ar
    14   14   13 1
    15   15    1 1
    16   16   15 ar
    17   17   16 1
    18   18   16 ar
    19   19   18 1
    20   20   18 ar
    21   21   20 1
    22   22   20 ar
    23   23   22 1
    24   24   15 ar
    25   25   24 1
    26   26    2 1
    27   27   26 3
    28   28   27 1
    29   29   28 ar
    30   30   29 1
    31   31   29 ar
    32   32   31 1
    33   33   31 ar
    34   34   33 1
    35   35   33 ar
    36   36   35 1
    37   37   28 ar
    38   38   37 1
    39   39    3 1
    40   40   39 3
    41   41   40 1
    42   42   41 ar
    43   43   42 1
    44   44   42 ar
    45   45   44 1
    46   46   44 ar
    47   47   46 1
    48   48   46 ar
    49   49   48 1
    50   50   41 ar
    51   51   50 1
    52   52   53 ar
    53   53   54 1
    54   55   53 ar
    55   56   55 1
    56   57   55 ar
    57   58   57 1
    58   59   57 ar
    59   60   59 1
    60   61   52 ar
    61   62   61 1
    62    4   12 ar
    63   12   13 ar
    64   22   24 ar
    65   35   37 ar
    66   48   50 ar
    67   59   61 ar
@<TRIPOS>SUBSTRUCTURE
     1 RES1 1

@<TRIPOS>CRYSIN
  16.2520   15.6110   20.9170  90.0000  90.0000  90.0000  61 1

