# MOL2 file generated by ConQuest
# Please check atom types

@<TRIPOS>MOLECULE
IKOZAK
    35    39     1
SMALL
NO_CHARGES
****
Generated from CSD

@<TRIPOS>ATOM
      1 C1         9.9247    7.5123    1.7473 C.ar      1 RES1    0.0000
      2 C2         9.4910    8.8284    1.8267 C.ar      1 RES1    0.0000
      3 C3         8.1266    9.1568    1.8748 C.ar      1 RES1    0.0000
      4 C4         7.2037    8.1588    1.7786 C.ar      1 RES1    0.0000
      5 C5         7.5917    6.8215    1.5169 C.ar      1 RES1    0.0000
      6 C6         6.6270    5.8267    1.2212 C.ar      1 RES1    0.0000
      7 C7         6.9955    4.5874    0.7847 C.ar      1 RES1    0.0000
      8 C8         8.3549    4.2821    0.6218 C.ar      1 RES1    0.0000
      9 C9         9.3150    5.1914    0.9611 C.ar      1 RES1    0.0000
     10 C10        8.9789    6.4774    1.4550 C.ar      1 RES1    0.0000
     11 C11       10.6640    9.7631    1.8036 C.3       1 RES1    0.0000
     12 H1         7.8460   10.1061    1.9818 H         1 RES1    0.0000
     13 H2         6.2546    8.3598    1.8303 H         1 RES1    0.0000
     14 H3         5.6613    6.0944    1.2842 H         1 RES1    0.0000
     15 H4         6.2924    3.8921    0.5685 H         1 RES1    0.0000
     16 H5         8.6153    3.4151    0.2648 H         1 RES1    0.0000
     17 H6        10.2556    4.9473    0.8304 H         1 RES1    0.0000
     18 H7        10.6222   10.3750    1.0245 H         1 RES1    0.0000
     19 C1A       11.4034    7.5123    1.8600 C.ar      1 RES1    0.0000
     20 C2A       11.8371    8.8284    1.7806 C.ar      1 RES1    0.0000
     21 C3A       13.2014    9.1568    1.7324 C.ar      1 RES1    0.0000
     22 C4A       14.1244    8.1588    1.8287 C.ar      1 RES1    0.0000
     23 C5A       13.7363    6.8215    2.0903 C.ar      1 RES1    0.0000
     24 C6A       14.7011    5.8267    2.3861 C.ar      1 RES1    0.0000
     25 C7A       14.3325    4.5874    2.8226 C.ar      1 RES1    0.0000
     26 C8A       12.9732    4.2821    2.9855 C.ar      1 RES1    0.0000
     27 C9A       12.0131    5.1914    2.6462 C.ar      1 RES1    0.0000
     28 C10A      12.3491    6.4774    2.1523 C.ar      1 RES1    0.0000
     29 H1A       13.4820   10.1061    1.6254 H         1 RES1    0.0000
     30 H2A       15.0734    8.3598    1.7769 H         1 RES1    0.0000
     31 H3A       15.6667    6.0944    2.3231 H         1 RES1    0.0000
     32 H4A       15.0357    3.8921    3.0388 H         1 RES1    0.0000
     33 H5A       12.7127    3.4151    3.3425 H         1 RES1    0.0000
     34 H6A       11.0724    4.9473    2.7769 H         1 RES1    0.0000
     35 H7A       10.7059   10.3750    2.5828 H         1 RES1    0.0000
@<TRIPOS>BOND
     1    1    2 ar
     2    2    3 ar
     3    3    4 ar
     4    4    5 ar
     5    5    6 ar
     6    6    7 ar
     7    7    8 ar
     8    8    9 ar
     9    9   10 ar
    10   10    1 ar
    11   11    2 1
    12   12    3 1
    13   13    4 1
    14   14    6 1
    15   15    7 1
    16   16    8 1
    17   17    9 1
    18   18   11 1
    19   19    1 1
    20   20   11 1
    21   21   20 ar
    22   22   21 ar
    23   23   22 ar
    24   24   23 ar
    25   25   24 ar
    26   26   25 ar
    27   27   26 ar
    28   28   19 ar
    29   29   21 1
    30   30   22 1
    31   31   24 1
    32   32   25 1
    33   33   26 1
    34   34   27 1
    35   35   11 1
    36    5   10 ar
    37   19   20 ar
    38   23   28 ar
    39   27   28 ar
@<TRIPOS>SUBSTRUCTURE
     1 RES1 1

@<TRIPOS>CRYSIN
  21.8736    8.4281    7.2966  90.0000  98.6000  90.0000  15 1

