# MOL2 file generated by ConQuest
# Please check atom types

@<TRIPOS>MOLECULE
IQABEI
   156   166     1
SMALL
NO_CHARGES
****
Generated from CSD

@<TRIPOS>ATOM
      1 C1        -0.8857   -3.1526   12.1772 C.ar      1 RES1    0.0000
      2 C2         0.3918   -3.0559   12.7667 C.ar      1 RES1    0.0000
      3 H1         0.7269   -3.8042   13.2459 H         1 RES1    0.0000
      4 C3         1.1721   -1.9315   12.6820 C.ar      1 RES1    0.0000
      5 C4         0.6224   -0.8295   12.0043 C.ar      1 RES1    0.0000
      6 H2         1.1175   -0.0210   11.9649 H         1 RES1    0.0000
      7 C5        -0.6028   -0.8832   11.4032 C.ar      1 RES1    0.0000
      8 H3        -0.9380   -0.1112   10.9646 H         1 RES1    0.0000
      9 C6        -1.3856   -2.0686   11.4183 C.ar      1 RES1    0.0000
     10 C7        -2.6960   -2.1830   10.7917 C.ar      1 RES1    0.0000
     11 C8        -3.1536   -1.2622    9.7531 C.ar      1 RES1    0.0000
     12 C9        -2.2828   -0.4853    8.9536 C.ar      1 RES1    0.0000
     13 H4        -1.3453   -0.5535    9.0929 H         1 RES1    0.0000
     14 C10       -2.7494    0.3616    7.9847 C.ar      1 RES1    0.0000
     15 H5        -2.1292    0.8683    7.4718 H         1 RES1    0.0000
     16 C11       -4.1203    0.4981    7.7317 C.ar      1 RES1    0.0000
     17 C12       -4.9773   -0.3106    8.4361 C.ar      1 RES1    0.0000
     18 H6        -5.9078   -0.2651    8.2481 H         1 RES1    0.0000
     19 C13       -4.5229   -1.2096    9.4329 C.ar      1 RES1    0.0000
     20 C14       -5.4444   -2.1652   10.0142 C.ar      1 RES1    0.0000
     21 C15       -4.9307   -3.2286   10.7882 C.ar      1 RES1    0.0000
     22 C16       -3.5528   -3.2107   11.1920 C.ar      1 RES1    0.0000
     23 C17       -3.0702   -4.2914   12.0240 C.ar      1 RES1    0.0000
     24 C18       -1.7174   -4.3184   12.4081 C.ar      1 RES1    0.0000
     25 C19       -1.2277   -5.4597   13.0672 C.ar      1 RES1    0.0000
     26 H7        -0.2989   -5.5215   13.2541 H         1 RES1    0.0000
     27 C20       -6.8312   -2.1164    9.7636 C.ar      1 RES1    0.0000
     28 H8        -7.1993   -1.3592    9.3226 H         1 RES1    0.0000
     29 C21        2.5475   -1.8445   13.3063 C.3       1 RES1    0.0000
     30 H9         2.5766   -1.0521   13.8981 H         1 RES1    0.0000
     31 H10        3.2133   -1.7049   12.5868 H         1 RES1    0.0000
     32 C22        2.9568   -3.0694   14.1151 C.3       1 RES1    0.0000
     33 H11        2.8792   -3.8701   13.5372 H         1 RES1    0.0000
     34 H12        2.3206   -3.1787   14.8659 H         1 RES1    0.0000
     35 C23        4.3739   -3.0128   14.6802 C.3       1 RES1    0.0000
     36 H13        5.0258   -3.0024   13.9341 H         1 RES1    0.0000
     37 H14        4.4885   -2.1761   15.1977 H         1 RES1    0.0000
     38 C24        4.6520   -4.2063   15.5795 C.3       1 RES1    0.0000
     39 H15        4.0253   -4.1733   16.3442 H         1 RES1    0.0000
     40 H16        4.4555   -5.0323   15.0701 H         1 RES1    0.0000
     41 C25        6.0643   -4.3036   16.1226 C.3       1 RES1    0.0000
     42 H17        6.3137   -3.4424   16.5426 H         1 RES1    0.0000
     43 H18        6.6914   -4.4717   15.3753 H         1 RES1    0.0000
     44 C26        6.1955   -5.4249   17.1518 C.3       1 RES1    0.0000
     45 H19        5.6298   -5.2024   17.9328 H         1 RES1    0.0000
     46 H20        5.8403   -6.2592   16.7550 H         1 RES1    0.0000
     47 C27        7.6012   -5.6819   17.6346 C.3       1 RES1    0.0000
     48 H21        8.0218   -4.8221   17.8887 H         1 RES1    0.0000
     49 H22        8.1329   -6.0745   16.8977 H         1 RES1    0.0000
     50 C28        7.6274   -6.6247   18.8286 C.3       1 RES1    0.0000
     51 H23        7.2680   -6.1648   19.6154 H         1 RES1    0.0000
     52 H24        8.5507   -6.9016   19.0062 H         1 RES1    0.0000
     53 H25        7.0810   -7.4144   18.6337 H         1 RES1    0.0000
     54 C29       -4.5895    1.4710    6.6653 C.3       1 RES1    0.0000
     55 H26       -4.0329    1.3347    5.8577 H         1 RES1    0.0000
     56 H27       -4.4158    2.3904    6.9902 H         1 RES1    0.0000
     57 C30       -6.0547    1.3858    6.2511 C.3       1 RES1    0.0000
     58 H28       -6.6278    1.5195    7.0459 H         1 RES1    0.0000
     59 H29       -6.2401    0.4832    5.8890 H         1 RES1    0.0000
     60 C31       -6.4005    2.4328    5.1963 C.3       1 RES1    0.0000
     61 H30       -6.3219    3.3314    5.6059 H         1 RES1    0.0000
     62 H31       -5.7326    2.3786    4.4664 H         1 RES1    0.0000
     63 C32       -7.7934    2.2956    4.5917 C.3       1 RES1    0.0000
     64 H32       -7.8424    1.4491    4.0811 H         1 RES1    0.0000
     65 H33       -8.4597    2.2484    5.3216 H         1 RES1    0.0000
     66 C33       -8.1447    3.4493    3.6727 C.3       1 RES1    0.0000
     67 H34       -7.4403    3.5295    2.9811 H         1 RES1    0.0000
     68 H35       -8.1423    4.2863    4.2006 H         1 RES1    0.0000
     69 C34       -9.4936    3.3166    2.9799 C.3       1 RES1    0.0000
     70 H36      -10.1988    3.1848    3.6611 H         1 RES1    0.0000
     71 H37       -9.4818    2.5173    2.3951 H         1 RES1    0.0000
     72 C35       -9.8293    4.5459    2.1421 C.3       1 RES1    0.0000
     73 H38       -9.8863    5.3335    2.7385 H         1 RES1    0.0000
     74 H39       -9.0919    4.7069    1.5004 H         1 RES1    0.0000
     75 C36      -11.1343    4.4201    1.3681 C.3       1 RES1    0.0000
     76 H40      -11.1034    3.6194    0.8042 H         1 RES1    0.0000
     77 H41      -11.2566    5.2124    0.8042 H         1 RES1    0.0000
     78 H42      -11.8820    4.3491    1.9982 H         1 RES1    0.0000
     79 C1A       -7.9875   -5.4332   11.0307 C.ar      1 RES1    0.0000
     80 C2A       -9.2650   -5.5299   10.4413 C.ar      1 RES1    0.0000
     81 H1A       -9.6002   -4.7816    9.9620 H         1 RES1    0.0000
     82 C3A      -10.0453   -6.6542   10.5260 C.ar      1 RES1    0.0000
     83 C4A       -9.4956   -7.7563   11.2036 C.ar      1 RES1    0.0000
     84 H2A       -9.9908   -8.5648   11.2431 H         1 RES1    0.0000
     85 C5A       -8.2704   -7.7026   11.8047 C.ar      1 RES1    0.0000
     86 H3A       -7.9353   -8.4746   12.2434 H         1 RES1    0.0000
     87 C6A       -7.4876   -6.5172   11.7896 C.ar      1 RES1    0.0000
     88 C7A       -6.1773   -6.4028   12.4163 C.ar      1 RES1    0.0000
     89 C8A       -5.7196   -7.3236   13.4548 C.ar      1 RES1    0.0000
     90 C9A       -6.5904   -8.1005   14.2543 C.ar      1 RES1    0.0000
     91 H4A       -7.5279   -8.0322   14.1151 H         1 RES1    0.0000
     92 C10A      -6.1239   -8.9474   15.2233 C.ar      1 RES1    0.0000
     93 H5A       -6.7440   -9.4540   15.7362 H         1 RES1    0.0000
     94 C11A      -4.7530   -9.0838   15.4762 C.ar      1 RES1    0.0000
     95 C12A      -3.8959   -8.2752   14.7719 C.ar      1 RES1    0.0000
     96 H6A       -2.9654   -8.3207   14.9599 H         1 RES1    0.0000
     97 C13A      -4.3503   -7.3762   13.7751 C.ar      1 RES1    0.0000
     98 C14A      -3.4289   -6.4206   13.1937 C.ar      1 RES1    0.0000
     99 C15A      -3.9426   -5.3571   12.4197 C.ar      1 RES1    0.0000
    100 C16A      -5.3205   -5.3751   12.0159 C.ar      1 RES1    0.0000
    101 C17A      -5.8031   -4.2944   11.1839 C.ar      1 RES1    0.0000
    102 C18A      -7.1558   -4.2673   10.7998 C.ar      1 RES1    0.0000
    103 C19A      -7.6455   -3.1261   10.1407 C.ar      1 RES1    0.0000
    104 H7A       -8.5743   -3.0643    9.9539 H         1 RES1    0.0000
    105 C20A      -2.0420   -6.4694   13.4444 C.ar      1 RES1    0.0000
    106 H8A       -1.6740   -7.2266   13.8853 H         1 RES1    0.0000
    107 C21A     -11.4208   -6.7412    9.9017 C.3       1 RES1    0.0000
    108 H9A      -11.4498   -7.5337    9.3099 H         1 RES1    0.0000
    109 H10A     -12.0865   -6.8808   10.6211 H         1 RES1    0.0000
    110 C22A     -11.8300   -5.5164    9.0929 C.3       1 RES1    0.0000
    111 H11A     -11.7524   -4.7156    9.6708 H         1 RES1    0.0000
    112 H12A     -11.1938   -5.4070    8.3421 H         1 RES1    0.0000
    113 C23A     -13.2472   -5.5730    8.5278 C.3       1 RES1    0.0000
    114 H13A     -13.8991   -5.5834    9.2739 H         1 RES1    0.0000
    115 H14A     -13.3617   -6.4097    8.0102 H         1 RES1    0.0000
    116 C24A     -13.5253   -4.3795    7.6285 C.3       1 RES1    0.0000
    117 H15A     -12.8986   -4.4125    6.8638 H         1 RES1    0.0000
    118 H16A     -13.3287   -3.5534    8.1379 H         1 RES1    0.0000
    119 C25A     -14.9375   -4.2821    7.0854 C.3       1 RES1    0.0000
    120 H17A     -15.1870   -5.1434    6.6653 H         1 RES1    0.0000
    121 H18A     -15.5647   -4.1141    7.8327 H         1 RES1    0.0000
    122 C26A     -15.0687   -3.1609    6.0561 C.3       1 RES1    0.0000
    123 H19A     -14.5030   -3.3834    5.2752 H         1 RES1    0.0000
    124 H20A     -14.7136   -2.3266    6.4530 H         1 RES1    0.0000
    125 C27A     -16.4744   -2.9038    5.5734 C.3       1 RES1    0.0000
    126 H21A     -16.8951   -3.7637    5.3193 H         1 RES1    0.0000
    127 H22A     -17.0061   -2.5112    6.3102 H         1 RES1    0.0000
    128 C28A     -16.5006   -1.9611    4.3793 C.3       1 RES1    0.0000
    129 H23A     -16.1412   -2.4210    3.5926 H         1 RES1    0.0000
    130 H24A     -17.4239   -1.6841    4.2018 H         1 RES1    0.0000
    131 H25A     -15.9542   -1.1714    4.5743 H         1 RES1    0.0000
    132 C29A      -4.2838  -10.0567   16.5426 C.3       1 RES1    0.0000
    133 H26A      -4.8403   -9.9204   17.3503 H         1 RES1    0.0000
    134 H27A      -4.4575  -10.9762   16.2177 H         1 RES1    0.0000
    135 C30A      -2.8185   -9.9715   16.9569 C.3       1 RES1    0.0000
    136 H28A      -2.2455  -10.1052   16.1620 H         1 RES1    0.0000
    137 H29A      -2.6331   -9.0690   17.3189 H         1 RES1    0.0000
    138 C31A      -2.4727  -11.0186   18.0117 C.3       1 RES1    0.0000
    139 H30A      -2.5513  -11.9171   17.6021 H         1 RES1    0.0000
    140 H31A      -3.1406  -10.9644   18.7416 H         1 RES1    0.0000
    141 C32A      -1.0799  -10.8814   18.6163 C.3       1 RES1    0.0000
    142 H32A      -1.0308  -10.0348   19.1268 H         1 RES1    0.0000
    143 H33A      -0.4135  -10.8342   17.8864 H         1 RES1    0.0000
    144 C33A      -0.7285  -12.0351   19.5353 C.3       1 RES1    0.0000
    145 H34A      -1.4330  -12.1153   20.2269 H         1 RES1    0.0000
    146 H35A      -0.7309  -12.8721   19.0073 H         1 RES1    0.0000
    147 C34A       0.6204  -11.9023   20.2281 C.3       1 RES1    0.0000
    148 H36A       1.3255  -11.7706   19.5469 H         1 RES1    0.0000
    149 H37A       0.6086  -11.1031   20.8129 H         1 RES1    0.0000
    150 C35A       0.9561  -13.1316   21.0659 C.3       1 RES1    0.0000
    151 H38A       1.0131  -13.9192   20.4694 H         1 RES1    0.0000
    152 H39A       0.2187  -13.2927   21.7076 H         1 RES1    0.0000
    153 C36A       2.2610  -13.0059   21.8398 C.3       1 RES1    0.0000
    154 H40A       2.2301  -12.2052   22.4038 H         1 RES1    0.0000
    155 H41A       2.3833  -13.7981   22.4038 H         1 RES1    0.0000
    156 H42A       3.0088  -12.9349   21.2098 H         1 RES1    0.0000
@<TRIPOS>BOND
     1    1    2 ar
     2    2    3 1
     3    4    2 ar
     4    5    4 ar
     5    6    5 1
     6    7    5 ar
     7    8    7 1
     8    9    1 ar
     9   10    9 ar
    10   11   10 ar
    11   12   11 ar
    12   13   12 1
    13   14   12 ar
    14   15   14 1
    15   16   14 ar
    16   17   16 ar
    17   18   17 1
    18   19   11 ar
    19   20   19 ar
    20   21   20 ar
    21   22   10 ar
    22   23   22 ar
    23   24    1 ar
    24   25   24 ar
    25   26   25 1
    26   27   20 ar
    27   28   27 1
    28   29    4 1
    29   30   29 1
    30   31   29 1
    31   32   29 1
    32   33   32 1
    33   34   32 1
    34   35   32 1
    35   36   35 1
    36   37   35 1
    37   38   35 1
    38   39   38 1
    39   40   38 1
    40   41   38 1
    41   42   41 1
    42   43   41 1
    43   44   41 1
    44   45   44 1
    45   46   44 1
    46   47   44 1
    47   48   47 1
    48   49   47 1
    49   50   47 1
    50   51   50 1
    51   52   50 1
    52   53   50 1
    53   54   16 1
    54   55   54 1
    55   56   54 1
    56   57   54 1
    57   58   57 1
    58   59   57 1
    59   60   57 1
    60   61   60 1
    61   62   60 1
    62   63   60 1
    63   64   63 1
    64   65   63 1
    65   66   63 1
    66   67   66 1
    67   68   66 1
    68   69   66 1
    69   70   69 1
    70   71   69 1
    71   72   69 1
    72   73   72 1
    73   74   72 1
    74   75   72 1
    75   76   75 1
    76   77   75 1
    77   78   75 1
    78   79   80 ar
    79   80   81 1
    80   82   80 ar
    81   83   82 ar
    82   84   83 1
    83   85   83 ar
    84   86   85 1
    85   87   79 ar
    86   88   87 ar
    87   89   88 ar
    88   90   89 ar
    89   91   90 1
    90   92   90 ar
    91   93   92 1
    92   94   92 ar
    93   95   94 ar
    94   96   95 1
    95   97   89 ar
    96   98   97 ar
    97   99   23 ar
    98  100   88 ar
    99  101   21 ar
   100  102   79 ar
   101  103   27 ar
   102  104  103 1
   103  105   25 ar
   104  106  105 1
   105  107   82 1
   106  108  107 1
   107  109  107 1
   108  110  107 1
   109  111  110 1
   110  112  110 1
   111  113  110 1
   112  114  113 1
   113  115  113 1
   114  116  113 1
   115  117  116 1
   116  118  116 1
   117  119  116 1
   118  120  119 1
   119  121  119 1
   120  122  119 1
   121  123  122 1
   122  124  122 1
   123  125  122 1
   124  126  125 1
   125  127  125 1
   126  128  125 1
   127  129  128 1
   128  130  128 1
   129  131  128 1
   130  132   94 1
   131  133  132 1
   132  134  132 1
   133  135  132 1
   134  136  135 1
   135  137  135 1
   136  138  135 1
   137  139  138 1
   138  140  138 1
   139  141  138 1
   140  142  141 1
   141  143  141 1
   142  144  141 1
   143  145  144 1
   144  146  144 1
   145  147  144 1
   146  148  147 1
   147  149  147 1
   148  150  147 1
   149  151  150 1
   150  152  150 1
   151  153  150 1
   152  154  153 1
   153  155  153 1
   154  156  153 1
   155    7    9 ar
   156   17   19 ar
   157   21   22 ar
   158   23   24 ar
   159   85   87 ar
   160   95   97 ar
   161   98   99 ar
   162   98  105 ar
   163   99  100 ar
   164  100  101 ar
   165  101  102 ar
   166  102  103 ar
@<TRIPOS>SUBSTRUCTURE
     1 RES1 1

@<TRIPOS>CRYSIN
  10.7924   10.9938   13.1440 101.9310 109.7270 107.9430   2 1

