# MOL2 file generated by ConQuest
# Please check atom types

@<TRIPOS>MOLECULE
IQITAE
   272   296     4
SMALL
NO_CHARGES
****
Generated from CSD

@<TRIPOS>ATOM
      1 C1        26.4078   20.1252    2.2180 C.ar      1 RES1    0.0000
      2 C2        27.6886   20.1541    1.7587 C.ar      1 RES1    0.0000
      3 H1        28.3797   19.8558    2.3198 H         1 RES1    0.0000
      4 C3        28.0187   20.6281    0.4406 C.ar      1 RES1    0.0000
      5 H2        28.9169   20.6213    0.1605 H         1 RES1    0.0000
      6 C4        27.0597   21.0884   -0.4124 C.ar      1 RES1    0.0000
      7 C5        25.6898   21.0713    0.0126 C.ar      1 RES1    0.0000
      8 C6        25.3691   20.6008    1.3527 C.ar      1 RES1    0.0000
      9 C7        24.0432   20.5786    1.7416 C.ar      1 RES1    0.0000
     10 H3        23.8448   20.2837    2.6130 H         1 RES1    0.0000
     11 C8        22.9583   20.9724    0.9065 C.ar      1 RES1    0.0000
     12 C9        21.6388   20.8702    1.3294 C.ar      1 RES1    0.0000
     13 C10       20.5879   21.2036    0.4379 C.ar      1 RES1    0.0000
     14 C11       19.2224   21.1753    0.8209 C.ar      1 RES1    0.0000
     15 H4        19.0098   20.8838    1.6907 H         1 RES1    0.0000
     16 C12       21.3469   20.4201    2.7104 C.ar      1 RES1    0.0000
     17 C13       21.6230   21.2231    3.8050 C.ar      1 RES1    0.0000
     18 H5        22.0059   22.0703    3.6724 H         1 RES1    0.0000
     19 C14       21.3434   20.7969    5.0946 C.ar      1 RES1    0.0000
     20 H6        21.5218   21.3680    5.8210 H         1 RES1    0.0000
     21 C15       20.8143   19.5626    5.3245 C.ar      1 RES1    0.0000
     22 H7        20.6349   19.2796    6.2019 H         1 RES1    0.0000
     23 C16       20.5428   18.7289    4.2532 C.ar      1 RES1    0.0000
     24 H8        20.1927   17.8680    4.4021 H         1 RES1    0.0000
     25 C17       20.7902   19.1688    2.9507 C.ar      1 RES1    0.0000
     26 H9        20.5763   18.6113    2.2257 H         1 RES1    0.0000
     27 C18       26.0971   19.6376    3.5898 C.3       1 RES1    0.0000
     28 H10       25.1405   19.6904    3.7430 H         1 RES1    0.0000
     29 H11       26.5588   20.1865    4.2416 H         1 RES1    0.0000
     30 H12       26.3894   18.7153    3.6788 H         1 RES1    0.0000
     31 C19       27.4546   21.5947   -1.7677 C.3       1 RES1    0.0000
     32 H13       26.6618   21.8862   -2.2471 H         1 RES1    0.0000
     33 H14       27.8917   20.8855   -2.2642 H         1 RES1    0.0000
     34 H15       28.0642   22.3431   -1.6671 H         1 RES1    0.0000
     35 C20       24.1164   17.2816    0.3433 C.ar      2 RES2    0.0000
     36 C21       23.1692   17.7316   -0.5203 C.ar      2 RES2    0.0000
     37 H16       22.2674   17.7316   -0.2568 H         2 RES2    0.0000
     38 C22       23.5229   18.2056   -1.8233 C.ar      2 RES2    0.0000
     39 H17       22.8408   18.5209   -2.3883 H         2 RES2    0.0000
     40 C23       24.7893   18.2209   -2.2766 C.ar      2 RES2    0.0000
     41 C24       25.8401   17.7487   -1.4037 C.ar      2 RES2    0.0000
     42 C25       25.4959   17.2884   -0.0683 C.ar      2 RES2    0.0000
     43 C26       26.5323   16.9116    0.7845 C.ar      2 RES2    0.0000
     44 H18       26.3111   16.6150    1.6500 H         2 RES2    0.0000
     45 C27       27.8917   16.9508    0.4205 C.ar      2 RES2    0.0000
     46 C28       28.9291   16.6218    1.3245 C.ar      2 RES2    0.0000
     47 C29       30.2618   16.7122    0.9237 C.ar      2 RES2    0.0000
     48 C30       31.3381   16.3218    1.7728 C.ar      2 RES2    0.0000
     49 H19       31.1289   16.0268    2.6408 H         2 RES2    0.0000
     50 C31       28.5966   16.1956    2.7256 C.ar      2 RES2    0.0000
     51 C32       28.0058   14.9733    2.9781 C.ar      2 RES2    0.0000
     52 H20       27.7897   14.4022    2.2642 H         2 RES2    0.0000
     53 C33       27.7291   14.5846    4.2731 C.ar      2 RES2    0.0000
     54 H21       27.3363   13.7458    4.4299 H         2 RES2    0.0000
     55 C34       28.0165   15.4012    5.3301 C.ar      2 RES2    0.0000
     56 H22       27.8117   15.1352    6.2083 H         2 RES2    0.0000
     57 C35       28.6095   16.6167    5.0931 C.ar      2 RES2    0.0000
     58 H23       28.8203   17.1810    5.8146 H         2 RES2    0.0000
     59 C36       28.8976   17.0122    3.8100 C.ar      2 RES2    0.0000
     60 H24       29.3040   17.8476    3.6617 H         2 RES2    0.0000
     61 C37       23.7241   16.7497    1.7022 C.3       2 RES2    0.0000
     62 H25       24.5177   16.4615    2.1786 H         2 RES2    0.0000
     63 H26       23.1209   15.9995    1.5944 H         2 RES2    0.0000
     64 H27       23.2803   17.4503    2.2086 H         2 RES2    0.0000
     65 C38       25.1213   18.6982   -3.6462 C.3       2 RES2    0.0000
     66 H28       26.0791   18.6301   -3.7901 H         2 RES2    0.0000
     67 H29       24.8448   19.6240   -3.7408 H         2 RES2    0.0000
     68 H30       24.6566   18.1527   -4.3015 H         2 RES2    0.0000
     69 C39       26.5334   12.8815   -0.4171 C.ar      3 RES3    0.0000
     70 C40       25.6572   13.4850    0.4267 C.ar      3 RES3    0.0000
     71 H31       25.2216   14.2692    0.1477 H         3 RES3    0.0000
     72 C41       25.3818   12.9633    1.7191 C.ar      3 RES3    0.0000
     73 H32       24.7565   13.4048    2.2642 H         3 RES3    0.0000
     74 C42       26.0025   11.8364    2.1961 C.ar      3 RES3    0.0000
     75 C43       26.9363   11.1664    1.3399 C.ar      3 RES3    0.0000
     76 C44       27.1964   11.6745    0.0156 C.ar      3 RES3    0.0000
     77 C45       28.0545   10.9602   -0.8190 C.ar      3 RES3    0.0000
     78 H33       28.2255   11.2994   -1.6778 H         3 RES3    0.0000
     79 C46       28.6784    9.7515   -0.4342 C.ar      3 RES3    0.0000
     80 C47       29.4876    9.0030   -1.3279 C.ar      3 RES3    0.0000
     81 C48       30.0573    7.7875   -0.8982 C.ar      3 RES3    0.0000
     82 C49       30.9307    7.0476   -1.7305 C.ar      3 RES3    0.0000
     83 H34       31.0918    7.3681   -2.6002 H         3 RES3    0.0000
     84 C50       29.7642    9.4872   -2.7151 C.ar      3 RES3    0.0000
     85 C51       29.2269    8.8155   -3.8168 C.ar      3 RES3    0.0000
     86 H35       28.6714    8.0705   -3.6831 H         3 RES3    0.0000
     87 C52       29.5079    9.2383   -5.1024 C.ar      3 RES3    0.0000
     88 H36       29.1552    8.7678   -5.8360 H         3 RES3    0.0000
     89 C53       30.2966   10.3413   -5.3191 C.ar      3 RES3    0.0000
     90 H37       30.4814   10.6345   -6.1934 H         3 RES3    0.0000
     91 C54       30.8146   11.0062   -4.2333 C.ar      3 RES3    0.0000
     92 H38       31.3601   11.7597   -4.3700 H         3 RES3    0.0000
     93 C55       30.5446   10.5885   -2.9475 C.ar      3 RES3    0.0000
     94 H39       30.9023   11.0676   -2.2214 H         3 RES3    0.0000
     95 C56       26.7977   13.4696   -1.7752 C.3       3 RES3    0.0000
     96 H40       27.4461   12.9224   -2.2428 H         3 RES3    0.0000
     97 H41       27.1450   14.3698   -1.6757 H         3 RES3    0.0000
     98 H42       25.9727   13.4952   -2.2835 H         3 RES3    0.0000
     99 C57       25.7115   11.3250    3.5681 C.3       3 RES3    0.0000
    100 H43       26.2411   10.5305    3.7366 H         3 RES3    0.0000
    101 H44       24.7697   11.1051    3.6381 H         3 RES3    0.0000
    102 H45       25.9326   12.0069    4.2224 H         3 RES3    0.0000
    103 C58       24.6345    8.4200    0.4839 C.ar      4 RES4    0.0000
    104 C59       25.5146    7.8029   -0.3570 C.ar      4 RES4    0.0000
    105 H46       25.9523    7.0221   -0.0685 H         4 RES4    0.0000
    106 C60       25.7856    8.3092   -1.6521 C.ar      4 RES4    0.0000
    107 H47       26.3970    7.8506   -2.2000 H         4 RES4    0.0000
    108 C61       25.1888    9.4412   -2.1341 C.ar      4 RES4    0.0000
    109 C62       24.2447   10.1282   -1.2915 C.ar      4 RES4    0.0000
    110 C63       23.9768    9.6270    0.0464 C.ar      4 RES4    0.0000
    111 C64       23.1203   10.3618    0.8562 C.ar      4 RES4    0.0000
    112 H48       22.9453   10.0430    1.7228 H         4 RES4    0.0000
    113 C65       22.4963   11.5620    0.4513 C.ar      4 RES4    0.0000
    114 C66       21.6950   12.3087    1.3268 C.ar      4 RES4    0.0000
    115 C67       21.1288   13.5259    0.8824 C.ar      4 RES4    0.0000
    116 C68       20.2361   14.2811    1.7003 C.ar      4 RES4    0.0000
    117 H49       20.0528   13.9657    2.5659 H         4 RES4    0.0000
    118 C69       21.4277   11.8518    2.7098 C.ar      4 RES4    0.0000
    119 C70       20.6015   10.7454    2.9454 C.ar      4 RES4    0.0000
    120 H50       20.2626   10.2561    2.2171 H         4 RES4    0.0000
    121 C71       20.2747   10.3601    4.2450 C.ar      4 RES4    0.0000
    122 H51       19.7089    9.6253    4.3893 H         4 RES4    0.0000
    123 C72       20.7869   11.0642    5.3238 C.ar      4 RES4    0.0000
    124 H52       20.5706   10.8050    6.2019 H         4 RES4    0.0000
    125 C73       21.5994   12.1297    5.1068 C.ar      4 RES4    0.0000
    126 H53       21.9504   12.6036    5.8381 H         4 RES4    0.0000
    127 C74       21.9171   12.5269    3.8108 C.ar      4 RES4    0.0000
    128 H54       22.4763   13.2702    3.6831 H         4 RES4    0.0000
    129 C75       24.3554    7.8284    1.8426 C.3       4 RES4    0.0000
    130 H55       23.7045    8.3791    2.3070 H         4 RES4    0.0000
    131 H56       25.1787    7.7961    2.3562 H         4 RES4    0.0000
    132 H57       24.0040    6.9317    1.7377 H         4 RES4    0.0000
    133 C76       25.5033    9.9305   -3.5106 C.3       4 RES4    0.0000
    134 H58       24.9986   10.7385   -3.6895 H         4 RES4    0.0000
    135 H59       25.2619    9.2485   -4.1582 H         4 RES4    0.0000
    136 H60       26.4536   10.1197   -3.5782 H         4 RES4    0.0000
    137 C1F       17.4657   22.4948   -2.2180 C.ar      1 RES1    0.0000
    138 C2F       16.1849   22.4659   -1.7587 C.ar      1 RES1    0.0000
    139 H1F       15.4938   22.7642   -2.3198 H         1 RES1    0.0000
    140 C3F       15.8548   21.9919   -0.4406 C.ar      1 RES1    0.0000
    141 H2F       14.9566   21.9987   -0.1605 H         1 RES1    0.0000
    142 C4F       16.8138   21.5316    0.4124 C.ar      1 RES1    0.0000
    143 C5F       18.1837   21.5487   -0.0126 C.ar      1 RES1    0.0000
    144 C6F       18.5044   22.0192   -1.3527 C.ar      1 RES1    0.0000
    145 C7F       19.8303   22.0414   -1.7416 C.ar      1 RES1    0.0000
    146 H3F       20.0287   22.3363   -2.6130 H         1 RES1    0.0000
    147 C8F       20.9152   21.6476   -0.9065 C.ar      1 RES1    0.0000
    148 C9F       22.2347   21.7498   -1.3294 C.ar      1 RES1    0.0000
    149 C10F      23.2856   21.4164   -0.4379 C.ar      1 RES1    0.0000
    150 C11F      24.6511   21.4447   -0.8209 C.ar      1 RES1    0.0000
    151 H4F       24.8637   21.7362   -1.6907 H         1 RES1    0.0000
    152 C12F      22.5266   22.1999   -2.7104 C.ar      1 RES1    0.0000
    153 C13F      22.2505   21.3969   -3.8050 C.ar      1 RES1    0.0000
    154 H5F       21.8676   20.5497   -3.6724 H         1 RES1    0.0000
    155 C14F      22.5301   21.8231   -5.0946 C.ar      1 RES1    0.0000
    156 H6F       22.3517   21.2520   -5.8210 H         1 RES1    0.0000
    157 C15F      23.0592   23.0574   -5.3245 C.ar      1 RES1    0.0000
    158 H7F       23.2386   23.3404   -6.2019 H         1 RES1    0.0000
    159 C16F      23.3307   23.8911   -4.2532 C.ar      1 RES1    0.0000
    160 H8F       23.6808   24.7520   -4.4021 H         1 RES1    0.0000
    161 C17F      23.0833   23.4512   -2.9507 C.ar      1 RES1    0.0000
    162 H9F       23.2972   24.0087   -2.2257 H         1 RES1    0.0000
    163 C18F      17.7764   22.9824   -3.5898 C.3       1 RES1    0.0000
    164 H10F      18.7330   22.9296   -3.7430 H         1 RES1    0.0000
    165 H11F      17.3147   22.4335   -4.2416 H         1 RES1    0.0000
    166 H12F      17.4841   23.9047   -3.6788 H         1 RES1    0.0000
    167 C19F      16.4189   21.0253    1.7677 C.3       1 RES1    0.0000
    168 H13F      17.2117   20.7338    2.2471 H         1 RES1    0.0000
    169 H14F      15.9818   21.7345    2.2642 H         1 RES1    0.0000
    170 H15F      15.8093   20.2769    1.6671 H         1 RES1    0.0000
    171 C20D      34.3816   16.8144   -0.3433 C.ar      2 RES2    0.0000
    172 C21D      35.3288   16.3644    0.5203 C.ar      2 RES2    0.0000
    173 H16D      36.2306   16.3644    0.2568 H         2 RES2    0.0000
    174 C22D      34.9751   15.8904    1.8233 C.ar      2 RES2    0.0000
    175 H17D      35.6572   15.5751    2.3883 H         2 RES2    0.0000
    176 C23D      33.7087   15.8751    2.2766 C.ar      2 RES2    0.0000
    177 C24D      32.6579   16.3473    1.4037 C.ar      2 RES2    0.0000
    178 C25D      33.0021   16.8076    0.0683 C.ar      2 RES2    0.0000
    179 C26D      31.9657   17.1844   -0.7845 C.ar      2 RES2    0.0000
    180 H18D      32.1869   17.4810   -1.6500 H         2 RES2    0.0000
    181 C27D      30.6063   17.1452   -0.4205 C.ar      2 RES2    0.0000
    182 C28D      29.5689   17.4742   -1.3245 C.ar      2 RES2    0.0000
    183 C29D      28.2362   17.3838   -0.9237 C.ar      2 RES2    0.0000
    184 C30D      27.1599   17.7742   -1.7728 C.ar      2 RES2    0.0000
    185 H19D      27.3691   18.0692   -2.6408 H         2 RES2    0.0000
    186 C31D      29.9014   17.9004   -2.7256 C.ar      2 RES2    0.0000
    187 C32D      30.4922   19.1227   -2.9781 C.ar      2 RES2    0.0000
    188 H20D      30.7083   19.6938   -2.2642 H         2 RES2    0.0000
    189 C33D      30.7689   19.5114   -4.2731 C.ar      2 RES2    0.0000
    190 H21D      31.1617   20.3502   -4.4299 H         2 RES2    0.0000
    191 C34D      30.4815   18.6948   -5.3301 C.ar      2 RES2    0.0000
    192 H22D      30.6863   18.9608   -6.2083 H         2 RES2    0.0000
    193 C35D      29.8885   17.4793   -5.0931 C.ar      2 RES2    0.0000
    194 H23D      29.6777   16.9150   -5.8146 H         2 RES2    0.0000
    195 C36D      29.6004   17.0838   -3.8100 C.ar      2 RES2    0.0000
    196 H24D      29.1940   16.2484   -3.6617 H         2 RES2    0.0000
    197 C37D      34.7739   17.3463   -1.7022 C.3       2 RES2    0.0000
    198 H25D      33.9803   17.6345   -2.1786 H         2 RES2    0.0000
    199 H26D      35.3771   18.0965   -1.5944 H         2 RES2    0.0000
    200 H27D      35.2177   16.6457   -2.2086 H         2 RES2    0.0000
    201 C38D      33.3767   15.3978    3.6462 C.3       2 RES2    0.0000
    202 H28D      32.4189   15.4659    3.7901 H         2 RES2    0.0000
    203 H29D      33.6532   14.4720    3.7408 H         2 RES2    0.0000
    204 H30D      33.8414   15.9433    4.3015 H         2 RES2    0.0000
    205 C39D      31.9646    4.1665    0.4171 C.ar      3 RES3    0.0000
    206 C40D      32.8408    3.5630   -0.4267 C.ar      3 RES3    0.0000
    207 H31D      33.2764    2.7788   -0.1477 H         3 RES3    0.0000
    208 C41D      33.1162    4.0847   -1.7191 C.ar      3 RES3    0.0000
    209 H32D      33.7415    3.6432   -2.2642 H         3 RES3    0.0000
    210 C42D      32.4955    5.2116   -2.1961 C.ar      3 RES3    0.0000
    211 C43D      31.5617    5.8816   -1.3399 C.ar      3 RES3    0.0000
    212 C44D      31.3016    5.3735   -0.0156 C.ar      3 RES3    0.0000
    213 C45D      30.4435    6.0878    0.8190 C.ar      3 RES3    0.0000
    214 H33D      30.2725    5.7486    1.6778 H         3 RES3    0.0000
    215 C46D      29.8196    7.2965    0.4342 C.ar      3 RES3    0.0000
    216 C47D      29.0104    8.0450    1.3279 C.ar      3 RES3    0.0000
    217 C48D      28.4407    9.2605    0.8982 C.ar      3 RES3    0.0000
    218 C49D      27.5673   10.0004    1.7305 C.ar      3 RES3    0.0000
    219 H34D      27.4062    9.6799    2.6002 H         3 RES3    0.0000
    220 C50D      28.7338    7.5608    2.7151 C.ar      3 RES3    0.0000
    221 C51D      29.2711    8.2325    3.8168 C.ar      3 RES3    0.0000
    222 H35D      29.8266    8.9775    3.6831 H         3 RES3    0.0000
    223 C52D      28.9901    7.8097    5.1024 C.ar      3 RES3    0.0000
    224 H36D      29.3428    8.2802    5.8360 H         3 RES3    0.0000
    225 C53D      28.2014    6.7067    5.3191 C.ar      3 RES3    0.0000
    226 H37D      28.0166    6.4135    6.1934 H         3 RES3    0.0000
    227 C54D      27.6834    6.0418    4.2333 C.ar      3 RES3    0.0000
    228 H38D      27.1379    5.2883    4.3700 H         3 RES3    0.0000
    229 C55D      27.9534    6.4595    2.9475 C.ar      3 RES3    0.0000
    230 H39D      27.5957    5.9804    2.2214 H         3 RES3    0.0000
    231 C56D      31.7003    3.5784    1.7752 C.3       3 RES3    0.0000
    232 H40D      31.0519    4.1256    2.2428 H         3 RES3    0.0000
    233 H41D      31.3530    2.6782    1.6757 H         3 RES3    0.0000
    234 H42D      32.5253    3.5528    2.2835 H         3 RES3    0.0000
    235 C57D      32.7865    5.7230   -3.5681 C.3       3 RES3    0.0000
    236 H43D      32.2569    6.5175   -3.7366 H         3 RES3    0.0000
    237 H44D      33.7283    5.9429   -3.6381 H         3 RES3    0.0000
    238 H45D      32.5654    5.0411   -4.2224 H         3 RES3    0.0000
    239 C58F      19.2390   17.1520   -0.4839 C.ar      4 RES4    0.0000
    240 C59F      18.3589   17.7691    0.3570 C.ar      4 RES4    0.0000
    241 H46F      17.9212   18.5499    0.0685 H         4 RES4    0.0000
    242 C60F      18.0879   17.2628    1.6521 C.ar      4 RES4    0.0000
    243 H47F      17.4765   17.7214    2.2000 H         4 RES4    0.0000
    244 C61F      18.6847   16.1308    2.1341 C.ar      4 RES4    0.0000
    245 C62F      19.6288   15.4438    1.2915 C.ar      4 RES4    0.0000
    246 C63F      19.8967   15.9450   -0.0464 C.ar      4 RES4    0.0000
    247 C64F      20.7532   15.2102   -0.8562 C.ar      4 RES4    0.0000
    248 H48F      20.9282   15.5290   -1.7228 H         4 RES4    0.0000
    249 C65F      21.3772   14.0100   -0.4513 C.ar      4 RES4    0.0000
    250 C66F      22.1785   13.2633   -1.3268 C.ar      4 RES4    0.0000
    251 C67F      22.7447   12.0461   -0.8824 C.ar      4 RES4    0.0000
    252 C68F      23.6374   11.2909   -1.7003 C.ar      4 RES4    0.0000
    253 H49F      23.8207   11.6063   -2.5659 H         4 RES4    0.0000
    254 C69F      22.4458   13.7202   -2.7098 C.ar      4 RES4    0.0000
    255 C70F      23.2720   14.8266   -2.9454 C.ar      4 RES4    0.0000
    256 H50F      23.6109   15.3159   -2.2171 H         4 RES4    0.0000
    257 C71F      23.5988   15.2119   -4.2450 C.ar      4 RES4    0.0000
    258 H51F      24.1646   15.9467   -4.3893 H         4 RES4    0.0000
    259 C72F      23.0866   14.5078   -5.3238 C.ar      4 RES4    0.0000
    260 H52F      23.3029   14.7670   -6.2019 H         4 RES4    0.0000
    261 C73F      22.2741   13.4423   -5.1068 C.ar      4 RES4    0.0000
    262 H53F      21.9231   12.9684   -5.8381 H         4 RES4    0.0000
    263 C74F      21.9564   13.0451   -3.8108 C.ar      4 RES4    0.0000
    264 H54F      21.3972   12.3018   -3.6831 H         4 RES4    0.0000
    265 C75F      19.5181   17.7436   -1.8426 C.3       4 RES4    0.0000
    266 H55F      20.1690   17.1929   -2.3070 H         4 RES4    0.0000
    267 H56F      18.6948   17.7759   -2.3562 H         4 RES4    0.0000
    268 H57F      19.8695   18.6403   -1.7377 H         4 RES4    0.0000
    269 C76F      18.3702   15.6415    3.5106 C.3       4 RES4    0.0000
    270 H58F      18.8749   14.8335    3.6895 H         4 RES4    0.0000
    271 H59F      18.6116   16.3235    4.1582 H         4 RES4    0.0000
    272 H60F      17.4199   15.4523    3.5782 H         4 RES4    0.0000
@<TRIPOS>BOND
     1    1    2 ar
     2    2    3 1
     3    4    2 ar
     4    5    4 1
     5    6    4 ar
     6    7    6 ar
     7    8    1 ar
     8    9    8 ar
     9   10    9 1
    10   11    9 ar
    11   12   11 ar
    12   13   12 ar
    13   14   13 ar
    14   15   14 1
    15   16   12 1
    16   17   16 ar
    17   18   17 1
    18   19   17 ar
    19   20   19 1
    20   21   19 ar
    21   22   21 1
    22   23   21 ar
    23   24   23 1
    24   25   16 ar
    25   26   25 1
    26   27    1 1
    27   28   27 1
    28   29   27 1
    29   30   27 1
    30   31    6 1
    31   32   31 1
    32   33   31 1
    33   34   31 1
    34   35   36 ar
    35   36   37 1
    36   38   36 ar
    37   39   38 1
    38   40   38 ar
    39   41   40 ar
    40   42   35 ar
    41   43   42 ar
    42   44   43 1
    43   45   43 ar
    44   46   45 ar
    45   47   46 ar
    46   48   47 ar
    47   49   48 1
    48   50   46 1
    49   51   50 ar
    50   52   51 1
    51   53   51 ar
    52   54   53 1
    53   55   53 ar
    54   56   55 1
    55   57   55 ar
    56   58   57 1
    57   59   50 ar
    58   60   59 1
    59   61   35 1
    60   62   61 1
    61   63   61 1
    62   64   61 1
    63   65   40 1
    64   66   65 1
    65   67   65 1
    66   68   65 1
    67   69   70 ar
    68   70   71 1
    69   72   70 ar
    70   73   72 1
    71   74   72 ar
    72   75   74 ar
    73   76   69 ar
    74   77   76 ar
    75   78   77 1
    76   79   77 ar
    77   80   79 ar
    78   81   80 ar
    79   82   81 ar
    80   83   82 1
    81   84   80 1
    82   85   84 ar
    83   86   85 1
    84   87   85 ar
    85   88   87 1
    86   89   87 ar
    87   90   89 1
    88   91   89 ar
    89   92   91 1
    90   93   84 ar
    91   94   93 1
    92   95   69 1
    93   96   95 1
    94   97   95 1
    95   98   95 1
    96   99   74 1
    97  100   99 1
    98  101   99 1
    99  102   99 1
   100  103  104 ar
   101  104  105 1
   102  106  104 ar
   103  107  106 1
   104  108  106 ar
   105  109  108 ar
   106  110  103 ar
   107  111  110 ar
   108  112  111 1
   109  113  111 ar
   110  114  113 ar
   111  115  114 ar
   112  116  115 ar
   113  117  116 1
   114  118  114 1
   115  119  118 ar
   116  120  119 1
   117  121  119 ar
   118  122  121 1
   119  123  121 ar
   120  124  123 1
   121  125  123 ar
   122  126  125 1
   123  127  118 ar
   124  128  127 1
   125  129  103 1
   126  130  129 1
   127  131  129 1
   128  132  129 1
   129  133  108 1
   130  134  133 1
   131  135  133 1
   132  136  133 1
   133  137  138 ar
   134  138  139 1
   135  140  138 ar
   136  141  140 1
   137  142  140 ar
   138  143   14 ar
   139  144  137 ar
   140  145  144 ar
   141  146  145 1
   142  147   13 ar
   143  148  147 ar
   144  149   11 ar
   145  150    7 ar
   146  151  150 1
   147  152  148 1
   148  153  152 ar
   149  154  153 1
   150  155  153 ar
   151  156  155 1
   152  157  155 ar
   153  158  157 1
   154  159  157 ar
   155  160  159 1
   156  161  152 ar
   157  162  161 1
   158  163  137 1
   159  164  163 1
   160  165  163 1
   161  166  163 1
   162  167  142 1
   163  168  167 1
   164  169  167 1
   165  170  167 1
   166  171  172 ar
   167  172  173 1
   168  174  172 ar
   169  175  174 1
   170  176  174 ar
   171  177   48 ar
   172  178  171 ar
   173  179  178 ar
   174  180  179 1
   175  181   47 ar
   176  182  181 ar
   177  183   45 ar
   178  184   41 ar
   179  185  184 1
   180  186  182 1
   181  187  186 ar
   182  188  187 1
   183  189  187 ar
   184  190  189 1
   185  191  189 ar
   186  192  191 1
   187  193  191 ar
   188  194  193 1
   189  195  186 ar
   190  196  195 1
   191  197  171 1
   192  198  197 1
   193  199  197 1
   194  200  197 1
   195  201  176 1
   196  202  201 1
   197  203  201 1
   198  204  201 1
   199  205  206 ar
   200  206  207 1
   201  208  206 ar
   202  209  208 1
   203  210  208 ar
   204  211   82 ar
   205  212  205 ar
   206  213  212 ar
   207  214  213 1
   208  215   81 ar
   209  216  215 ar
   210  217   79 ar
   211  218   75 ar
   212  219  218 1
   213  220  216 1
   214  221  220 ar
   215  222  221 1
   216  223  221 ar
   217  224  223 1
   218  225  223 ar
   219  226  225 1
   220  227  225 ar
   221  228  227 1
   222  229  220 ar
   223  230  229 1
   224  231  205 1
   225  232  231 1
   226  233  231 1
   227  234  231 1
   228  235  210 1
   229  236  235 1
   230  237  235 1
   231  238  235 1
   232  239  240 ar
   233  240  241 1
   234  242  240 ar
   235  243  242 1
   236  244  242 ar
   237  245  116 ar
   238  246  239 ar
   239  247  246 ar
   240  248  247 1
   241  249  115 ar
   242  250  249 ar
   243  251  113 ar
   244  252  109 ar
   245  253  252 1
   246  254  250 1
   247  255  254 ar
   248  256  255 1
   249  257  255 ar
   250  258  257 1
   251  259  257 ar
   252  260  259 1
   253  261  259 ar
   254  262  261 1
   255  263  254 ar
   256  264  263 1
   257  265  239 1
   258  266  265 1
   259  267  265 1
   260  268  265 1
   261  269  244 1
   262  270  269 1
   263  271  269 1
   264  272  269 1
   265    7    8 ar
   266   23   25 ar
   267   41   42 ar
   268   57   59 ar
   269   75   76 ar
   270   91   93 ar
   271  109  110 ar
   272  125  127 ar
   273  142  143 ar
   274  143  144 ar
   275  145  147 ar
   276  148  149 ar
   277  149  150 ar
   278  159  161 ar
   279  176  177 ar
   280  177  178 ar
   281  179  181 ar
   282  182  183 ar
   283  183  184 ar
   284  193  195 ar
   285  210  211 ar
   286  211  212 ar
   287  213  215 ar
   288  216  217 ar
   289  217  218 ar
   290  227  229 ar
   291  244  245 ar
   292  245  246 ar
   293  247  249 ar
   294  250  251 ar
   295  251  252 ar
   296  261  263 ar
@<TRIPOS>SUBSTRUCTURE
     1 RES1 1
     2 RES2 35
     3 RES3 69
     4 RES4 103

@<TRIPOS>CRYSIN
  29.2490   17.0480   24.8790  90.0000 120.6620  90.0000  15 1

