# MOL2 file generated by ConQuest
# Please check atom types

@<TRIPOS>MOLECULE
IQOXIX
   176   196     4
SMALL
NO_CHARGES
****
Generated from CSD

@<TRIPOS>ATOM
      1 C1         5.1494    3.6648   -0.6418 C.ar      1 RES1    0.0000
      2 C2         5.6977    2.4763   -1.1553 C.ar      1 RES1    0.0000
      3 H1         5.5194    2.2343   -2.0561 H         1 RES1    0.0000
      4 C3         6.4831    1.6597   -0.3828 C.ar      1 RES1    0.0000
      5 H2         6.8423    0.8616   -0.7522 H         1 RES1    0.0000
      6 C4         6.7525    1.9881    0.9278 C.ar      1 RES1    0.0000
      7 H3         7.2782    1.4055    1.4638 H         1 RES1    0.0000
      8 C5         6.2566    3.1738    1.4683 C.ar      1 RES1    0.0000
      9 H4         6.4680    3.4019    2.3669 H         1 RES1    0.0000
     10 C6         5.4552    4.0311    0.7139 C.ar      1 RES1    0.0000
     11 C7         4.9287    5.2783    1.2611 C.ar      1 RES1    0.0000
     12 C8         5.2213    5.6632    2.5538 C.ar      1 RES1    0.0000
     13 H5         5.7808    5.1015    3.0786 H         1 RES1    0.0000
     14 C9         4.7341    6.8377    3.1213 C.ar      1 RES1    0.0000
     15 C10        5.0590    7.2256    4.5244 C.3       1 RES1    0.0000
     16 H6         5.9070    6.7907    4.7946 H         1 RES1    0.0000
     17 H7         4.3446    6.8963    5.1279 H         1 RES1    0.0000
     18 C11        5.1927    8.7074    4.6843 C.ar      1 RES1    0.0000
     19 C12        6.1253    9.2952    5.5536 C.ar      1 RES1    0.0000
     20 H8         6.6913    8.7401    6.0760 H         1 RES1    0.0000
     21 C13        6.2318   10.6673    5.6594 C.ar      1 RES1    0.0000
     22 H9         6.8606   11.0492    6.2607 H         1 RES1    0.0000
     23 C14        5.4326   11.4735    4.9005 C.ar      1 RES1    0.0000
     24 H10        5.5077   12.4167    4.9838 H         1 RES1    0.0000
     25 C15        4.5011   10.9360    3.9974 C.ar      1 RES1    0.0000
     26 H11        3.9692   11.5087    3.4569 H         1 RES1    0.0000
     27 C16        4.3644    9.5528    3.9028 C.ar      1 RES1    0.0000
     28 C17        3.3764    8.9210    2.9524 C.3       1 RES1    0.0000
     29 H12        2.5411    8.7147    3.4411 H         1 RES1    0.0000
     30 H13        3.1580    9.5673    2.2340 H         1 RES1    0.0000
     31 C18        3.9092    7.6636    2.3354 C.ar      1 RES1    0.0000
     32 C19        3.6374    7.3168    1.0359 C.ar      1 RES1    0.0000
     33 H14        3.0874    7.8914    0.5180 H         1 RES1    0.0000
     34 C20        4.1397    6.1472    0.4369 C.ar      1 RES1    0.0000
     35 C21        3.8914    5.7777   -0.9616 C.ar      1 RES1    0.0000
     36 C22        3.2273    6.6891   -1.8219 C.ar      1 RES1    0.0000
     37 H15        2.9747    7.5440   -1.4931 H         1 RES1    0.0000
     38 C23        2.9500    6.3595   -3.1123 C.ar      1 RES1    0.0000
     39 H16        2.4971    6.9769   -3.6776 H         1 RES1    0.0000
     40 C24        3.3332    5.1105   -3.6055 C.ar      1 RES1    0.0000
     41 H17        3.1333    4.8685   -4.5019 H         1 RES1    0.0000
     42 C25        3.9985    4.2293   -2.7858 C.ar      1 RES1    0.0000
     43 H18        4.2402    3.3758   -3.1258 H         1 RES1    0.0000
     44 C26        4.3313    4.5531   -1.4661 C.ar      1 RES1    0.0000
     45 C27        5.2463    7.8488   12.5574 C.ar      2 RES2    0.0000
     46 C28        5.6425    7.6160   13.8929 C.ar      2 RES2    0.0000
     47 H19        6.4908    7.9182   14.1947 H         2 RES2    0.0000
     48 C29        4.8065    6.9570   14.7577 C.ar      2 RES2    0.0000
     49 H20        5.0798    6.8139   15.6563 H         2 RES2    0.0000
     50 C30        3.5661    6.4949   14.3366 C.ar      2 RES2    0.0000
     51 H21        2.9902    6.0495   14.9491 H         2 RES2    0.0000
     52 C31        3.1753    6.6837   13.0439 C.ar      2 RES2    0.0000
     53 H22        2.3264    6.3609   12.7624 H         2 RES2    0.0000
     54 C32        4.0104    7.3543   12.1093 C.ar      2 RES2    0.0000
     55 C33        3.5652    7.5690   10.7536 C.ar      2 RES2    0.0000
     56 C34        2.3469    7.0727   10.2513 C.ar      2 RES2    0.0000
     57 H23        1.8006    6.5452   10.8211 H         2 RES2    0.0000
     58 C35        1.9094    7.3202    8.9564 C.ar      2 RES2    0.0000
     59 C36        0.5609    6.8335    8.4857 C.3       2 RES2    0.0000
     60 H24       -0.0291    6.6914    9.2672 H         2 RES2    0.0000
     61 H25        0.6691    5.9644    8.0218 H         2 RES2    0.0000
     62 C37       -0.0906    7.8287    7.5376 C.ar      2 RES2    0.0000
     63 C38       -1.4817    8.0767    7.5759 C.ar      2 RES2    0.0000
     64 H26       -2.0322    7.6165    8.1997 H         2 RES2    0.0000
     65 C39       -2.0394    8.9895    6.7044 C.ar      2 RES2    0.0000
     66 H27       -2.9773    9.1371    6.7111 H         2 RES2    0.0000
     67 C40       -1.2442    9.6916    5.8216 C.ar      2 RES2    0.0000
     68 H28       -1.6366   10.3112    5.2158 H         2 RES2    0.0000
     69 C41        0.1368    9.4896    5.8193 C.ar      2 RES2    0.0000
     70 H29        0.6842    9.9908    5.2270 H         2 RES2    0.0000
     71 C42        0.7215    8.5618    6.6773 C.ar      2 RES2    0.0000
     72 C43        2.2057    8.3085    6.7021 C.3       2 RES2    0.0000
     73 H30        2.4099    7.5123    6.1504 H         2 RES2    0.0000
     74 H31        2.6762    9.0835    6.3012 H         2 RES2    0.0000
     75 C44        2.7127    8.0883    8.0916 C.ar      2 RES2    0.0000
     76 C45        3.9162    8.5767    8.5555 C.ar      2 RES2    0.0000
     77 H32        4.4583    9.0883    7.9655 H         2 RES2    0.0000
     78 C46        4.3729    8.3494    9.8572 C.ar      2 RES2    0.0000
     79 C47        5.6470    8.9045   10.3414 C.ar      2 RES2    0.0000
     80 C48        6.4585    9.7053    9.5127 C.ar      2 RES2    0.0000
     81 H33        6.1719    9.8833    8.6254 H         2 RES2    0.0000
     82 C49        7.6362   10.2330    9.9383 C.ar      2 RES2    0.0000
     83 H34        8.1587   10.7709    9.3550 H         2 RES2    0.0000
     84 C50        8.0708    9.9776   11.2355 C.ar      2 RES2    0.0000
     85 H35        8.8869   10.3505   11.5463 H         2 RES2    0.0000
     86 C51        7.3126    9.1814   12.0755 C.ar      2 RES2    0.0000
     87 H36        7.6176    9.0026   12.9561 H         2 RES2    0.0000
     88 C52        6.0891    8.6313   11.6319 C.ar      2 RES2    0.0000
     89 C53       11.1956    5.0547   12.7218 C.ar      3 RES3    0.0000
     90 C54       11.5356    5.3132   14.0821 C.ar      3 RES3    0.0000
     91 H37       12.3842    5.0365   14.4064 H         3 RES3    0.0000
     92 C55       10.6673    5.9505   14.9424 C.ar      3 RES3    0.0000
     93 H38       10.9244    6.1420   15.8364 H         3 RES3    0.0000
     94 C56        9.3864    6.3155   14.4649 C.ar      3 RES3    0.0000
     95 H39        8.7436    6.6755   15.0662 H         3 RES3    0.0000
     96 C57        9.0710    6.1532   13.1542 C.ar      3 RES3    0.0000
     97 H40        8.2309    6.4672   12.8412 H         3 RES3    0.0000
     98 C58        9.9524    5.5304   12.2377 C.ar      3 RES3    0.0000
     99 C59        9.5951    5.3331   10.8391 C.ar      3 RES3    0.0000
    100 C60        8.3873    5.8420   10.2964 C.ar      3 RES3    0.0000
    101 H41        7.8164    6.3541   10.8549 H         3 RES3    0.0000
    102 C61        8.0149    5.6270    9.0037 C.ar      3 RES3    0.0000
    103 C62        6.7040    6.1259    8.4677 C.3       3 RES3    0.0000
    104 H42        6.8481    6.9923    8.0083 H         3 RES3    0.0000
    105 H43        6.0802    6.2806    9.2199 H         3 RES3    0.0000
    106 C63        6.0825    5.1510    7.5016 C.ar      3 RES3    0.0000
    107 C64        4.6707    4.9803    7.4385 C.ar      3 RES3    0.0000
    108 H44        4.1043    5.5056    7.9925 H         3 RES3    0.0000
    109 C65        4.1301    4.0705    6.5873 C.ar      3 RES3    0.0000
    110 H45        3.1895    3.9443    6.5670 H         3 RES3    0.0000
    111 C66        4.9412    3.3255    5.7517 C.ar      3 RES3    0.0000
    112 H46        4.5527    2.6992    5.1527 H         3 RES3    0.0000
    113 C67        6.3202    3.4859    5.7810 C.ar      3 RES3    0.0000
    114 H47        6.8719    2.9708    5.2045 H         3 RES3    0.0000
    115 C68        6.8936    4.4060    6.6661 C.ar      3 RES3    0.0000
    116 C69        8.3882    4.6291    6.7381 C.3       3 RES3    0.0000
    117 H48        8.8563    3.8383    6.3688 H         3 RES3    0.0000
    118 H49        8.6305    5.4142    6.1864 H         3 RES3    0.0000
    119 C70        8.8388    4.8587    8.1592 C.ar      3 RES3    0.0000
    120 C71       10.0184    4.3595    8.6862 C.ar      3 RES3    0.0000
    121 H50       10.5753    3.8334    8.1254 H         3 RES3    0.0000
    122 C72       10.4291    4.5895    9.9924 C.ar      3 RES3    0.0000
    123 C73       11.6940    4.0497   10.5171 C.ar      3 RES3    0.0000
    124 C74       12.5584    3.2848    9.7041 C.ar      3 RES3    0.0000
    125 H51       12.3217    3.1214    8.7988 H         3 RES3    0.0000
    126 C75       13.7328    2.7740   10.1928 C.ar      3 RES3    0.0000
    127 H52       14.2989    2.2658    9.6230 H         3 RES3    0.0000
    128 C76       14.0932    2.9927   11.4855 C.ar      3 RES3    0.0000
    129 H53       14.8928    2.6130   11.8300 H         3 RES3    0.0000
    130 C77       13.2893    3.7697   12.2985 C.ar      3 RES3    0.0000
    131 H54       13.5545    3.9389   13.1948 H         3 RES3    0.0000
    132 C78       12.0890    4.3137   11.8233 C.ar      3 RES3    0.0000
    133 C79        5.6799    8.3900   23.9326 C.ar      4 RES4    0.0000
    134 C80        5.4238    8.7961   25.2275 C.ar      4 RES4    0.0000
    135 H55        5.7179    9.6544   25.5112 H         4 RES4    0.0000
    136 C81        4.7440    7.9776   26.1261 C.ar      4 RES4    0.0000
    137 H56        4.5859    8.2720   27.0156 H         4 RES4    0.0000
    138 C82        4.2993    6.7263   25.7139 C.ar      4 RES4    0.0000
    139 H57        3.8251    6.1647   26.3152 H         4 RES4    0.0000
    140 C83        4.5492    6.3111   24.4370 C.ar      4 RES4    0.0000
    141 H58        4.2788    5.4385   24.1780 H         4 RES4    0.0000
    142 C84        5.1973    7.1344   23.4822 C.ar      4 RES4    0.0000
    143 C85        5.3944    6.6815   22.1287 C.ar      4 RES4    0.0000
    144 C86        4.9194    5.4614   21.6310 C.ar      4 RES4    0.0000
    145 H59        4.4180    4.9010   22.2120 H         4 RES4    0.0000
    146 C87        5.1383    5.0428   20.3631 C.ar      4 RES4    0.0000
    147 C88        4.6589    3.6842   19.8924 C.3       4 RES4    0.0000
    148 H60        4.5640    3.0849   20.6738 H         4 RES4    0.0000
    149 H61        3.7670    3.7825   19.4757 H         4 RES4    0.0000
    150 C89        5.5989    3.0516   18.8992 C.ar      4 RES4    0.0000
    151 C90        5.8255    1.6735   18.9060 C.ar      4 RES4    0.0000
    152 H62        5.3677    1.1136   19.5208 H         4 RES4    0.0000
    153 C91        6.7427    1.1242   17.9916 C.ar      4 RES4    0.0000
    154 H63        6.8872    0.1849   17.9736 H         4 RES4    0.0000
    155 C92        7.4251    1.9359   17.1269 C.ar      4 RES4    0.0000
    156 H64        8.0640    1.5585   16.5323 H         4 RES4    0.0000
    157 C93        7.1972    3.3033   17.1088 C.ar      4 RES4    0.0000
    158 H65        7.6579    3.8494   16.4805 H         4 RES4    0.0000
    159 C94        6.3101    3.8800   17.9894 C.ar      4 RES4    0.0000
    160 C95        6.0497    5.3591   18.0682 C.3       4 RES4    0.0000
    161 H66        6.8169    5.8432   17.6719 H         4 RES4    0.0000
    162 H67        5.2464    5.5735   17.5300 H         4 RES4    0.0000
    163 C96        5.8418    5.8332   19.4555 C.ar      4 RES4    0.0000
    164 C97        6.3532    7.0556   19.9126 C.ar      4 RES4    0.0000
    165 H68        6.8616    7.5907   19.3159 H         4 RES4    0.0000
    166 C98        6.1414    7.5145   21.2098 C.ar      4 RES4    0.0000
    167 C99        6.6867    8.7743   21.6783 C.ar      4 RES4    0.0000
    168 C100       7.4692    9.6100   20.8202 C.ar      4 RES4    0.0000
    169 H69        7.6319    9.3360   19.9262 H         4 RES4    0.0000
    170 C101       7.9883   10.7992   21.2639 C.ar      4 RES4    0.0000
    171 H70        8.4969   11.3405   20.6716 H         4 RES4    0.0000
    172 C102       7.7766   11.2167   22.5723 C.ar      4 RES4    0.0000
    173 H71        8.1622   12.0291   22.8809 H         4 RES4    0.0000
    174 C103       7.0034   10.4524   23.4258 C.ar      4 RES4    0.0000
    175 H72        6.8450   10.7576   24.3109 H         4 RES4    0.0000
    176 C104       6.4457    9.2215   23.0047 C.ar      4 RES4    0.0000
@<TRIPOS>BOND
     1    1    2 ar
     2    2    3 1
     3    4    2 ar
     4    5    4 1
     5    6    4 ar
     6    7    6 1
     7    8    6 ar
     8    9    8 1
     9   10    1 ar
    10   11   10 ar
    11   12   11 ar
    12   13   12 1
    13   14   12 ar
    14   15   14 1
    15   16   15 1
    16   17   15 1
    17   18   15 1
    18   19   18 ar
    19   20   19 1
    20   21   19 ar
    21   22   21 1
    22   23   21 ar
    23   24   23 1
    24   25   23 ar
    25   26   25 1
    26   27   18 ar
    27   28   27 1
    28   29   28 1
    29   30   28 1
    30   31   14 ar
    31   32   31 ar
    32   33   32 1
    33   34   11 ar
    34   35   34 ar
    35   36   35 ar
    36   37   36 1
    37   38   36 ar
    38   39   38 1
    39   40   38 ar
    40   41   40 1
    41   42   40 ar
    42   43   42 1
    43   44    1 ar
    44   45   46 ar
    45   46   47 1
    46   48   46 ar
    47   49   48 1
    48   50   48 ar
    49   51   50 1
    50   52   50 ar
    51   53   52 1
    52   54   45 ar
    53   55   54 ar
    54   56   55 ar
    55   57   56 1
    56   58   56 ar
    57   59   58 1
    58   60   59 1
    59   61   59 1
    60   62   59 1
    61   63   62 ar
    62   64   63 1
    63   65   63 ar
    64   66   65 1
    65   67   65 ar
    66   68   67 1
    67   69   67 ar
    68   70   69 1
    69   71   62 ar
    70   72   71 1
    71   73   72 1
    72   74   72 1
    73   75   58 ar
    74   76   75 ar
    75   77   76 1
    76   78   55 ar
    77   79   78 ar
    78   80   79 ar
    79   81   80 1
    80   82   80 ar
    81   83   82 1
    82   84   82 ar
    83   85   84 1
    84   86   84 ar
    85   87   86 1
    86   88   45 ar
    87   89   90 ar
    88   90   91 1
    89   92   90 ar
    90   93   92 1
    91   94   92 ar
    92   95   94 1
    93   96   94 ar
    94   97   96 1
    95   98   89 ar
    96   99   98 ar
    97  100   99 ar
    98  101  100 1
    99  102  100 ar
   100  103  102 1
   101  104  103 1
   102  105  103 1
   103  106  103 1
   104  107  106 ar
   105  108  107 1
   106  109  107 ar
   107  110  109 1
   108  111  109 ar
   109  112  111 1
   110  113  111 ar
   111  114  113 1
   112  115  106 ar
   113  116  115 1
   114  117  116 1
   115  118  116 1
   116  119  102 ar
   117  120  119 ar
   118  121  120 1
   119  122   99 ar
   120  123  122 ar
   121  124  123 ar
   122  125  124 1
   123  126  124 ar
   124  127  126 1
   125  128  126 ar
   126  129  128 1
   127  130  128 ar
   128  131  130 1
   129  132   89 ar
   130  133  134 ar
   131  134  135 1
   132  136  134 ar
   133  137  136 1
   134  138  136 ar
   135  139  138 1
   136  140  138 ar
   137  141  140 1
   138  142  133 ar
   139  143  142 ar
   140  144  143 ar
   141  145  144 1
   142  146  144 ar
   143  147  146 1
   144  148  147 1
   145  149  147 1
   146  150  147 1
   147  151  150 ar
   148  152  151 1
   149  153  151 ar
   150  154  153 1
   151  155  153 ar
   152  156  155 1
   153  157  155 ar
   154  158  157 1
   155  159  150 ar
   156  160  159 1
   157  161  160 1
   158  162  160 1
   159  163  146 ar
   160  164  163 ar
   161  165  164 1
   162  166  143 ar
   163  167  166 ar
   164  168  167 ar
   165  169  168 1
   166  170  168 ar
   167  171  170 1
   168  172  170 ar
   169  173  172 1
   170  174  172 ar
   171  175  174 1
   172  176  133 ar
   173    8   10 ar
   174   25   27 ar
   175   28   31 1
   176   32   34 ar
   177   35   44 ar
   178   42   44 ar
   179   52   54 ar
   180   69   71 ar
   181   72   75 1
   182   76   78 ar
   183   79   88 ar
   184   86   88 ar
   185   96   98 ar
   186  113  115 ar
   187  116  119 1
   188  120  122 ar
   189  123  132 ar
   190  130  132 ar
   191  140  142 ar
   192  157  159 ar
   193  160  163 1
   194  164  166 ar
   195  167  176 ar
   196  174  176 ar
@<TRIPOS>SUBSTRUCTURE
     1 RES1 1
     2 RES2 45
     3 RES3 89
     4 RES4 133

@<TRIPOS>CRYSIN
  12.0990   12.1273   23.6250 103.0030 101.6320  90.0230   2 1

