# MOL2 file generated by ConQuest
# Please check atom types

@<TRIPOS>MOLECULE
IQOXET
    76    84     2
SMALL
NO_CHARGES
****
Generated from CSD

@<TRIPOS>ATOM
      1 C1         1.2895    2.4479    7.8401 C.ar      1 RES1    0.0000
      2 C2         0.1925    2.3708    7.0109 C.ar      1 RES1    0.0000
      3 H1        -0.2490    3.1548    6.7768 H         1 RES1    0.0000
      4 C3        -0.2677    1.1863    6.5235 C.ar      1 RES1    0.0000
      5 H2        -1.0065    1.1713    5.9587 H         1 RES1    0.0000
      6 C4         0.3746   -0.0100    6.8753 C.ar      1 RES1    0.0000
      7 H3         0.0511   -0.8240    6.5657 H         1 RES1    0.0000
      8 C5         1.4638    0.0327    7.6672 C.ar      1 RES1    0.0000
      9 H4         1.8799   -0.7652    7.9024 H         1 RES1    0.0000
     10 C6         1.9925    1.2460    8.1506 C.ar      1 RES1    0.0000
     11 C7         3.1749    1.2893    8.9114 C.ar      1 RES1    0.0000
     12 H5         3.6113    0.4944    9.1174 H         1 RES1    0.0000
     13 C8         3.6914    2.4529    9.3476 C.ar      1 RES1    0.0000
     14 H6         4.5011    2.4573    9.8069 H         1 RES1    0.0000
     15 C9         3.0023    3.6827    9.1104 C.ar      1 RES1    0.0000
     16 C10        3.4855    4.8993    9.6400 C.ar      1 RES1    0.0000
     17 H7         4.3130    4.9088   10.0642 H         1 RES1    0.0000
     18 C11        2.7706    6.0718    9.5476 C.ar      1 RES1    0.0000
     19 C12        3.2606    7.3508   10.1606 C.3       1 RES1    0.0000
     20 H8         2.9809    7.3749   11.0893 H         1 RES1    0.0000
     21 H9         4.2301    7.3484   10.1466 H         1 RES1    0.0000
     22 C13        2.7756    8.5912    9.4843 C.ar      1 RES1    0.0000
     23 C14        3.5203    9.7448    9.4521 C.ar      1 RES1    0.0000
     24 H10        4.3545    9.7528    9.8642 H         1 RES1    0.0000
     25 C15        3.0745   10.8858    8.8320 C.ar      1 RES1    0.0000
     26 H11        3.5958   11.6568    8.8300 H         1 RES1    0.0000
     27 C16        1.8217   10.8740    8.2039 C.ar      1 RES1    0.0000
     28 H12        1.4991   11.6362    7.7818 H         1 RES1    0.0000
     29 C17        1.0730    9.7119    8.2200 C.ar      1 RES1    0.0000
     30 H13        0.2427    9.6939    7.7999 H         1 RES1    0.0000
     31 C18        1.5426    8.5786    8.8501 C.ar      1 RES1    0.0000
     32 C19        0.7156    7.3178    8.8622 C.3       1 RES1    0.0000
     33 H14        0.1406    7.3278    9.6431 H         1 RES1    0.0000
     34 H15        0.1459    7.3102    8.0762 H         1 RES1    0.0000
     35 C20        1.5378    6.0633    8.8792 C.ar      1 RES1    0.0000
     36 C21        1.0856    4.8999    8.3034 C.ar      1 RES1    0.0000
     37 H16        0.2831    4.9146    7.8340 H         1 RES1    0.0000
     38 C22        1.7923    3.6863    8.3979 C.ar      1 RES1    0.0000
     39 C23        6.9292    6.5017    8.6803 C.ar      2 RES2    0.0000
     40 C24        6.7318    5.8864    7.4250 C.ar      2 RES2    0.0000
     41 H17        6.5926    6.4185    6.6743 H         2 RES2    0.0000
     42 C25        6.7396    4.5341    7.2913 C.ar      2 RES2    0.0000
     43 H18        6.6107    4.1495    6.4542 H         2 RES2    0.0000
     44 C26        6.9420    3.7169    8.4079 C.ar      2 RES2    0.0000
     45 H19        6.9542    2.7928    8.3134 H         2 RES2    0.0000
     46 C27        7.1202    4.2802    9.6330 C.ar      2 RES2    0.0000
     47 H20        7.2365    3.7316   10.3747 H         2 RES2    0.0000
     48 C28        7.1340    5.6663    9.7988 C.ar      2 RES2    0.0000
     49 C29        7.3247    6.2466   11.0873 C.ar      2 RES2    0.0000
     50 H21        7.4300    5.6916   11.8259 H         2 RES2    0.0000
     51 C30        7.3552    7.5730   11.2561 C.ar      2 RES2    0.0000
     52 H22        7.4813    7.9223   12.1093 H         2 RES2    0.0000
     53 C31        7.1975    8.4620   10.1506 C.ar      2 RES2    0.0000
     54 C32        7.2919    9.8414   10.3355 C.ar      2 RES2    0.0000
     55 H23        7.4259   10.1765   11.1928 H         2 RES2    0.0000
     56 C33        7.1936   10.7089    9.2913 C.ar      2 RES2    0.0000
     57 C34        7.3532   12.1933    9.4571 C.3       2 RES2    0.0000
     58 H24        8.2734   12.4396    9.2682 H         2 RES2    0.0000
     59 H25        7.1635   12.4338   10.3767 H         2 RES2    0.0000
     60 C35        6.4379   12.9638    8.5446 C.ar      2 RES2    0.0000
     61 C36        5.8331   14.1365    8.9365 C.ar      2 RES2    0.0000
     62 H26        5.9892   14.4702    9.7898 H         2 RES2    0.0000
     63 C37        5.0123   14.8119    8.0913 C.ar      2 RES2    0.0000
     64 H27        4.6181   15.6062    8.3707 H         2 RES2    0.0000
     65 C38        4.7564   14.3325    6.8260 C.ar      2 RES2    0.0000
     66 H28        4.1815   14.7910    6.2582 H         2 RES2    0.0000
     67 C39        5.3624   13.1621    6.4079 C.ar      2 RES2    0.0000
     68 H29        5.2043   12.8399    5.5507 H         2 RES2    0.0000
     69 C40        6.2077   12.4664    7.2642 C.ar      2 RES2    0.0000
     70 C41        6.8791   11.1866    6.8642 C.3       2 RES2    0.0000
     71 H30        7.7734   11.3831    6.5446 H         2 RES2    0.0000
     72 H31        6.3846   10.7828    6.1326 H         2 RES2    0.0000
     73 C42        6.9659   10.2045    7.9999 C.ar      2 RES2    0.0000
     74 C43        6.8438    8.8575    7.7969 C.ar      2 RES2    0.0000
     75 H32        6.6691    8.5403    6.9406 H         2 RES2    0.0000
     76 C44        6.9747    7.9352    8.8591 C.ar      2 RES2    0.0000
@<TRIPOS>BOND
     1    1    2 ar
     2    2    3 1
     3    4    2 ar
     4    5    4 1
     5    6    4 ar
     6    7    6 1
     7    8    6 ar
     8    9    8 1
     9   10    1 ar
    10   11   10 ar
    11   12   11 1
    12   13   11 ar
    13   14   13 1
    14   15   13 ar
    15   16   15 ar
    16   17   16 1
    17   18   16 ar
    18   19   18 1
    19   20   19 1
    20   21   19 1
    21   22   19 1
    22   23   22 ar
    23   24   23 1
    24   25   23 ar
    25   26   25 1
    26   27   25 ar
    27   28   27 1
    28   29   27 ar
    29   30   29 1
    30   31   22 ar
    31   32   31 1
    32   33   32 1
    33   34   32 1
    34   35   18 ar
    35   36   35 ar
    36   37   36 1
    37   38    1 ar
    38   39   40 ar
    39   40   41 1
    40   42   40 ar
    41   43   42 1
    42   44   42 ar
    43   45   44 1
    44   46   44 ar
    45   47   46 1
    46   48   39 ar
    47   49   48 ar
    48   50   49 1
    49   51   49 ar
    50   52   51 1
    51   53   51 ar
    52   54   53 ar
    53   55   54 1
    54   56   54 ar
    55   57   56 1
    56   58   57 1
    57   59   57 1
    58   60   57 1
    59   61   60 ar
    60   62   61 1
    61   63   61 ar
    62   64   63 1
    63   65   63 ar
    64   66   65 1
    65   67   65 ar
    66   68   67 1
    67   69   60 ar
    68   70   69 1
    69   71   70 1
    70   72   70 1
    71   73   56 ar
    72   74   73 ar
    73   75   74 1
    74   76   39 ar
    75    8   10 ar
    76   15   38 ar
    77   29   31 ar
    78   32   35 1
    79   36   38 ar
    80   46   48 ar
    81   53   76 ar
    82   67   69 ar
    83   70   73 1
    84   74   76 ar
@<TRIPOS>SUBSTRUCTURE
     1 RES1 1
     2 RES2 39

@<TRIPOS>CRYSIN
   9.6625   29.4290   10.3159  90.0000 103.0350  90.0000 231 1

