# MOL2 file generated by ConQuest
# Please check atom types

@<TRIPOS>MOLECULE
ISILON
   114   128     2
SMALL
NO_CHARGES
****
Generated from CSD

@<TRIPOS>ATOM
      1 C1         7.1086    9.6682    5.0654 C.3       1 RES1    0.0000
      2 H1         7.9577    9.1759    4.8747 H         1 RES1    0.0000
      3 C2         6.7742   12.1656    7.8185 C.ar      1 RES1    0.0000
      4 C3         5.7048    8.8334    8.4259 C.ar      1 RES1    0.0000
      5 C4         5.8071   12.5214    8.8545 C.ar      1 RES1    0.0000
      6 C5         5.7401    7.6379    5.8406 C.ar      1 RES1    0.0000
      7 H2         5.8289    7.2105    4.9982 H         1 RES1    0.0000
      8 C6         8.4607   13.0333    6.2406 C.ar      1 RES1    0.0000
      9 H3         9.1069   13.6922    6.0148 H         1 RES1    0.0000
     10 C7         6.2105    9.5631    7.3012 C.ar      1 RES1    0.0000
     11 C8         5.0229    7.6076    8.1490 C.ar      1 RES1    0.0000
     12 C9         6.3043    8.8907    6.0684 C.ar      1 RES1    0.0000
     13 C10        5.8803    9.1847    9.8371 C.ar      1 RES1    0.0000
     14 C11        5.0533    7.0361    6.8639 C.ar      1 RES1    0.0000
     15 H4         4.5916    6.2222    6.7020 H         1 RES1    0.0000
     16 C12        5.1286    8.4974   10.8290 C.ar      1 RES1    0.0000
     17 C13        7.7114   13.1639    7.4294 C.ar      1 RES1    0.0000
     18 C14        4.6131   11.7988    9.0513 C.ar      1 RES1    0.0000
     19 H5         4.4291   11.0462    8.5011 H         1 RES1    0.0000
     20 C15        6.7925   10.9329    7.0871 C.ar      1 RES1    0.0000
     21 C16        7.4288   10.9253    5.8403 C.ar      1 RES1    0.0000
     22 C17        8.2603   11.9583    5.4074 C.ar      1 RES1    0.0000
     23 H6         8.6790   11.9197    4.5555 H         1 RES1    0.0000
     24 C18        6.8247   10.1279   10.2741 C.ar      1 RES1    0.0000
     25 H7         7.4105   10.5230    9.6412 H         1 RES1    0.0000
     26 C19        4.3073    6.9302    9.1890 C.ar      1 RES1    0.0000
     27 H8         3.8175    6.1442    8.9798 H         1 RES1    0.0000
     28 C20        5.9972   13.7081    9.6086 C.ar      1 RES1    0.0000
     29 C21        7.8692   14.3463    8.2231 C.ar      1 RES1    0.0000
     30 H9         8.5401   14.9769    7.9915 H         1 RES1    0.0000
     31 C22        3.7055   12.1576   10.0240 C.ar      1 RES1    0.0000
     32 H10        2.9184   11.6418   10.1534 H         1 RES1    0.0000
     33 C23        6.3910    9.9531    3.7471 C.ar      1 RES1    0.0000
     34 C24        6.9227   10.4950   11.5981 C.ar      1 RES1    0.0000
     35 H11        7.5439   11.1653   11.8598 H         1 RES1    0.0000
     36 C25        5.0950   10.4552    3.7448 C.ar      1 RES1    0.0000
     37 H12        4.6494   10.6010    4.5710 H         1 RES1    0.0000
     38 C26        7.0847   14.5803    9.2938 C.ar      1 RES1    0.0000
     39 H13        7.2566   15.3343    9.8446 H         1 RES1    0.0000
     40 C27        3.9472   13.2852   10.8221 C.ar      1 RES1    0.0000
     41 H14        3.3414   13.5150   11.5175 H         1 RES1    0.0000
     42 C28        5.0577   14.0532   10.5979 C.ar      1 RES1    0.0000
     43 H15        5.1965   14.8351   11.1212 H         1 RES1    0.0000
     44 C29        4.3135    7.3828   10.4571 C.ar      1 RES1    0.0000
     45 H16        3.7710    6.9581   11.1109 H         1 RES1    0.0000
     46 C30        4.4397   10.7484    2.5570 C.ar      1 RES1    0.0000
     47 H17        3.5569   11.0973    2.5737 H         1 RES1    0.0000
     48 C31        6.1110    9.8843   12.5581 C.ar      1 RES1    0.0000
     49 H18        6.1566   10.1586   13.4658 H         1 RES1    0.0000
     50 C32        5.2485    8.8876   12.1800 C.ar      1 RES1    0.0000
     51 H19        4.7218    8.4513   12.8404 H         1 RES1    0.0000
     52 C33        5.0742   10.5328    1.3484 C.ar      1 RES1    0.0000
     53 H20        4.6342   10.7414    0.5328 H         1 RES1    0.0000
     54 C34        6.3540   10.0108    1.3365 C.ar      1 RES1    0.0000
     55 H21        6.7874    9.8452    0.5070 H         1 RES1    0.0000
     56 C35        7.0133    9.7255    2.5300 C.ar      1 RES1    0.0000
     57 H22        7.8951    9.3730    2.5094 H         1 RES1    0.0000
     58 C36       10.9636    9.0300    4.8199 C.ar      2 RES2    0.0000
     59 C37        9.5690    7.6763    6.7731 C.ar      2 RES2    0.0000
     60 C38        9.1279    5.6634    5.6607 C.ar      2 RES2    0.0000
     61 C39        9.7194    7.0473    5.5253 C.ar      2 RES2    0.0000
     62 C40       10.3057    7.8163    4.4603 C.ar      2 RES2    0.0000
     63 C41       11.3194    4.8298    3.6761 C.ar      2 RES2    0.0000
     64 H23       11.5526    5.5089    4.2982 H         2 RES2    0.0000
     65 C42        8.4468    5.6279    6.8817 C.ar      2 RES2    0.0000
     66 C43        8.7070    6.8712    7.6981 C.3       2 RES2    0.0000
     67 H24        7.8408    7.3537    7.8293 H         2 RES2    0.0000
     68 C44        9.1493    4.4528    4.8839 C.ar      2 RES2    0.0000
     69 C45        9.2886    6.6182    2.4942 C.ar      2 RES2    0.0000
     70 H25        8.6228    6.2435    3.0576 H         2 RES2    0.0000
     71 C46       10.8632    9.5575    6.1188 C.ar      2 RES2    0.0000
     72 H26       11.3135   10.3656    6.3366 H         2 RES2    0.0000
     73 C47        8.1975    3.4409    5.2319 C.ar      2 RES2    0.0000
     74 C48        9.2973    6.5517    9.0619 C.ar      2 RES2    0.0000
     75 C49       10.1204    8.9152    7.0760 C.ar      2 RES2    0.0000
     76 H27        9.9857    9.3092    7.9297 H         2 RES2    0.0000
     77 C50        8.0148    2.3108    4.3648 C.ar      2 RES2    0.0000
     78 H28        7.3508    1.6662    4.5761 H         2 RES2    0.0000
     79 C51       10.1015    4.1349    3.8354 C.ar      2 RES2    0.0000
     80 C52        7.4435    3.5243    6.4086 C.ar      2 RES2    0.0000
     81 H29        6.8071    2.8488    6.6120 H         2 RES2    0.0000
     82 C53       11.1061    8.1772    2.1339 C.ar      2 RES2    0.0000
     83 C54       11.7642    9.7303    3.8583 C.ar      2 RES2    0.0000
     84 H30       12.2162   10.5244    4.1180 H         2 RES2    0.0000
     85 C55       12.1726    4.5444    2.6414 C.ar      2 RES2    0.0000
     86 H31       12.9799    5.0367    2.5429 H         2 RES2    0.0000
     87 C56        9.3084    6.2806    1.1592 C.ar      2 RES2    0.0000
     88 H32        8.6642    5.6720    0.8159 H         2 RES2    0.0000
     89 C57       10.2340    7.5073    3.0404 C.ar      2 RES2    0.0000
     90 C58        7.6214    4.5769    7.2688 C.ar      2 RES2    0.0000
     91 H33        7.1886    4.5886    8.1150 H         2 RES2    0.0000
     92 C59        9.8568    3.0239    2.9863 C.ar      2 RES2    0.0000
     93 C60       10.2722    6.8291    0.3060 C.ar      2 RES2    0.0000
     94 H34       10.3294    6.5427   -0.5971 H         2 RES2    0.0000
     95 C61       10.6604    6.3284    9.2341 C.ar      2 RES2    0.0000
     96 H35       11.2442    6.4136    8.4908 H         2 RES2    0.0000
     97 C62        8.7640    2.1444    3.2573 C.ar      2 RES2    0.0000
     98 H36        8.5646    1.4393    2.6535 H         2 RES2    0.0000
     99 C63       11.8876    9.2831    2.5907 C.ar      2 RES2    0.0000
    100 H37       12.4977    9.7062    1.9972 H         2 RES2    0.0000
    101 C64       11.1324    7.7826    0.7860 C.ar      2 RES2    0.0000
    102 H38       11.7591    8.1847    0.1956 H         2 RES2    0.0000
    103 C65       10.7390    2.7689    1.9218 C.ar      2 RES2    0.0000
    104 H39       10.5522    2.0533    1.3255 H         2 RES2    0.0000
    105 C66       11.1773    5.9858   10.4672 C.ar      2 RES2    0.0000
    106 H40       12.1096    5.8322   10.5652 H         2 RES2    0.0000
    107 C67        8.4619    6.4380   10.1627 C.ar      2 RES2    0.0000
    108 H41        7.5295    6.5965   10.0711 H         2 RES2    0.0000
    109 C68       11.8580    3.5276    1.7267 C.ar      2 RES2    0.0000
    110 H42       12.4201    3.3678    0.9780 H         2 RES2    0.0000
    111 C69       10.3449    5.8656   11.5566 C.ar      2 RES2    0.0000
    112 H43       10.6996    5.6309   12.4055 H         2 RES2    0.0000
    113 C70        8.9925    6.0889   11.4063 C.ar      2 RES2    0.0000
    114 H44        8.4164    6.0052   12.1558 H         2 RES2    0.0000
@<TRIPOS>BOND
     1    1    2 1
     2    3    5 ar
     3    4   10 ar
     4    5   18 ar
     5    6    7 1
     6    8    9 1
     7   10   12 ar
     8   11    4 ar
     9   12    1 1
    10   13    4 ar
    11   14    6 ar
    12   15   14 1
    13   16   13 ar
    14   17    3 ar
    15   18   19 1
    16   20    3 ar
    17   21    1 1
    18   22    8 ar
    19   23   22 1
    20   24   13 ar
    21   25   24 1
    22   26   11 ar
    23   27   26 1
    24   28    5 ar
    25   29   17 ar
    26   30   29 1
    27   31   18 ar
    28   32   31 1
    29   33    1 1
    30   34   24 ar
    31   35   34 1
    32   36   33 ar
    33   37   36 1
    34   38   28 ar
    35   39   38 1
    36   40   31 ar
    37   41   40 1
    38   42   28 ar
    39   43   42 1
    40   44   16 ar
    41   45   44 1
    42   46   36 ar
    43   47   46 1
    44   48   34 ar
    45   49   48 1
    46   50   16 ar
    47   51   50 1
    48   52   46 ar
    49   53   52 1
    50   54   52 ar
    51   55   54 1
    52   56   33 ar
    53   57   56 1
    54   58   62 ar
    55   59   61 ar
    56   60   61 1
    57   61   62 ar
    58   62   89 ar
    59   63   64 1
    60   65   60 ar
    61   66   59 1
    62   67   66 1
    63   68   60 ar
    64   69   70 1
    65   71   58 ar
    66   72   71 1
    67   73   68 ar
    68   74   66 1
    69   75   59 ar
    70   76   75 1
    71   77   73 ar
    72   78   77 1
    73   79   63 ar
    74   80   73 ar
    75   81   80 1
    76   82   89 ar
    77   83   58 ar
    78   84   83 1
    79   85   63 ar
    80   86   85 1
    81   87   69 ar
    82   88   87 1
    83   89   69 ar
    84   90   65 ar
    85   91   90 1
    86   92   79 ar
    87   93   87 ar
    88   94   93 1
    89   95   74 ar
    90   96   95 1
    91   97   77 ar
    92   98   97 1
    93   99   82 ar
    94  100   99 1
    95  101   82 ar
    96  102  101 1
    97  103   92 ar
    98  104  103 1
    99  105   95 ar
   100  106  105 1
   101  107   74 ar
   102  108  107 1
   103  109   85 ar
   104  110  109 1
   105  111  105 ar
   106  112  111 1
   107  113  107 ar
   108  114  113 1
   109    6   12 ar
   110    8   17 ar
   111   10   20 1
   112   11   14 ar
   113   20   21 ar
   114   21   22 ar
   115   26   44 ar
   116   29   38 ar
   117   40   42 ar
   118   48   50 ar
   119   54   56 ar
   120   65   66 1
   121   68   79 ar
   122   71   75 ar
   123   80   90 ar
   124   83   99 ar
   125   92   97 ar
   126   93  101 ar
   127  103  109 ar
   128  111  113 ar
@<TRIPOS>SUBSTRUCTURE
     1 RES1 1
     2 RES2 58

@<TRIPOS>CRYSIN
  12.5580   14.1800   26.3850  90.0000 102.7200  90.0000  14 1

