# MOL2 file generated by ConQuest
# Please check atom types

@<TRIPOS>MOLECULE
ISIMAA
    67    75     1
SMALL
NO_CHARGES
****
Generated from CSD

@<TRIPOS>ATOM
      1 C1         7.1274    0.6254    7.3044 C.ar      1 RES1    0.0000
      2 C2         6.4546   -0.9275    3.9447 C.ar      1 RES1    0.0000
      3 C3         8.5566   -0.0157    4.3599 C.ar      1 RES1    0.0000
      4 C4         6.5866    0.5102    8.6183 C.ar      1 RES1    0.0000
      5 C5         9.8479    0.2898    4.8903 C.ar      1 RES1    0.0000
      6 C6        10.7935    0.8883    4.0235 C.ar      1 RES1    0.0000
      7 C7         8.3271    2.6169    8.0569 C.ar      1 RES1    0.0000
      8 H1         8.8974    3.3251    7.8648 H         1 RES1    0.0000
      9 C8         6.6881   -0.2942    6.2790 C.ar      1 RES1    0.0000
     10 C9        10.3040   -0.0593    6.2298 C.ar      1 RES1    0.0000
     11 C10       12.2769    1.3493    5.8900 C.ar      1 RES1    0.0000
     12 H2        13.0029    1.8091    6.2446 H         1 RES1    0.0000
     13 C11       11.4840    0.5404    6.7346 C.ar      1 RES1    0.0000
     14 C12        7.2466   -0.3972    4.9627 C.ar      1 RES1    0.0000
     15 C13       11.9932    1.4623    4.5726 C.ar      1 RES1    0.0000
     16 H3        12.5803    1.9177    4.0137 H         1 RES1    0.0000
     17 C14        5.5376   -1.0875    6.5450 C.ar      1 RES1    0.0000
     18 C15        7.0811   -0.6993    2.5559 C.3       1 RES1    0.0000
     19 C16        5.2461   -1.5854    4.2107 C.ar      1 RES1    0.0000
     20 H4         4.7240   -1.9188    3.5163 H         1 RES1    0.0000
     21 C17       10.1543   -1.3985    8.2489 C.ar      1 RES1    0.0000
     22 H5         9.7406   -2.0698    8.7439 H         1 RES1    0.0000
     23 C18        7.9843    1.7207    7.0621 C.ar      1 RES1    0.0000
     24 H6         8.3281    1.8438    6.2076 H         1 RES1    0.0000
     25 C19        8.4069   -0.0414    2.9573 C.ar      1 RES1    0.0000
     26 C20        5.2746    1.1423    2.2506 C.ar      1 RES1    0.0000
     27 H7         5.0845    1.0964    3.1617 H         1 RES1    0.0000
     28 C21        4.8540   -1.7241    5.5034 C.ar      1 RES1    0.0000
     29 H8         4.1153   -2.2533    5.7004 H         1 RES1    0.0000
     30 C22        9.6923   -1.0763    7.0104 C.ar      1 RES1    0.0000
     31 H9         8.9585   -1.5328    6.6656 H         1 RES1    0.0000
     32 C23        5.5741   -0.4587    8.8916 C.ar      1 RES1    0.0000
     33 H10        5.2727   -0.5840    9.7608 H         1 RES1    0.0000
     34 C24       10.5423    0.9700    2.6372 C.ar      1 RES1    0.0000
     35 H11       11.1580    1.3840    2.0758 H         1 RES1    0.0000
     36 C25        5.0569   -1.1871    7.8894 C.ar      1 RES1    0.0000
     37 H12        4.3625   -1.7778    8.0741 H         1 RES1    0.0000
     38 C26       11.9046    0.2372    8.0372 C.ar      1 RES1    0.0000
     39 H13       12.6315    0.6881    8.4041 H         1 RES1    0.0000
     40 C27        7.8257    2.4670    9.3398 C.ar      1 RES1    0.0000
     41 H14        8.0789    3.0577   10.0120 H         1 RES1    0.0000
     42 C28        6.9629    1.4522    9.6156 C.ar      1 RES1    0.0000
     43 H15        6.6122    1.3728   10.4725 H         1 RES1    0.0000
     44 C29       11.2555   -0.7160    8.7759 C.ar      1 RES1    0.0000
     45 H16       11.5500   -0.9107    9.6377 H         1 RES1    0.0000
     46 C30        6.2655    0.3155    1.7261 C.ar      1 RES1    0.0000
     47 C31        8.4522   -2.7008    1.8689 C.ar      1 RES1    0.0000
     48 H17        9.1732   -2.3495    2.3393 H         1 RES1    0.0000
     49 C32        6.5265    0.4363    0.3694 C.ar      1 RES1    0.0000
     50 H18        7.1845   -0.0996   -0.0123 H         1 RES1    0.0000
     51 C33        9.3958    0.4408    2.1226 C.ar      1 RES1    0.0000
     52 H19        9.2796    0.4050    1.1992 H         1 RES1    0.0000
     53 C34        7.2604   -1.9949    1.8369 C.ar      1 RES1    0.0000
     54 C35        6.3552   -3.8029    0.4752 C.ar      1 RES1    0.0000
     55 H20        5.6410   -4.1676    0.0049 H         1 RES1    0.0000
     56 C36        4.8521    2.1235    0.1133 C.ar      1 RES1    0.0000
     57 H21        4.3812    2.7210   -0.4235 H         1 RES1    0.0000
     58 C37        8.6029   -3.9226    1.2139 C.ar      1 RES1    0.0000
     59 H22        9.4175   -4.3712    1.2484 H         1 RES1    0.0000
     60 C38        5.8371    1.3314   -0.4408 C.ar      1 RES1    0.0000
     61 H23        6.0370    1.3952   -1.3469 H         1 RES1    0.0000
     62 C39        4.5644    2.0307    1.4626 C.ar      1 RES1    0.0000
     63 H24        3.8996    2.5610    1.8369 H         1 RES1    0.0000
     64 C40        6.1956   -2.5945    1.1253 C.ar      1 RES1    0.0000
     65 H25        5.3712   -2.1649    1.0908 H         1 RES1    0.0000
     66 C41        7.5411   -4.4674    0.5146 C.ar      1 RES1    0.0000
     67 H26        7.6376   -5.2808    0.0739 H         1 RES1    0.0000
@<TRIPOS>BOND
     1    1    4 ar
     2    2   14 ar
     3    3    5 ar
     4    4   32 ar
     5    5    6 ar
     6    6   15 ar
     7    7    8 1
     8    9    1 ar
     9   10    5 ar
    10   11   12 1
    11   13   10 ar
    12   14    3 1
    13   15   11 ar
    14   16   15 1
    15   17    9 ar
    16   18    2 1
    17   19    2 ar
    18   20   19 1
    19   21   22 1
    20   23    1 ar
    21   24   23 1
    22   25    3 ar
    23   26   27 1
    24   28   17 ar
    25   29   28 1
    26   30   10 ar
    27   31   30 1
    28   32   33 1
    29   34    6 ar
    30   35   34 1
    31   36   17 ar
    32   37   36 1
    33   38   13 ar
    34   39   38 1
    35   40    7 ar
    36   41   40 1
    37   42    4 ar
    38   43   42 1
    39   44   21 ar
    40   45   44 1
    41   46   18 1
    42   47   48 1
    43   49   46 ar
    44   50   49 1
    45   51   25 ar
    46   52   51 1
    47   53   18 1
    48   54   55 1
    49   56   57 1
    50   58   47 ar
    51   59   58 1
    52   60   49 ar
    53   61   60 1
    54   62   26 ar
    55   63   62 1
    56   64   53 ar
    57   65   64 1
    58   66   54 ar
    59   67   66 1
    60    7   23 ar
    61    9   14 ar
    62   11   13 ar
    63   18   25 1
    64   19   28 ar
    65   21   30 ar
    66   26   46 ar
    67   32   36 ar
    68   34   51 ar
    69   38   44 ar
    70   40   42 ar
    71   47   53 ar
    72   54   64 ar
    73   56   60 ar
    74   56   62 ar
    75   58   66 ar
@<TRIPOS>SUBSTRUCTURE
     1 RES1 1

@<TRIPOS>CRYSIN
   9.8499   11.1882   24.6237  90.0000  90.0000  90.0000  19 1

