# MOL2 file generated by ConQuest
# Please check atom types

@<TRIPOS>MOLECULE
IYIDUP
    50    54     1
SMALL
NO_CHARGES
****
Generated from CSD

@<TRIPOS>ATOM
      1 C1        -1.4637    6.9182    8.6071 C.ar      1 RES1    0.0000
      2 C2        -0.7515    5.8258    9.2155 C.ar      1 RES1    0.0000
      3 C3        -1.2489    4.4998    9.2429 C.ar      1 RES1    0.0000
      4 H1        -2.0793    4.3177    8.8656 H         1 RES1    0.0000
      5 C4        -0.5322    3.4779    9.8142 C.ar      1 RES1    0.0000
      6 H2        -0.8858    2.6175    9.8252 H         1 RES1    0.0000
      7 C5         0.7188    3.7156   10.3768 C.ar      1 RES1    0.0000
      8 H3         1.2079    3.0142   10.7410 H         1 RES1    0.0000
      9 C6         1.2190    4.9704   10.3908 C.ar      1 RES1    0.0000
     10 H4         2.0519    5.1209   10.7763 H         1 RES1    0.0000
     11 C7         0.5065    6.0681    9.8323 C.ar      1 RES1    0.0000
     12 C8         1.0146    7.3793    9.8518 C.ar      1 RES1    0.0000
     13 H5         1.8265    7.5510   10.2710 H         1 RES1    0.0000
     14 C9         0.3371    8.3920    9.2688 C.ar      1 RES1    0.0000
     15 H6         0.6953    9.2499    9.2967 H         1 RES1    0.0000
     16 C10       -0.9086    8.1836    8.6141 C.ar      1 RES1    0.0000
     17 C11       -1.5316    9.3453    7.9130 C.3       1 RES1    0.0000
     18 H7        -2.0204    9.0326    7.1485 H         1 RES1    0.0000
     19 H8        -0.8450    9.9530    7.6283 H         1 RES1    0.0000
     20 H9        -2.1306    9.7975    8.5124 H         1 RES1    0.0000
     21 C12       -4.3214    7.8878    9.4236 C.ar      1 RES1    0.0000
     22 C13       -4.8554    9.2041    9.1866 C.ar      1 RES1    0.0000
     23 C14       -4.9923    9.7684    7.8962 C.ar      1 RES1    0.0000
     24 H10       -4.7202    9.2754    7.1558 H         1 RES1    0.0000
     25 C15       -5.5136   11.0186    7.7093 C.ar      1 RES1    0.0000
     26 H11       -5.5819   11.3652    6.8489 H         1 RES1    0.0000
     27 C16       -5.9461   11.7832    8.8011 C.ar      1 RES1    0.0000
     28 H12       -6.3117   12.6280    8.6659 H         1 RES1    0.0000
     29 C17       -5.8294   11.2842   10.0521 C.ar      1 RES1    0.0000
     30 H13       -6.1117   11.7998   10.7727 H         1 RES1    0.0000
     31 C18       -5.2843    9.9888   10.2977 C.ar      1 RES1    0.0000
     32 C19       -5.1801    9.4478   11.5935 C.ar      1 RES1    0.0000
     33 H14       -5.4560    9.9519   12.3254 H         1 RES1    0.0000
     34 C20       -4.6820    8.1999   11.7887 C.ar      1 RES1    0.0000
     35 H15       -4.6235    7.8668   12.6554 H         1 RES1    0.0000
     36 C21       -4.2486    7.3900   10.7090 C.ar      1 RES1    0.0000
     37 C22       -3.7855    5.9962   11.0104 C.3       1 RES1    0.0000
     38 H16       -3.8790    5.4511   10.2259 H         1 RES1    0.0000
     39 H17       -4.3176    5.6289   11.7201 H         1 RES1    0.0000
     40 H18       -2.8633    6.0156   11.2781 H         1 RES1    0.0000
     41 C23       -2.7263    6.6103    7.8575 C.ar      1 RES1    0.0000
     42 C24       -4.0138    7.0271    8.2377 C.ar      1 RES1    0.0000
     43 C25       -5.1074    6.6168    7.4618 C.ar      1 RES1    0.0000
     44 H19       -5.9629    6.8849    7.7099 H         1 RES1    0.0000
     45 C26       -4.9510    5.8280    6.3438 C.ar      1 RES1    0.0000
     46 H20       -5.6942    5.5648    5.8503 H         1 RES1    0.0000
     47 C27       -3.6901    5.4303    5.9583 C.ar      1 RES1    0.0000
     48 H21       -3.5763    4.8996    5.2037 H         1 RES1    0.0000
     49 C28       -2.5982    5.8252    6.6997 C.ar      1 RES1    0.0000
     50 H22       -1.7495    5.5633    6.4251 H         1 RES1    0.0000
@<TRIPOS>BOND
     1    1    2 ar
     2    2    3 ar
     3    3    4 1
     4    5    3 ar
     5    6    5 1
     6    7    5 ar
     7    8    7 1
     8    9    7 ar
     9   10    9 1
    10   11    2 ar
    11   12   11 ar
    12   13   12 1
    13   14   12 ar
    14   15   14 1
    15   16    1 ar
    16   17   16 1
    17   18   17 1
    18   19   17 1
    19   20   17 1
    20   21   22 ar
    21   22   23 ar
    22   23   24 1
    23   25   23 ar
    24   26   25 1
    25   27   25 ar
    26   28   27 1
    27   29   27 ar
    28   30   29 1
    29   31   22 ar
    30   32   31 ar
    31   33   32 1
    32   34   32 ar
    33   35   34 1
    34   36   21 ar
    35   37   36 1
    36   38   37 1
    37   39   37 1
    38   40   37 1
    39   41    1 1
    40   42   21 1
    41   43   42 ar
    42   44   43 1
    43   45   43 ar
    44   46   45 1
    45   47   45 ar
    46   48   47 1
    47   49   41 ar
    48   50   49 1
    49    9   11 ar
    50   14   16 ar
    51   29   31 ar
    52   34   36 ar
    53   41   42 ar
    54   47   49 ar
@<TRIPOS>SUBSTRUCTURE
     1 RES1 1

@<TRIPOS>CRYSIN
   8.9569    9.3302   12.3044  90.9450  97.9040  99.2240   2 1

