# MOL2 file generated by ConQuest
# Please check atom types

@<TRIPOS>MOLECULE
IZUCEL
   112   128     2
SMALL
NO_CHARGES
****
Generated from CSD

@<TRIPOS>ATOM
      1 C1        13.5420    4.9026   -4.3155 C.ar      1 RES1    0.0000
      2 C2        13.1949    6.0204   -5.1064 C.ar      1 RES1    0.0000
      3 H1        12.5028    6.6021   -4.8114 H         1 RES1    0.0000
      4 C3        13.8255    6.2793   -6.2736 C.ar      1 RES1    0.0000
      5 H2        13.6739    7.1028   -6.7237 H         1 RES1    0.0000
      6 C4        14.6920    5.3502   -6.8127 C.ar      1 RES1    0.0000
      7 H3        15.0235    5.4789   -7.6952 H         1 RES1    0.0000
      8 C5        15.0853    4.2340   -6.0982 C.ar      1 RES1    0.0000
      9 C6        15.8455    3.1138   -6.7008 C.ar      1 RES1    0.0000
     10 C7        16.3967    3.2533   -7.9825 C.ar      1 RES1    0.0000
     11 H4        16.3573    4.0891   -8.4301 H         1 RES1    0.0000
     12 C8        16.9978    2.1601   -8.5903 C.ar      1 RES1    0.0000
     13 H5        17.3722    2.2572   -9.4575 H         1 RES1    0.0000
     14 C9        17.0629    0.9144   -7.9469 C.ar      1 RES1    0.0000
     15 H6        17.4646    0.1687   -8.3767 H         1 RES1    0.0000
     16 C10       16.5349    0.7927   -6.6881 C.ar      1 RES1    0.0000
     17 H7        16.5564   -0.0547   -6.2584 H         1 RES1    0.0000
     18 C11       15.9526    1.9005   -6.0015 C.ar      1 RES1    0.0000
     19 C12       15.5364    1.7896   -4.6181 C.ar      1 RES1    0.0000
     20 C13       15.7331    0.6571   -3.8476 C.ar      1 RES1    0.0000
     21 H8        15.9863   -0.1518   -4.2774 H         1 RES1    0.0000
     22 C14       15.5740    0.6594   -2.4845 C.ar      1 RES1    0.0000
     23 H9        15.6256   -0.1525   -1.9937 H         1 RES1    0.0000
     24 C15       15.3402    1.8712   -1.8284 C.ar      1 RES1    0.0000
     25 H10       15.3714    1.9105   -0.8799 H         1 RES1    0.0000
     26 C16       15.0561    3.0276   -2.5684 C.ar      1 RES1    0.0000
     27 C17       15.0453    2.9536   -3.9569 C.ar      1 RES1    0.0000
     28 C18       14.5730    4.0591   -4.7707 C.ar      1 RES1    0.0000
     29 C19       12.5419    4.5529   -3.2296 C.ar      1 RES1    0.0000
     30 C20       11.2927    4.1731   -3.6874 C.ar      1 RES1    0.0000
     31 H11       11.1982    3.9227   -4.6003 H         1 RES1    0.0000
     32 C21       10.1643    4.1454   -2.8558 C.ar      1 RES1    0.0000
     33 H12        9.3462    3.7640   -3.1533 H         1 RES1    0.0000
     34 C22       10.2796    4.7008   -1.5589 C.ar      1 RES1    0.0000
     35 H13        9.5070    4.7963   -1.0147 H         1 RES1    0.0000
     36 C23       11.5408    5.1137   -1.0732 C.ar      1 RES1    0.0000
     37 C24       11.6846    5.8240    0.1958 C.ar      1 RES1    0.0000
     38 C25       10.5405    6.1375    0.9765 C.ar      1 RES1    0.0000
     39 H14        9.6824    5.8255    0.7095 H         1 RES1    0.0000
     40 C26       10.6703    6.8979    2.1310 C.ar      1 RES1    0.0000
     41 H15        9.9042    7.0758    2.6600 H         1 RES1    0.0000
     42 C27       11.9055    7.4056    2.5252 C.ar      1 RES1    0.0000
     43 H16       11.9864    7.9448    3.3034 H         1 RES1    0.0000
     44 C28       13.0145    7.1051    1.7547 C.ar      1 RES1    0.0000
     45 H17       13.8575    7.4556    2.0166 H         1 RES1    0.0000
     46 C29       12.9493    6.3070    0.6052 C.ar      1 RES1    0.0000
     47 C30       14.1553    5.8402   -0.0992 C.ar      1 RES1    0.0000
     48 C31       15.4223    6.0628    0.4272 C.ar      1 RES1    0.0000
     49 H18       15.5229    6.6152    1.1927 H         1 RES1    0.0000
     50 C32       16.5377    5.4881   -0.1551 C.ar      1 RES1    0.0000
     51 H19       17.4074    5.7038    0.1602 H         1 RES1    0.0000
     52 C33       16.3713    4.5798   -1.2206 C.ar      1 RES1    0.0000
     53 H20       17.1298    4.1300   -1.5741 H         1 RES1    0.0000
     54 C34       15.1175    4.3302   -1.7623 C.ar      1 RES1    0.0000
     55 C35       14.0030    5.0413   -1.2537 C.ar      1 RES1    0.0000
     56 C36       12.6936    4.9180   -1.8513 C.ar      1 RES1    0.0000
     57 C37       19.1865    8.5727    1.2028 C.ar      2 RES2    0.0000
     58 C38       18.7705    8.2715   -0.0509 C.ar      2 RES2    0.0000
     59 H21       17.8463    8.0966   -0.1933 H         2 RES2    0.0000
     60 C39       19.6580    8.2060   -1.1698 C.ar      2 RES2    0.0000
     61 H22       19.3624    7.8732   -2.0090 H         2 RES2    0.0000
     62 C40       20.9211    8.6274   -1.0019 C.ar      2 RES2    0.0000
     63 H23       21.4983    8.6798   -1.7521 H         2 RES2    0.0000
     64 C41       21.3998    8.9887    0.2543 C.ar      2 RES2    0.0000
     65 C42       22.6778    9.6512    0.4450 C.ar      2 RES2    0.0000
     66 C43       23.5250    9.9378   -0.6586 C.ar      2 RES2    0.0000
     67 H24       23.2925    9.6027   -1.5156 H         2 RES2    0.0000
     68 C44       24.6709   10.6850   -0.5239 C.ar      2 RES2    0.0000
     69 H25       25.2411   10.8083   -1.2715 H         2 RES2    0.0000
     70 C45       24.9990   11.2636    0.6968 C.ar      2 RES2    0.0000
     71 H26       25.7478   11.8421    0.7705 H         2 RES2    0.0000
     72 C46       24.2190   10.9832    1.8030 C.ar      2 RES2    0.0000
     73 H27       24.4641   11.3360    2.6498 H         2 RES2    0.0000
     74 C47       23.0581   10.1781    1.6962 C.ar      2 RES2    0.0000
     75 C48       22.2915    9.7436    2.8711 C.ar      2 RES2    0.0000
     76 C49       22.8077    9.9732    4.1833 C.ar      2 RES2    0.0000
     77 H28       23.5880   10.5017    4.3079 H         2 RES2    0.0000
     78 C50       22.1580    9.4147    5.2742 C.ar      2 RES2    0.0000
     79 H29       22.4347    9.6443    6.1541 H         2 RES2    0.0000
     80 C51       21.1121    8.5295    5.0987 C.ar      2 RES2    0.0000
     81 H30       20.7368    8.0935    5.8540 H         2 RES2    0.0000
     82 C52       20.6014    8.2653    3.8298 C.ar      2 RES2    0.0000
     83 C53       21.1318    8.9887    2.7210 C.ar      2 RES2    0.0000
     84 C54       20.5697    8.8354    1.3987 C.ar      2 RES2    0.0000
     85 C55       18.0854    8.9363    2.1845 C.ar      2 RES2    0.0000
     86 C56       17.3031   10.0572    1.8386 C.ar      2 RES2    0.0000
     87 H31       17.6104   10.6373    1.1545 H         2 RES2    0.0000
     88 C57       16.1150   10.3376    2.4591 C.ar      2 RES2    0.0000
     89 H32       15.6643   11.1573    2.2938 H         2 RES2    0.0000
     90 C58       15.5817    9.3931    3.3364 C.ar      2 RES2    0.0000
     91 H33       14.7064    9.5179    3.6874 H         2 RES2    0.0000
     92 C59       16.3189    8.2699    3.7001 C.ar      2 RES2    0.0000
     93 C60       15.6684    7.1560    4.4427 C.ar      2 RES2    0.0000
     94 C61       14.3733    7.3162    5.0555 C.ar      2 RES2    0.0000
     95 H34       13.9651    8.1736    5.0606 H         2 RES2    0.0000
     96 C62       13.7155    6.2500    5.6328 C.ar      2 RES2    0.0000
     97 H35       12.8403    6.3625    5.9837 H         2 RES2    0.0000
     98 C63       14.3599    4.9758    5.6964 C.ar      2 RES2    0.0000
     99 H36       13.9355    4.2316    6.1109 H         2 RES2    0.0000
    100 C64       15.6063    4.8649    5.1445 C.ar      2 RES2    0.0000
    101 H37       16.0265    4.0136    5.1674 H         2 RES2    0.0000
    102 C65       16.2976    5.9211    4.5520 C.ar      2 RES2    0.0000
    103 C66       17.6866    5.7916    4.1299 C.ar      2 RES2    0.0000
    104 C67       18.4575    4.6376    4.3587 C.ar      2 RES2    0.0000
    105 H38       18.0130    3.8341    4.6029 H         2 RES2    0.0000
    106 C68       19.8322    4.6230    4.2468 C.ar      2 RES2    0.0000
    107 H39       20.3131    3.8079    4.3206 H         2 RES2    0.0000
    108 C69       20.5020    5.8317    4.0180 C.ar      2 RES2    0.0000
    109 H40       21.4511    5.8625    4.0587 H         2 RES2    0.0000
    110 C70       19.7810    6.9834    3.7357 C.ar      2 RES2    0.0000
    111 C71       18.3869    6.9518    3.6721 C.ar      2 RES2    0.0000
    112 C72       17.5996    8.0843    3.2118 C.ar      2 RES2    0.0000
@<TRIPOS>BOND
     1    1    2 ar
     2    2    3 1
     3    4    2 ar
     4    5    4 1
     5    6    4 ar
     6    7    6 1
     7    8    6 ar
     8    9    8 ar
     9   10    9 ar
    10   11   10 1
    11   12   10 ar
    12   13   12 1
    13   14   12 ar
    14   15   14 1
    15   16   14 ar
    16   17   16 1
    17   18    9 ar
    18   19   18 ar
    19   20   19 ar
    20   21   20 1
    21   22   20 ar
    22   23   22 1
    23   24   22 ar
    24   25   24 1
    25   26   24 ar
    26   27   19 ar
    27   28    1 ar
    28   29    1 1
    29   30   29 ar
    30   31   30 1
    31   32   30 ar
    32   33   32 1
    33   34   32 ar
    34   35   34 1
    35   36   34 ar
    36   37   36 ar
    37   38   37 ar
    38   39   38 1
    39   40   38 ar
    40   41   40 1
    41   42   40 ar
    42   43   42 1
    43   44   42 ar
    44   45   44 1
    45   46   37 ar
    46   47   46 ar
    47   48   47 ar
    48   49   48 1
    49   50   48 ar
    50   51   50 1
    51   52   50 ar
    52   53   52 1
    53   54   26 1
    54   55   47 ar
    55   56   29 ar
    56   57   58 ar
    57   58   59 1
    58   60   58 ar
    59   61   60 1
    60   62   60 ar
    61   63   62 1
    62   64   62 ar
    63   65   64 ar
    64   66   65 ar
    65   67   66 1
    66   68   66 ar
    67   69   68 1
    68   70   68 ar
    69   71   70 1
    70   72   70 ar
    71   73   72 1
    72   74   65 ar
    73   75   74 ar
    74   76   75 ar
    75   77   76 1
    76   78   76 ar
    77   79   78 1
    78   80   78 ar
    79   81   80 1
    80   82   80 ar
    81   83   75 ar
    82   84   57 ar
    83   85   57 1
    84   86   85 ar
    85   87   86 1
    86   88   86 ar
    87   89   88 1
    88   90   88 ar
    89   91   90 1
    90   92   90 ar
    91   93   92 ar
    92   94   93 ar
    93   95   94 1
    94   96   94 ar
    95   97   96 1
    96   98   96 ar
    97   99   98 1
    98  100   98 ar
    99  101  100 1
   100  102   93 ar
   101  103  102 ar
   102  104  103 ar
   103  105  104 1
   104  106  104 ar
   105  107  106 1
   106  108  106 ar
   107  109  108 1
   108  110   82 1
   109  111  103 ar
   110  112   85 ar
   111    8   28 ar
   112   16   18 ar
   113   26   27 ar
   114   27   28 ar
   115   36   56 ar
   116   44   46 ar
   117   52   54 ar
   118   54   55 ar
   119   55   56 ar
   120   64   84 ar
   121   72   74 ar
   122   82   83 ar
   123   83   84 ar
   124   92  112 ar
   125  100  102 ar
   126  108  110 ar
   127  110  111 ar
   128  111  112 ar
@<TRIPOS>SUBSTRUCTURE
     1 RES1 1
     2 RES2 57

@<TRIPOS>CRYSIN
  22.5120    7.7037   25.6550  90.0000  97.5910  90.0000 231 1

