# MOL2 file generated by ConQuest
# Please check atom types

@<TRIPOS>MOLECULE
JAKROC
    34    37     1
SMALL
NO_CHARGES
****
Generated from CSD

@<TRIPOS>ATOM
      1 C1         1.6724    0.7794    3.0176 C.ar      1 RES1    0.0000
      2 C2         0.9876   -0.1258    3.8139 C.ar      1 RES1    0.0000
      3 C3         1.6732   -1.3306    4.1405 C.ar      1 RES1    0.0000
      4 C4         2.9312   -1.5882    3.7042 C.ar      1 RES1    0.0000
      5 C5         4.9421   -0.9010    2.4253 C.ar      1 RES1    0.0000
      6 C6         5.5859    0.0192    1.6412 C.ar      1 RES1    0.0000
      7 C7         4.9395    1.2204    1.2967 C.ar      1 RES1    0.0000
      8 C8         3.6792    1.4786    1.7379 C.ar      1 RES1    0.0000
      9 C9         2.9795    0.5470    2.5520 C.ar      1 RES1    0.0000
     10 C10        3.6392   -0.6626    2.8933 C.ar      1 RES1    0.0000
     11 H1         1.2226    1.6056    2.7706 H         1 RES1    0.0000
     12 H2         1.2184   -1.9890    4.6881 H         1 RES1    0.0000
     13 H3         3.3666   -2.4204    3.9569 H         1 RES1    0.0000
     14 H4         5.4055   -1.7254    2.6731 H         1 RES1    0.0000
     15 H5         6.4946   -0.1558    1.3406 H         1 RES1    0.0000
     16 H6         5.4078    1.8692    0.7312 H         1 RES1    0.0000
     17 H7         3.2339    2.3065    1.4787 H         1 RES1    0.0000
     18 C2B       -0.3753    0.1258    4.3111 C.ar      1 RES1    0.0000
     19 C1B       -1.0600   -0.7794    5.1073 C.ar      1 RES1    0.0000
     20 C3B       -1.0609    1.3306    3.9845 C.ar      1 RES1    0.0000
     21 C9B       -2.3672   -0.5470    5.5729 C.ar      1 RES1    0.0000
     22 H1B       -0.6102   -1.6056    5.3543 H         1 RES1    0.0000
     23 C4B       -2.3189    1.5882    4.4208 C.ar      1 RES1    0.0000
     24 H2B       -0.6061    1.9890    3.4369 H         1 RES1    0.0000
     25 C8B       -3.0668   -1.4786    6.3870 C.ar      1 RES1    0.0000
     26 C10B      -3.0269    0.6626    5.2317 C.ar      1 RES1    0.0000
     27 H3B       -2.7542    2.4204    4.1681 H         1 RES1    0.0000
     28 C7B       -4.3272   -1.2204    6.8282 C.ar      1 RES1    0.0000
     29 H7B       -2.6215   -2.3065    6.6462 H         1 RES1    0.0000
     30 C5B       -4.3298    0.9010    5.6997 C.ar      1 RES1    0.0000
     31 C6B       -4.9736   -0.0192    6.4837 C.ar      1 RES1    0.0000
     32 H6B       -4.7955   -1.8692    7.3937 H         1 RES1    0.0000
     33 H4B       -4.7932    1.7254    5.4518 H         1 RES1    0.0000
     34 H5B       -5.8822    0.1558    6.7843 H         1 RES1    0.0000
@<TRIPOS>BOND
     1    1    2 ar
     2    2   18 1
     3    3    2 ar
     4    4    3 ar
     5    5    6 ar
     6    6    7 ar
     7    7    8 ar
     8    8    9 ar
     9    9    1 ar
    10   10    4 ar
    11   11    1 1
    12   12    3 1
    13   13    4 1
    14   14    5 1
    15   15    6 1
    16   16    7 1
    17   17    8 1
    18   18   19 ar
    19   19   21 ar
    20   20   18 ar
    21   21   25 ar
    22   22   19 1
    23   23   20 ar
    24   24   20 1
    25   25   28 ar
    26   26   21 ar
    27   27   23 1
    28   28   31 ar
    29   29   25 1
    30   30   26 ar
    31   31   30 ar
    32   32   28 1
    33   33   30 1
    34   34   31 1
    35    5   10 ar
    36    9   10 ar
    37   23   26 ar
@<TRIPOS>SUBSTRUCTURE
     1 RES1 1

@<TRIPOS>CRYSIN
  13.5170    5.9910    8.1480  90.0000  85.6900  90.0000  14 1

