# MOL2 file generated by ConQuest
# Please check atom types

@<TRIPOS>MOLECULE
JALPUI
   110   120     1
SMALL
NO_CHARGES
****
Generated from CSD

@<TRIPOS>ATOM
      1 C1         7.8244    8.7386    5.2681 C.ar      1 RES1    0.0000
      2 H1         7.7117    9.5509    5.7268 H         1 RES1    0.0000
      3 C2         7.3114    7.5288    5.8479 C.ar      1 RES1    0.0000
      4 C3         6.4774    7.4975    7.0211 C.ar      1 RES1    0.0000
      5 C4         5.5897    6.4371    7.0752 C.ar      1 RES1    0.0000
      6 C5         4.4882    6.1009    8.0759 C.3       1 RES1    0.0000
      7 H2         4.8621    5.7103    8.8934 H         1 RES1    0.0000
      8 H3         3.9701    6.8987    8.3113 H         1 RES1    0.0000
      9 C6         3.6437    5.1101    7.3470 C.ar      1 RES1    0.0000
     10 C7         2.4123    4.5840    7.7246 C.ar      1 RES1    0.0000
     11 H4         2.0693    4.7385    8.5865 H         1 RES1    0.0000
     12 C8         1.7040    3.8308    6.8095 C.ar      1 RES1    0.0000
     13 H5         0.8963    3.4227    7.0668 H         1 RES1    0.0000
     14 C9         2.1687    3.6692    5.5215 C.ar      1 RES1    0.0000
     15 H6         1.6420    3.2007    4.8996 H         1 RES1    0.0000
     16 C10        3.4053    4.1861    5.1163 C.ar      1 RES1    0.0000
     17 C11        4.1819    4.8278    6.0910 C.ar      1 RES1    0.0000
     18 C12        5.5091    5.4904    6.0189 C.ar      1 RES1    0.0000
     19 C13        6.5872    5.2939    5.1504 C.ar      1 RES1    0.0000
     20 C14        7.5438    6.3380    5.1101 C.ar      1 RES1    0.0000
     21 C15        6.5891    8.6167    8.0705 C.3       1 RES1    0.0000
     22 C16        8.0668    8.9959    8.3160 C.3       1 RES1    0.0000
     23 H7         8.4720    9.2712    7.4804 H         1 RES1    0.0000
     24 H8         8.5438    8.2286    8.6688 H         1 RES1    0.0000
     25 H9         8.1124    9.7261    8.9533 H         1 RES1    0.0000
     26 C17        5.7820    9.8490    7.6268 C.3       1 RES1    0.0000
     27 H10        6.1111   10.1593    6.7692 H         1 RES1    0.0000
     28 H11        5.8819   10.5543    8.2851 H         1 RES1    0.0000
     29 H12        4.8454    9.6108    7.5459 H         1 RES1    0.0000
     30 C18        6.0820    8.2003    9.4567 C.3       1 RES1    0.0000
     31 H13        6.3678    8.8533   10.1155 H         1 RES1    0.0000
     32 H14        6.4447    7.3297    9.6850 H         1 RES1    0.0000
     33 H15        5.1129    8.1557    9.4473 H         1 RES1    0.0000
     34 C19        3.7047    4.2394    3.6638 C.ar      1 RES1    0.0000
     35 C20        3.7518    3.1151    2.8509 C.ar      1 RES1    0.0000
     36 H16        3.6256    2.2615    3.2246 H         1 RES1    0.0000
     37 C21        3.9840    3.2464    1.4955 C.ar      1 RES1    0.0000
     38 H17        4.0410    2.4770    0.9582 H         1 RES1    0.0000
     39 C22        4.1309    4.4871    0.9251 C.ar      1 RES1    0.0000
     40 H18        4.2755    4.5676    0.0000 H         1 RES1    0.0000
     41 C23        4.0659    5.6058    1.7117 C.ar      1 RES1    0.0000
     42 H19        4.1555    6.4569    1.3232 H         1 RES1    0.0000
     43 C24        3.8681    5.4875    3.0749 C.ar      1 RES1    0.0000
     44 H20        3.8436    6.2599    3.6101 H         1 RES1    0.0000
     45 C25        6.6812    4.0658    4.3286 C.ar      1 RES1    0.0000
     46 C26        6.4286    2.8276    4.9125 C.ar      1 RES1    0.0000
     47 H21        6.1897    2.7871    5.8204 H         1 RES1    0.0000
     48 C27        6.5208    1.6565    4.1852 C.ar      1 RES1    0.0000
     49 H22        6.3409    0.8304    4.5964 H         1 RES1    0.0000
     50 C28        6.8755    1.7010    2.8608 C.ar      1 RES1    0.0000
     51 H23        6.9481    0.9066    2.3637 H         1 RES1    0.0000
     52 C29        7.1249    2.9156    2.2619 C.ar      1 RES1    0.0000
     53 H24        7.3672    2.9439    1.3550 H         1 RES1    0.0000
     54 C30        7.0221    4.0899    2.9772 C.ar      1 RES1    0.0000
     55 H25        7.1836    4.9126    2.5509 H         1 RES1    0.0000
     56 C1B        8.4602    8.7386    4.0894 C.ar      1 RES1    0.0000
     57 H1B        8.5730    9.5509    3.6307 H         1 RES1    0.0000
     58 C2B        8.9733    7.5288    3.5096 C.ar      1 RES1    0.0000
     59 C3B        9.8073    7.4975    2.3364 C.ar      1 RES1    0.0000
     60 C4B       10.6949    6.4371    2.2823 C.ar      1 RES1    0.0000
     61 C5B       11.7964    6.1009    1.2816 C.3       1 RES1    0.0000
     62 H2B       11.4226    5.7103    0.4641 H         1 RES1    0.0000
     63 H3B       12.3146    6.8987    1.0462 H         1 RES1    0.0000
     64 C6B       12.6410    5.1101    2.0106 C.ar      1 RES1    0.0000
     65 C7B       13.8724    4.5840    1.6329 C.ar      1 RES1    0.0000
     66 H4B       14.2154    4.7385    0.7711 H         1 RES1    0.0000
     67 C8B       14.5807    3.8308    2.5481 C.ar      1 RES1    0.0000
     68 H5B       15.3884    3.4227    2.2907 H         1 RES1    0.0000
     69 C9B       14.1160    3.6692    3.8360 C.ar      1 RES1    0.0000
     70 H6B       14.6426    3.2007    4.4579 H         1 RES1    0.0000
     71 C10B      12.8793    4.1861    4.2412 C.ar      1 RES1    0.0000
     72 C11B      12.1028    4.8278    3.2665 C.ar      1 RES1    0.0000
     73 C12B      10.7756    5.4904    3.3386 C.ar      1 RES1    0.0000
     74 C13B       9.6975    5.2939    4.2071 C.ar      1 RES1    0.0000
     75 C14B       8.7409    6.3380    4.2474 C.ar      1 RES1    0.0000
     76 C25B       9.6035    4.0658    5.0289 C.ar      1 RES1    0.0000
     77 C26B       9.8561    2.8276    4.4450 C.ar      1 RES1    0.0000
     78 H21B      10.0949    2.7871    3.5371 H         1 RES1    0.0000
     79 C27B       9.7638    1.6565    5.1723 C.ar      1 RES1    0.0000
     80 H22B       9.9438    0.8304    4.7611 H         1 RES1    0.0000
     81 C28B       9.4092    1.7010    6.4967 C.ar      1 RES1    0.0000
     82 H23B       9.3366    0.9066    6.9938 H         1 RES1    0.0000
     83 C29B       9.1598    2.9156    7.0956 C.ar      1 RES1    0.0000
     84 H24B       8.9174    2.9439    8.0025 H         1 RES1    0.0000
     85 C30B       9.2626    4.0899    6.3803 C.ar      1 RES1    0.0000
     86 H25B       9.1011    4.9126    6.8067 H         1 RES1    0.0000
     87 C19B      12.5800    4.2394    5.6937 C.ar      1 RES1    0.0000
     88 C20B      12.5329    3.1151    6.5067 C.ar      1 RES1    0.0000
     89 H16B      12.6590    2.2615    6.1329 H         1 RES1    0.0000
     90 C21B      12.3006    3.2464    7.8620 C.ar      1 RES1    0.0000
     91 H17B      12.2437    2.4770    8.3993 H         1 RES1    0.0000
     92 C22B      12.1538    4.4871    8.4324 C.ar      1 RES1    0.0000
     93 H18B      12.0092    4.5676    9.3575 H         1 RES1    0.0000
     94 C23B      12.2188    5.6058    7.6458 C.ar      1 RES1    0.0000
     95 H19B      12.1292    6.4569    8.0344 H         1 RES1    0.0000
     96 C24B      12.4166    5.4875    6.2826 C.ar      1 RES1    0.0000
     97 H20B      12.4411    6.2599    5.7474 H         1 RES1    0.0000
     98 C15B       9.6956    8.6167    1.2870 C.3       1 RES1    0.0000
     99 C16B       8.2179    8.9959    1.0415 C.3       1 RES1    0.0000
    100 H7B        7.8127    9.2712    1.8771 H         1 RES1    0.0000
    101 H8B        7.7409    8.2286    0.6887 H         1 RES1    0.0000
    102 H9B        8.1722    9.7261    0.4042 H         1 RES1    0.0000
    103 C17B      10.5027    9.8490    1.7308 C.3       1 RES1    0.0000
    104 H10B      10.1735   10.1593    2.5883 H         1 RES1    0.0000
    105 H11B      10.4028   10.5543    1.0724 H         1 RES1    0.0000
    106 H12B      11.4392    9.6108    1.8116 H         1 RES1    0.0000
    107 C18B      10.2027    8.2003   -0.0992 C.3       1 RES1    0.0000
    108 H13B       9.9168    8.8533   -0.7580 H         1 RES1    0.0000
    109 H14B       9.8400    7.3297   -0.3275 H         1 RES1    0.0000
    110 H15B      11.1718    8.1557   -0.0898 H         1 RES1    0.0000
@<TRIPOS>BOND
     1    1    2 1
     2    3    1 ar
     3    4    3 ar
     4    5    4 ar
     5    6    5 1
     6    7    6 1
     7    8    6 1
     8    9    6 1
     9   10    9 ar
    10   11   10 1
    11   12   10 ar
    12   13   12 1
    13   14   12 ar
    14   15   14 1
    15   16   14 ar
    16   17    9 ar
    17   18    5 ar
    18   19   18 ar
    19   20    3 ar
    20   21    4 1
    21   22   21 1
    22   23   22 1
    23   24   22 1
    24   25   22 1
    25   26   21 1
    26   27   26 1
    27   28   26 1
    28   29   26 1
    29   30   21 1
    30   31   30 1
    31   32   30 1
    32   33   30 1
    33   34   16 1
    34   35   34 ar
    35   36   35 1
    36   37   35 ar
    37   38   37 1
    38   39   37 ar
    39   40   39 1
    40   41   39 ar
    41   42   41 1
    42   43   34 ar
    43   44   43 1
    44   45   19 1
    45   46   45 ar
    46   47   46 1
    47   48   46 ar
    48   49   48 1
    49   50   48 ar
    50   51   50 1
    51   52   50 ar
    52   53   52 1
    53   54   45 ar
    54   55   54 1
    55   56    1 ar
    56   57   56 1
    57   58   56 ar
    58   59   58 ar
    59   60   59 ar
    60   61   60 1
    61   62   61 1
    62   63   61 1
    63   64   61 1
    64   65   64 ar
    65   66   65 1
    66   67   65 ar
    67   68   67 1
    68   69   67 ar
    69   70   69 1
    70   71   69 ar
    71   72   64 ar
    72   73   60 ar
    73   74   73 ar
    74   75   20 ar
    75   76   74 1
    76   77   76 ar
    77   78   77 1
    78   79   77 ar
    79   80   79 1
    80   81   79 ar
    81   82   81 1
    82   83   81 ar
    83   84   83 1
    84   85   76 ar
    85   86   85 1
    86   87   71 1
    87   88   87 ar
    88   89   88 1
    89   90   88 ar
    90   91   90 1
    91   92   90 ar
    92   93   92 1
    93   94   92 ar
    94   95   94 1
    95   96   87 ar
    96   97   96 1
    97   98   59 1
    98   99   98 1
    99  100   99 1
   100  101   99 1
   101  102   99 1
   102  103   98 1
   103  104  103 1
   104  105  103 1
   105  106  103 1
   106  107   98 1
   107  108  107 1
   108  109  107 1
   109  110  107 1
   110   16   17 ar
   111   17   18 1
   112   19   20 ar
   113   41   43 ar
   114   52   54 ar
   115   58   75 ar
   116   71   72 ar
   117   72   73 1
   118   74   75 ar
   119   83   85 ar
   120   94   96 ar
@<TRIPOS>SUBSTRUCTURE
     1 RES1 1

@<TRIPOS>CRYSIN
  20.4960   10.8830   20.5230  90.0000 114.2300  90.0000  15 1

