# MOL2 file generated by ConQuest
# Please check atom types

@<TRIPOS>MOLECULE
JALQAP
    61    66     1
SMALL
NO_CHARGES
****
Generated from CSD

@<TRIPOS>ATOM
      1 C1         7.1449    1.2256   17.9146 C.ar      1 RES1    0.0000
      2 C2         6.4680    1.6248   16.7809 C.ar      1 RES1    0.0000
      3 H1         6.0115    2.4470   16.7859 H         1 RES1    0.0000
      4 C3         6.4424    0.8200   15.5978 C.ar      1 RES1    0.0000
      5 C4         5.7814    1.0741   14.3751 C.ar      1 RES1    0.0000
      6 H2         5.2788    1.8618   14.2642 H         1 RES1    0.0000
      7 C5         5.8761    0.1650   13.3501 C.ar      1 RES1    0.0000
      8 H3         5.4195    0.3412   12.5466 H         1 RES1    0.0000
      9 C6         6.6255   -1.0161   13.4515 C.ar      1 RES1    0.0000
     10 H4         6.6715   -1.6160   12.7299 H         1 RES1    0.0000
     11 C7         7.2830   -1.2762   14.6074 C.ar      1 RES1    0.0000
     12 C8         8.1713   -2.3519   15.0928 C.ar      1 RES1    0.0000
     13 C9         8.6712   -3.4668   14.4596 C.ar      1 RES1    0.0000
     14 H5         8.4270   -3.6634   13.5724 H         1 RES1    0.0000
     15 C10        9.5401   -4.2911   15.1499 C.ar      1 RES1    0.0000
     16 H6         9.8887   -5.0531   14.7224 H         1 RES1    0.0000
     17 C11        9.9047   -4.0213   16.4445 C.ar      1 RES1    0.0000
     18 H7        10.4940   -4.5987   16.8953 H         1 RES1    0.0000
     19 C12        9.4074   -2.9007   17.0943 C.ar      1 RES1    0.0000
     20 H8         9.6605   -2.7122   17.9803 H         1 RES1    0.0000
     21 C13        8.5376   -2.0651   16.4226 C.ar      1 RES1    0.0000
     22 C14        7.8820   -0.7863   16.8034 C.ar      1 RES1    0.0000
     23 C15        7.1635   -0.3566   15.6667 C.ar      1 RES1    0.0000
     24 C16        7.8572   -0.0136   17.9531 C.ar      1 RES1    0.0000
     25 C17        7.1423    2.1211   19.1566 C.3       1 RES1    0.0000
     26 H9         7.7360    1.6408   19.7866 H         1 RES1    0.0000
     27 C18        7.8599    3.4447   18.9375 C.ar      1 RES1    0.0000
     28 C19        9.0570    3.6461   19.6125 C.ar      1 RES1    0.0000
     29 H10        9.3968    2.9615   20.1591 H         1 RES1    0.0000
     30 C20        9.7604    4.8298   19.4986 C.ar      1 RES1    0.0000
     31 H11       10.5674    4.9417   19.9669 H         1 RES1    0.0000
     32 C21        9.2826    5.8486   18.6995 C.ar      1 RES1    0.0000
     33 H12        9.7525    6.6585   18.6307 H         1 RES1    0.0000
     34 C22        8.1165    5.6634   18.0119 C.ar      1 RES1    0.0000
     35 H13        7.7900    6.3473   17.4570 H         1 RES1    0.0000
     36 C23        7.4113    4.4744   18.1254 C.ar      1 RES1    0.0000
     37 H14        6.6123    4.3653   17.6433 H         1 RES1    0.0000
     38 C24        5.7867    2.2219   19.9379 C.3       1 RES1    0.0000
     39 C25        4.6834    2.9808   19.2261 C.3       1 RES1    0.0000
     40 H15        3.8852    2.9827   19.7777 H         1 RES1    0.0000
     41 H16        4.4905    2.5513   18.3794 H         1 RES1    0.0000
     42 H17        4.9691    3.8950   19.0682 H         1 RES1    0.0000
     43 C26        6.0725    2.9102   21.2718 C.3       1 RES1    0.0000
     44 H18        6.4079    3.8049   21.1081 H         1 RES1    0.0000
     45 H19        6.7361    2.3993   21.7614 H         1 RES1    0.0000
     46 H20        5.2549    2.9597   21.7910 H         1 RES1    0.0000
     47 C27        5.2859    0.8145   20.2229 C.3       1 RES1    0.0000
     48 H21        4.5028    0.8593   20.7947 H         1 RES1    0.0000
     49 H22        5.9823    0.3076   20.6676 H         1 RES1    0.0000
     50 H23        5.0514    0.3801   19.3875 H         1 RES1    0.0000
     51 C28        8.5412   -0.5226   19.1782 C.ar      1 RES1    0.0000
     52 C29        9.7967   -0.0801   19.5678 C.ar      1 RES1    0.0000
     53 H24       10.2144    0.6171   19.0948 H         1 RES1    0.0000
     54 C30       10.4373   -0.6582   20.6478 C.ar      1 RES1    0.0000
     55 H25       11.2938   -0.3589   20.8952 H         1 RES1    0.0000
     56 C31        9.8392   -1.6655   21.3650 C.ar      1 RES1    0.0000
     57 H26       10.2763   -2.0474   22.1043 H         1 RES1    0.0000
     58 C32        8.6066   -2.1013   20.9931 C.ar      1 RES1    0.0000
     59 H27        8.1908   -2.7900   21.4776 H         1 RES1    0.0000
     60 C33        7.9625   -1.5446   19.9122 C.ar      1 RES1    0.0000
     61 H28        7.1140   -1.8635   19.6683 H         1 RES1    0.0000
@<TRIPOS>BOND
     1    1    2 ar
     2    2    3 1
     3    4    2 ar
     4    5    4 ar
     5    6    5 1
     6    7    5 ar
     7    8    7 1
     8    9    7 ar
     9   10    9 1
    10   11    9 ar
    11   12   11 1
    12   13   12 ar
    13   14   13 1
    14   15   13 ar
    15   16   15 1
    16   17   15 ar
    17   18   17 1
    18   19   17 ar
    19   20   19 1
    20   21   12 ar
    21   22   21 1
    22   23    4 ar
    23   24    1 ar
    24   25    1 1
    25   26   25 1
    26   27   25 1
    27   28   27 ar
    28   29   28 1
    29   30   28 ar
    30   31   30 1
    31   32   30 ar
    32   33   32 1
    33   34   32 ar
    34   35   34 1
    35   36   27 ar
    36   37   36 1
    37   38   25 1
    38   39   38 1
    39   40   39 1
    40   41   39 1
    41   42   39 1
    42   43   38 1
    43   44   43 1
    44   45   43 1
    45   46   43 1
    46   47   38 1
    47   48   47 1
    48   49   47 1
    49   50   47 1
    50   51   24 1
    51   52   51 ar
    52   53   52 1
    53   54   52 ar
    54   55   54 1
    55   56   54 ar
    56   57   56 1
    57   58   56 ar
    58   59   58 1
    59   60   51 ar
    60   61   60 1
    61   11   23 ar
    62   19   21 ar
    63   22   23 ar
    64   22   24 ar
    65   34   36 ar
    66   58   60 ar
@<TRIPOS>SUBSTRUCTURE
     1 RES1 1

@<TRIPOS>CRYSIN
   8.8482   17.6806   29.5631  90.0000  90.0000  90.0000  61 1

