# MOL2 file generated by ConQuest
# Please check atom types

@<TRIPOS>MOLECULE
JASDAL
    38    41     1
SMALL
NO_CHARGES
****
Generated from CSD

@<TRIPOS>ATOM
      1 C1         4.9554    3.8431    5.5489 C.ar      1 RES1    0.0000
      2 C2         3.0347    2.3258    5.4941 C.ar      1 RES1    0.0000
      3 C3         3.6076    3.5629    5.8987 C.ar      1 RES1    0.0000
      4 C4         5.1236    1.7063    4.4240 C.ar      1 RES1    0.0000
      5 C5         1.6909    2.0389    5.8359 C.ar      1 RES1    0.0000
      6 C6         3.8333    1.4061    4.7592 C.ar      1 RES1    0.0000
      7 C7         5.7142    2.9513    4.8086 C.ar      1 RES1    0.0000
      8 C8         2.8112    4.4806    6.6361 C.ar      1 RES1    0.0000
      9 C9         7.0793    3.3153    4.4242 C.2       1 RES1    0.0000
     10 C10        1.5087    4.1748    6.9576 C.ar      1 RES1    0.0000
     11 C11        0.9426    2.9438    6.5551 C.ar      1 RES1    0.0000
     12 H1         3.2124    5.3510    6.9148 H         1 RES1    0.0000
     13 H2         3.4327    0.5381    4.4847 H         1 RES1    0.0000
     14 H3         5.3626    4.7274    5.8491 H         1 RES1    0.0000
     15 H4         5.6361    1.0393    3.9050 H         1 RES1    0.0000
     16 H5         0.9775    4.8462    7.4801 H         1 RES1    0.0000
     17 H6        -0.0158    2.7082    6.7979 H         1 RES1    0.0000
     18 H7         1.3091    1.1522    5.5392 H         1 RES1    0.0000
     19 H8         7.4388    4.1811    4.8546 H         1 RES1    0.0000
     20 C1B        9.9984    2.0959    2.4581 C.ar      1 RES1    0.0000
     21 C2B       11.9190    3.6132    2.5128 C.ar      1 RES1    0.0000
     22 C3B       11.3461    2.3761    2.1082 C.ar      1 RES1    0.0000
     23 C4B        9.8301    4.2327    3.5829 C.ar      1 RES1    0.0000
     24 C5B       13.2628    3.9001    2.1710 C.ar      1 RES1    0.0000
     25 C6B       11.1204    4.5329    3.2477 C.ar      1 RES1    0.0000
     26 C7B        9.2395    2.9877    3.1983 C.ar      1 RES1    0.0000
     27 C8B       12.1425    1.4584    1.3709 C.ar      1 RES1    0.0000
     28 C9B        7.8745    2.6237    3.5827 C.2       1 RES1    0.0000
     29 C10B      13.4450    1.7642    1.0494 C.ar      1 RES1    0.0000
     30 C11B      14.0111    2.9952    1.4518 C.ar      1 RES1    0.0000
     31 H1B       11.7413    0.5880    1.0921 H         1 RES1    0.0000
     32 H2B       11.5210    5.4009    3.5223 H         1 RES1    0.0000
     33 H3B        9.5911    1.2116    2.1579 H         1 RES1    0.0000
     34 H4B        9.3176    4.8997    4.1020 H         1 RES1    0.0000
     35 H5B       13.9762    1.0928    0.5269 H         1 RES1    0.0000
     36 H6B       14.9696    3.2308    1.2090 H         1 RES1    0.0000
     37 H7B       13.6446    4.7868    2.4677 H         1 RES1    0.0000
     38 H8B        7.5150    1.7579    3.1523 H         1 RES1    0.0000
@<TRIPOS>BOND
     1    1    3 ar
     2    2    3 ar
     3    3    8 ar
     4    4    6 ar
     5    5    2 ar
     6    6    2 ar
     7    7    1 ar
     8    8   10 ar
     9    9    7 1
    10   10   11 ar
    11   11    5 ar
    12   12    8 1
    13   13    6 1
    14   14    1 1
    15   15    4 1
    16   16   10 1
    17   17   11 1
    18   18    5 1
    19   19    9 1
    20   20   22 ar
    21   21   22 ar
    22   22   27 ar
    23   23   25 ar
    24   24   21 ar
    25   25   21 ar
    26   26   20 ar
    27   27   29 ar
    28   28    9 2
    29   29   30 ar
    30   30   24 ar
    31   31   27 1
    32   32   25 1
    33   33   20 1
    34   34   23 1
    35   35   29 1
    36   36   30 1
    37   37   24 1
    38   38   28 1
    39    4    7 ar
    40   23   26 ar
    41   26   28 1
@<TRIPOS>SUBSTRUCTURE
     1 RES1 1

@<TRIPOS>CRYSIN
  15.3410    5.9390    8.0163  90.0000  92.7690  90.0000  14 1

