# MOL2 file generated by ConQuest
# Please check atom types

@<TRIPOS>MOLECULE
JASRIE
    43    46     1
SMALL
NO_CHARGES
****
Generated from CSD

@<TRIPOS>ATOM
      1 C1         4.6460    0.7837    2.1540 C.ar      1 RES1    0.0000
      2 C2         5.0498   -0.0195    3.2311 C.ar      1 RES1    0.0000
      3 C3         4.3321   -0.0249    4.3824 C.ar      1 RES1    0.0000
      4 C4         3.1669    0.7668    4.5311 C.ar      1 RES1    0.0000
      5 C5         2.7697    1.5726    3.4329 C.ar      1 RES1    0.0000
      6 C6         3.5163    1.5655    2.2305 C.ar      1 RES1    0.0000
      7 C7         1.6004    2.3776    3.5943 C.ar      1 RES1    0.0000
      8 C8         0.8803    2.4016    4.7351 C.ar      1 RES1    0.0000
      9 C9         1.2478    1.6117    5.8779 C.ar      1 RES1    0.0000
     10 C10        2.3940    0.7819    5.7654 C.ar      1 RES1    0.0000
     11 C11        2.7425   -0.0142    6.8721 C.ar      1 RES1    0.0000
     12 C12        2.0075    0.0284    8.0192 C.ar      1 RES1    0.0000
     13 C13        0.8820    0.8521    8.1552 C.ar      1 RES1    0.0000
     14 C14        0.4880    1.6455    7.0867 C.ar      1 RES1    0.0000
     15 C15       -0.7796    2.4789    7.1695 C.3       1 RES1    0.0000
     16 C16       -1.1594    2.8094    8.6247 C.3       1 RES1    0.0000
     17 C17       -1.1875    1.5371    9.4659 C.3       1 RES1    0.0000
     18 C18        0.1470    0.8459    9.4786 C.3       1 RES1    0.0000
     19 C19        3.1067    2.3972    1.0537 C.3       1 RES1    0.0000
     20 C20       -1.9167    1.7592    6.4430 C.3       1 RES1    0.0000
     21 C21       -0.2337    3.8472    9.2322 C.3       1 RES1    0.0000
     22 H1         5.1695    0.7641    1.3383 H         1 RES1    0.0000
     23 H2         5.9045   -0.6219    3.1015 H         1 RES1    0.0000
     24 H3         4.5584   -0.5598    5.1408 H         1 RES1    0.0000
     25 H4         1.3295    2.9054    2.9103 H         1 RES1    0.0000
     26 H5         0.1239    2.9942    4.7372 H         1 RES1    0.0000
     27 H6         3.5014   -0.5242    6.8615 H         1 RES1    0.0000
     28 H7         2.2875   -0.5331    8.7734 H         1 RES1    0.0000
     29 H8        -0.6441    3.3408    6.6915 H         1 RES1    0.0000
     30 H9        -2.0150    3.1986    8.6247 H         1 RES1    0.0000
     31 H10       -1.4864    1.7503   10.3453 H         1 RES1    0.0000
     32 H11       -1.8663    0.9329    9.1132 H         1 RES1    0.0000
     33 H12        0.0330   -0.0622    9.7081 H         1 RES1    0.0000
     34 H13        0.7267    1.1817   10.1966 H         1 RES1    0.0000
     35 H14        3.6996    2.2746    0.3399 H         1 RES1    0.0000
     36 H15        3.1215    3.3230    1.2958 H         1 RES1    0.0000
     37 H16        2.2049    2.3190    0.7647 H         1 RES1    0.0000
     38 H17       -2.7995    2.3101    6.5216 H         1 RES1    0.0000
     39 H18       -2.1223    0.8885    6.8615 H         1 RES1    0.0000
     40 H19       -1.7011    1.6615    5.5019 H         1 RES1    0.0000
     41 H20       -0.2973    4.5847    8.6884 H         1 RES1    0.0000
     42 H21        0.7928    3.5273    9.2832 H         1 RES1    0.0000
     43 H22       -0.4790    4.0427   10.1542 H         1 RES1    0.0000
@<TRIPOS>BOND
     1    1    2 ar
     2    2    3 ar
     3    3    4 ar
     4    4    5 ar
     5    5    6 ar
     6    6    1 ar
     7    7    5 ar
     8    8    7 ar
     9    9    8 ar
    10   10    4 ar
    11   11   10 ar
    12   12   11 ar
    13   13   12 ar
    14   14    9 ar
    15   15   14 1
    16   16   15 1
    17   17   16 1
    18   18   13 1
    19   19    6 1
    20   20   15 1
    21   21   16 1
    22   22    1 1
    23   23    2 1
    24   24    3 1
    25   25    7 1
    26   26    8 1
    27   27   11 1
    28   28   12 1
    29   29   15 1
    30   30   16 1
    31   31   17 1
    32   32   17 1
    33   33   18 1
    34   34   18 1
    35   35   19 1
    36   36   19 1
    37   37   19 1
    38   38   20 1
    39   39   20 1
    40   40   20 1
    41   41   21 1
    42   42   21 1
    43   43   21 1
    44    9   10 ar
    45   13   14 ar
    46   17   18 1
@<TRIPOS>SUBSTRUCTURE
     1 RES1 1

@<TRIPOS>CRYSIN
   8.2580    8.8850   21.2430  90.0000  90.0000  90.0000  19 1

