# MOL2 file generated by ConQuest
# Please check atom types

@<TRIPOS>MOLECULE
JEBBEX
    82    87     1
SMALL
NO_CHARGES
****
Generated from CSD

@<TRIPOS>ATOM
      1 C1        -1.2022   14.9073   -0.7284 C.2       1 RES1    0.0000
      2 C2        -0.7752   14.0990   -1.8360 C.3       1 RES1    0.0000
      3 H1        -0.9715   13.1761   -1.6533 H         1 RES1    0.0000
      4 H2         0.1691   14.2053   -1.9646 H         1 RES1    0.0000
      5 H3        -1.2403   14.3730   -2.6303 H         1 RES1    0.0000
      6 C3        -1.0429   16.2163   -0.7393 C.2       1 RES1    0.0000
      7 H4        -0.6482   16.6315   -1.4702 H         1 RES1    0.0000
      8 H5        -1.3256   16.7240   -0.0112 H         1 RES1    0.0000
      9 C4        -1.8557   14.2331    0.4361 C.ar      1 RES1    0.0000
     10 C5        -3.2032   14.3325    0.6046 C.ar      1 RES1    0.0000
     11 H6        -3.6962   14.8622    0.0187 H         1 RES1    0.0000
     12 C6        -3.8687   13.6572    1.6407 C.ar      1 RES1    0.0000
     13 H7        -4.7933   13.7382    1.7004 H         1 RES1    0.0000
     14 C7        -3.2237   12.8859    2.5639 C.ar      1 RES1    0.0000
     15 C8        -1.7863   12.8142    2.4690 C.ar      1 RES1    0.0000
     16 C9        -0.9783   12.1388    3.4198 C.ar      1 RES1    0.0000
     17 H8        -1.3828   11.7225    4.1465 H         1 RES1    0.0000
     18 C10        0.3801   12.0868    3.2917 C.ar      1 RES1    0.0000
     19 H9         0.8824   11.6370    3.9320 H         1 RES1    0.0000
     20 C11        1.0267   12.6974    2.2182 C.ar      1 RES1    0.0000
     21 H10        1.9518   12.6442    2.1390 H         1 RES1    0.0000
     22 C12        0.2973   13.3739    1.2847 C.ar      1 RES1    0.0000
     23 H11        0.7337   13.7821    0.5722 H         1 RES1    0.0000
     24 C13       -1.1165   13.4652    1.3810 C.ar      1 RES1    0.0000
     25 C14       -4.0312   12.2418    3.7113 C.3       1 RES1    0.0000
     26 C15       -5.5455   12.1435    3.3869 C.3       1 RES1    0.0000
     27 H12       -5.6687   11.6289    2.5862 H         1 RES1    0.0000
     28 H13       -5.9029   13.0258    3.2585 H         1 RES1    0.0000
     29 H14       -6.0020   11.7167    4.1150 H         1 RES1    0.0000
     30 C16       -3.8971   13.2212    4.8906 C.3       1 RES1    0.0000
     31 H15       -4.1418   14.1036    4.6032 H         1 RES1    0.0000
     32 H16       -2.9881   13.2270    5.2003 H         1 RES1    0.0000
     33 H17       -4.4769   12.9449    5.6048 H         1 RES1    0.0000
     34 C17       -3.5991   10.8136    4.0983 C.ar      1 RES1    0.0000
     35 C18       -3.4810   10.4678    5.4240 C.ar      1 RES1    0.0000
     36 H18       -3.6399   11.1177    6.0699 H         1 RES1    0.0000
     37 C19       -3.1310    9.1750    5.8425 C.ar      1 RES1    0.0000
     38 H19       -3.0965    8.9969    6.7545 H         1 RES1    0.0000
     39 C20       -2.8384    8.1689    4.9682 C.ar      1 RES1    0.0000
     40 C21       -2.9665    8.4649    3.5629 C.ar      1 RES1    0.0000
     41 C22       -2.7043    7.4912    2.5647 C.ar      1 RES1    0.0000
     42 H20       -2.3899    6.6540    2.8211 H         1 RES1    0.0000
     43 C23       -2.9008    7.7479    1.2398 C.ar      1 RES1    0.0000
     44 H21       -2.7350    7.0853    0.6087 H         1 RES1    0.0000
     45 C24       -3.3485    9.0003    0.8303 C.ar      1 RES1    0.0000
     46 H22       -3.5030    9.1634   -0.0723 H         1 RES1    0.0000
     47 C25       -3.5610    9.9833    1.7386 C.ar      1 RES1    0.0000
     48 H23       -3.8345   10.8217    1.4432 H         1 RES1    0.0000
     49 C26       -3.3755    9.7647    3.1383 C.ar      1 RES1    0.0000
     50 C27       -2.4982    6.7523    5.4957 C.3       1 RES1    0.0000
     51 C28       -3.7137    5.8584    5.1701 C.3       1 RES1    0.0000
     52 H24       -3.7915    5.7589    4.2185 H         1 RES1    0.0000
     53 H25       -4.5116    6.2643    5.5155 H         1 RES1    0.0000
     54 H26       -3.5932    4.9957    5.5741 H         1 RES1    0.0000
     55 C29       -2.3815    6.7245    7.0382 C.3       1 RES1    0.0000
     56 H27       -1.6975    7.3386    7.3183 H         1 RES1    0.0000
     57 H28       -2.1529    5.8376    7.3261 H         1 RES1    0.0000
     58 H29       -3.2213    6.9812    7.4271 H         1 RES1    0.0000
     59 C30       -1.1603    6.1637    4.9796 C.ar      1 RES1    0.0000
     60 C31       -1.1134    4.8777    4.5123 C.ar      1 RES1    0.0000
     61 H30       -1.9138    4.4186    4.3985 H         1 RES1    0.0000
     62 C32        0.0859    4.2221    4.1965 C.ar      1 RES1    0.0000
     63 H31        0.0564    3.3513    3.8723 H         1 RES1    0.0000
     64 C33        1.2961    4.8361    4.3549 C.ar      1 RES1    0.0000
     65 C34        1.3133    6.1856    4.8217 C.ar      1 RES1    0.0000
     66 C35        2.5447    6.8772    5.0058 C.ar      1 RES1    0.0000
     67 H32        3.3421    6.4354    4.8208 H         1 RES1    0.0000
     68 C36        2.5871    8.1573    5.4421 C.ar      1 RES1    0.0000
     69 H33        3.4046    8.5852    5.5621 H         1 RES1    0.0000
     70 C37        1.3925    8.8338    5.7119 C.ar      1 RES1    0.0000
     71 H34        1.4185    9.7208    5.9931 H         1 RES1    0.0000
     72 C38        0.1945    8.2094    5.5666 C.ar      1 RES1    0.0000
     73 H35       -0.5842    8.6789    5.7630 H         1 RES1    0.0000
     74 C39        0.0924    6.8633    5.1241 C.ar      1 RES1    0.0000
     75 C40        2.5618    4.1053    4.0419 C.2       1 RES1    0.0000
     76 C41        3.1755    4.3227    2.7639 C.3       1 RES1    0.0000
     77 H36        3.3708    5.2559    2.6587 H         1 RES1    0.0000
     78 H37        2.5739    4.0405    2.0695 H         1 RES1    0.0000
     79 H38        3.9882    3.8162    2.7089 H         1 RES1    0.0000
     80 C42        3.0750    3.2322    4.9631 C.2       1 RES1    0.0000
     81 H39        3.8483    2.7534    4.7706 H         1 RES1    0.0000
     82 H40        2.6492    3.1165    5.7833 H         1 RES1    0.0000
@<TRIPOS>BOND
     1    1    2 1
     2    2    3 1
     3    4    2 1
     4    5    2 1
     5    6    1 2
     6    7    6 1
     7    8    6 1
     8    9    1 1
     9   10    9 ar
    10   11   10 1
    11   12   10 ar
    12   13   12 1
    13   14   12 ar
    14   15   14 ar
    15   16   15 ar
    16   17   16 1
    17   18   16 ar
    18   19   18 1
    19   20   18 ar
    20   21   20 1
    21   22   20 ar
    22   23   22 1
    23   24    9 ar
    24   25   14 1
    25   26   25 1
    26   27   26 1
    27   28   26 1
    28   29   26 1
    29   30   25 1
    30   31   30 1
    31   32   30 1
    32   33   30 1
    33   34   25 1
    34   35   34 ar
    35   36   35 1
    36   37   35 ar
    37   38   37 1
    38   39   37 ar
    39   40   39 ar
    40   41   40 ar
    41   42   41 1
    42   43   41 ar
    43   44   43 1
    44   45   43 ar
    45   46   45 1
    46   47   45 ar
    47   48   47 1
    48   49   34 ar
    49   50   39 1
    50   51   50 1
    51   52   51 1
    52   53   51 1
    53   54   51 1
    54   55   50 1
    55   56   55 1
    56   57   55 1
    57   58   55 1
    58   59   50 1
    59   60   59 ar
    60   61   60 1
    61   62   60 ar
    62   63   62 1
    63   64   62 ar
    64   65   64 ar
    65   66   65 ar
    66   67   66 1
    67   68   66 ar
    68   69   68 1
    69   70   68 ar
    70   71   70 1
    71   72   70 ar
    72   73   72 1
    73   74   59 ar
    74   75   64 1
    75   76   75 1
    76   77   76 1
    77   78   76 1
    78   79   76 1
    79   80   75 2
    80   81   80 1
    81   82   80 1
    82   15   24 ar
    83   22   24 ar
    84   40   49 ar
    85   47   49 ar
    86   65   74 ar
    87   72   74 ar
@<TRIPOS>SUBSTRUCTURE
     1 RES1 1

