# MOL2 file generated by ConQuest
# Please check atom types

@<TRIPOS>MOLECULE
JEBMUZ
    90    98     1
SMALL
NO_CHARGES
****
Generated from CSD

@<TRIPOS>ATOM
      1 C1         6.3251    4.9238    4.9421 C.ar      1 RES1    0.0000
      2 C2         5.8133    6.1858    5.2447 C.ar      1 RES1    0.0000
      3 H1         5.6835    6.7982    4.5570 H         1 RES1    0.0000
      4 C3         5.4937    6.5458    6.5296 C.ar      1 RES1    0.0000
      5 H2         5.1635    7.3971    6.7060 H         1 RES1    0.0000
      6 C4         5.6628    5.6534    7.5507 C.ar      1 RES1    0.0000
      7 H3         5.4193    5.8787    8.4181 H         1 RES1    0.0000
      8 C5         6.1945    4.4200    7.2771 C.ar      1 RES1    0.0000
      9 H4         6.3108    3.8166    7.9747 H         1 RES1    0.0000
     10 C6         6.5643    4.0422    5.9990 C.ar      1 RES1    0.0000
     11 C7         6.5739    4.4904    3.5372 C.ar      1 RES1    0.0000
     12 C8         7.8122    4.7685    2.8732 C.ar      1 RES1    0.0000
     13 C9         8.7354    5.6892    3.4485 C.ar      1 RES1    0.0000
     14 H5         8.5976    5.9838    4.3191 H         1 RES1    0.0000
     15 C10        9.8148    6.1506    2.7543 C.ar      1 RES1    0.0000
     16 H6        10.4149    6.7371    3.1540 H         1 RES1    0.0000
     17 C11       10.0116    5.7365    1.4419 C.ar      1 RES1    0.0000
     18 H7        10.7108    6.0939    0.9418 H         1 RES1    0.0000
     19 C12        9.1848    4.8070    0.8839 C.ar      1 RES1    0.0000
     20 H8         9.3487    4.5353    0.0097 H         1 RES1    0.0000
     21 C13        8.0872    4.2359    1.5746 C.ar      1 RES1    0.0000
     22 C14        7.2249    3.2308    1.0127 C.ar      1 RES1    0.0000
     23 C15        5.9778    3.1295    1.5778 C.ar      1 RES1    0.0000
     24 C16        4.7487    2.3667    1.1247 C.3       1 RES1    0.0000
     25 H9         4.5496    2.5539    0.1942 H         1 RES1    0.0000
     26 H10        4.8761    1.4115    1.2331 H         1 RES1    0.0000
     27 C17        3.6583    2.8584    2.0074 C.ar      1 RES1    0.0000
     28 C18        2.3070    2.5877    1.9387 C.ar      1 RES1    0.0000
     29 H11        1.9679    2.0177    1.2865 H         1 RES1    0.0000
     30 C19        1.4693    3.1845    2.8611 C.ar      1 RES1    0.0000
     31 H12        0.5565    3.0125    2.8271 H         1 RES1    0.0000
     32 C20        1.9632    4.0289    3.8288 C.ar      1 RES1    0.0000
     33 H13        1.3779    4.4363    4.4243 H         1 RES1    0.0000
     34 C21        3.3183    4.2779    3.9244 C.ar      1 RES1    0.0000
     35 H14        3.6510    4.8349    4.5894 H         1 RES1    0.0000
     36 C22        4.1711    3.6818    3.0120 C.ar      1 RES1    0.0000
     37 C23        5.6260    3.8275    2.7963 C.ar      1 RES1    0.0000
     38 C24        7.7152    2.3377   -0.1621 C.3       1 RES1    0.0000
     39 C25        6.9551    1.0317   -0.2897 C.3       1 RES1    0.0000
     40 H15        7.4011    0.4622   -0.9208 H         1 RES1    0.0000
     41 H16        6.0622    1.2089   -0.5939 H         1 RES1    0.0000
     42 H17        6.9218    0.5957    0.5648 H         1 RES1    0.0000
     43 C26        7.5758    3.0857   -1.4972 C.3       1 RES1    0.0000
     44 H18        7.8514    2.5119   -2.2154 H         1 RES1    0.0000
     45 H19        8.1287    3.8703   -1.4839 H         1 RES1    0.0000
     46 H20        6.6597    3.3422   -1.6263 H         1 RES1    0.0000
     47 C27        9.1797    1.8927    0.0727 C.3       1 RES1    0.0000
     48 H21        9.2749    1.5672    0.9709 H         1 RES1    0.0000
     49 H22        9.7664    2.6414   -0.0599 H         1 RES1    0.0000
     50 H23        9.4062    1.1959   -0.5470 H         1 RES1    0.0000
     51 C28        7.2710    2.7417    5.7559 C.ar      1 RES1    0.0000
     52 C29        8.6355    2.6333    5.9531 C.ar      1 RES1    0.0000
     53 C30        9.5802    3.6146    6.5037 C.ar      1 RES1    0.0000
     54 C31        9.4385    4.9417    6.9034 C.ar      1 RES1    0.0000
     55 H24        8.6158    5.3700    6.8339 H         1 RES1    0.0000
     56 C32       10.5420    5.6150    7.4077 C.ar      1 RES1    0.0000
     57 H25       10.4552    6.5031    7.6689 H         1 RES1    0.0000
     58 C33       11.7759    4.9863    7.5281 C.ar      1 RES1    0.0000
     59 H26       12.5039    5.4532    7.8695 H         1 RES1    0.0000
     60 C34       11.9223    3.6718    7.1442 C.ar      1 RES1    0.0000
     61 H27       12.7433    3.2453    7.2352 H         1 RES1    0.0000
     62 C35       10.8326    2.9887    6.6191 C.ar      1 RES1    0.0000
     63 C36       10.7918    1.6197    6.0448 C.3       1 RES1    0.0000
     64 H28       11.0476    0.9605    6.7093 H         1 RES1    0.0000
     65 H29       11.3904    1.5473    5.2852 H         1 RES1    0.0000
     66 C37        9.3353    1.4174    5.6110 C.ar      1 RES1    0.0000
     67 C38        8.7161    0.3379    5.0384 C.ar      1 RES1    0.0000
     68 C39        7.2712    0.3884    4.9622 C.ar      1 RES1    0.0000
     69 C40        6.4568   -0.6907    4.5602 C.ar      1 RES1    0.0000
     70 H30        6.8701   -1.4819    4.3013 H         1 RES1    0.0000
     71 C41        5.0954   -0.6341    4.5327 C.ar      1 RES1    0.0000
     72 H31        4.6094   -1.3773    4.2560 H         1 RES1    0.0000
     73 C42        4.4332    0.5092    4.9081 C.ar      1 RES1    0.0000
     74 H32        3.5037    0.5379    4.8920 H         1 RES1    0.0000
     75 C43        5.1457    1.6058    5.3058 C.ar      1 RES1    0.0000
     76 H33        4.6974    2.3803    5.5571 H         1 RES1    0.0000
     77 C44        6.5717    1.5715    5.3391 C.ar      1 RES1    0.0000
     78 C45        9.4555   -0.9006    4.4712 C.3       1 RES1    0.0000
     79 C46        9.0831   -1.0714    2.9782 C.3       1 RES1    0.0000
     80 H34        9.4309   -0.3318    2.4743 H         1 RES1    0.0000
     81 H35        8.1276   -1.0981    2.8886 H         1 RES1    0.0000
     82 H36        9.4586   -1.8900    2.6458 H         1 RES1    0.0000
     83 C47        9.1666   -2.1762    5.2933 C.3       1 RES1    0.0000
     84 H37        9.5177   -2.9412    4.8321 H         1 RES1    0.0000
     85 H38        8.2183   -2.2785    5.4033 H         1 RES1    0.0000
     86 H39        9.5833   -2.1034    6.1558 H         1 RES1    0.0000
     87 C48       11.0028   -0.7870    4.4550 C.3       1 RES1    0.0000
     88 H40       11.2614   -0.0086    3.9566 H         1 RES1    0.0000
     89 H41       11.3773   -1.5693    4.0440 H         1 RES1    0.0000
     90 H42       11.3276   -0.7118    5.3564 H         1 RES1    0.0000
@<TRIPOS>BOND
     1    1    2 ar
     2    2    3 1
     3    4    2 ar
     4    5    4 1
     5    6    4 ar
     6    7    6 1
     7    8    6 ar
     8    9    8 1
     9   10    1 ar
    10   11    1 1
    11   12   11 ar
    12   13   12 ar
    13   14   13 1
    14   15   13 ar
    15   16   15 1
    16   17   15 ar
    17   18   17 1
    18   19   17 ar
    19   20   19 1
    20   21   12 ar
    21   22   21 ar
    22   23   22 ar
    23   24   23 1
    24   25   24 1
    25   26   24 1
    26   27   24 1
    27   28   27 ar
    28   29   28 1
    29   30   28 ar
    30   31   30 1
    31   32   30 ar
    32   33   32 1
    33   34   32 ar
    34   35   34 1
    35   36   27 ar
    36   37   11 ar
    37   38   22 1
    38   39   38 1
    39   40   39 1
    40   41   39 1
    41   42   39 1
    42   43   38 1
    43   44   43 1
    44   45   43 1
    45   46   43 1
    46   47   38 1
    47   48   47 1
    48   49   47 1
    49   50   47 1
    50   51   10 1
    51   52   51 ar
    52   53   52 1
    53   54   53 ar
    54   55   54 1
    55   56   54 ar
    56   57   56 1
    57   58   56 ar
    58   59   58 1
    59   60   58 ar
    60   61   60 1
    61   62   53 ar
    62   63   62 1
    63   64   63 1
    64   65   63 1
    65   66   52 ar
    66   67   66 ar
    67   68   67 ar
    68   69   68 ar
    69   70   69 1
    70   71   69 ar
    71   72   71 1
    72   73   71 ar
    73   74   73 1
    74   75   73 ar
    75   76   75 1
    76   77   51 ar
    77   78   67 1
    78   79   78 1
    79   80   79 1
    80   81   79 1
    81   82   79 1
    82   83   78 1
    83   84   83 1
    84   85   83 1
    85   86   83 1
    86   87   78 1
    87   88   87 1
    88   89   87 1
    89   90   87 1
    90    8   10 ar
    91   19   21 ar
    92   23   37 ar
    93   34   36 ar
    94   36   37 1
    95   60   62 ar
    96   63   66 1
    97   68   77 ar
    98   75   77 ar
@<TRIPOS>SUBSTRUCTURE
     1 RES1 1

@<TRIPOS>CRYSIN
  10.2893   10.7583   16.7890  74.8300  88.6880  74.3190   2 1

