# MOL2 file generated by ConQuest
# Please check atom types

@<TRIPOS>MOLECULE
JEBNAG
   102   112     1
SMALL
NO_CHARGES
****
Generated from CSD

@<TRIPOS>ATOM
      1 C1        14.7827   14.6210    8.9361 C.ar      1 RES1    0.0000
      2 C2        14.3920   13.5540    8.1217 C.ar      1 RES1    0.0000
      3 H1        14.9865   12.8528    7.9812 H         1 RES1    0.0000
      4 C3        13.1586   13.5125    7.5232 C.ar      1 RES1    0.0000
      5 H2        12.9246   12.7942    6.9813 H         1 RES1    0.0000
      6 C4        12.2724   14.5424    7.7302 C.ar      1 RES1    0.0000
      7 H3        11.4258   14.5116    7.3438 H         1 RES1    0.0000
      8 C5        12.6371   15.6183    8.5059 C.ar      1 RES1    0.0000
      9 H4        12.0310   16.3111    8.6337 H         1 RES1    0.0000
     10 C6        13.8959   15.6952    9.1047 C.ar      1 RES1    0.0000
     11 C7        14.3723   16.9215    9.8484 C.ar      1 RES1    0.0000
     12 C8        14.8243   18.0385    9.1579 C.ar      1 RES1    0.0000
     13 C9        14.6761   18.3882    7.7296 C.ar      1 RES1    0.0000
     14 C10       14.0730   17.7442    6.6493 C.ar      1 RES1    0.0000
     15 H5        13.6765   16.9109    6.7608 H         1 RES1    0.0000
     16 C11       14.0730   18.3624    5.4098 C.ar      1 RES1    0.0000
     17 H6        13.6714   17.9347    4.6884 H         1 RES1    0.0000
     18 C12       14.6542   19.5969    5.2234 C.ar      1 RES1    0.0000
     19 H7        14.6426   19.9939    4.3833 H         1 RES1    0.0000
     20 C13       15.2537   20.2477    6.2844 C.ar      1 RES1    0.0000
     21 H8        15.6474   21.0829    6.1657 H         1 RES1    0.0000
     22 C14       15.2596   19.6388    7.5242 C.ar      1 RES1    0.0000
     23 C15       15.8494   20.1661    8.7923 C.3       1 RES1    0.0000
     24 H9        15.4366   21.0075    9.0416 H         1 RES1    0.0000
     25 H10       16.8056   20.2988    8.7002 H         1 RES1    0.0000
     26 C16       15.5462   19.0906    9.8137 C.ar      1 RES1    0.0000
     27 C17       15.9455   18.9815   11.1393 C.ar      1 RES1    0.0000
     28 C18       15.5380   17.7808   11.8277 C.ar      1 RES1    0.0000
     29 C19       16.1067   17.3573   13.0853 C.ar      1 RES1    0.0000
     30 H11       16.8208   17.8392   13.4370 H         1 RES1    0.0000
     31 C20       15.6492   16.3022   13.7671 C.ar      1 RES1    0.0000
     32 H12       16.1228   15.9978   14.5064 H         1 RES1    0.0000
     33 C21       14.4564   15.6372   13.3847 C.ar      1 RES1    0.0000
     34 C22       13.7826   14.7490   14.2369 C.ar      1 RES1    0.0000
     35 H13       14.1789   14.4965   15.0380 H         1 RES1    0.0000
     36 C23       12.5705   14.2536   13.9140 C.ar      1 RES1    0.0000
     37 H14       12.1440   13.6504   14.4792 H         1 RES1    0.0000
     38 C24       11.9592   14.6582   12.7174 C.ar      1 RES1    0.0000
     39 H15       11.1004   14.3625   12.5156 H         1 RES1    0.0000
     40 C25       12.6101   15.4814   11.8474 C.ar      1 RES1    0.0000
     41 H16       12.1945   15.7314   11.0535 H         1 RES1    0.0000
     42 C26       13.9007   15.9584   12.1316 C.ar      1 RES1    0.0000
     43 C27       14.6006   16.8905   11.2507 C.ar      1 RES1    0.0000
     44 C28       16.0723   14.5600    9.6986 C.ar      1 RES1    0.0000
     45 C29       16.1313   13.7779   10.8405 C.ar      1 RES1    0.0000
     46 C30       15.1305   12.8160   11.3855 C.ar      1 RES1    0.0000
     47 C31       13.8647   12.4041   10.9767 C.ar      1 RES1    0.0000
     48 H17       13.4658   12.7942   10.2318 H         1 RES1    0.0000
     49 C32       13.1987   11.4101   11.6803 C.ar      1 RES1    0.0000
     50 H18       12.3665   11.1153   11.3858 H         1 RES1    0.0000
     51 C33       13.7616   10.8570   12.8119 C.ar      1 RES1    0.0000
     52 H19       13.3056   10.1955   13.2799 H         1 RES1    0.0000
     53 C34       14.9868   11.2775   13.2494 C.ar      1 RES1    0.0000
     54 H20       15.3591   10.9126   14.0200 H         1 RES1    0.0000
     55 C35       15.6678   12.2488   12.5413 C.ar      1 RES1    0.0000
     56 C36       17.0194   12.8222   12.8322 C.3       1 RES1    0.0000
     57 H21       17.6925   12.1240   12.8509 H         1 RES1    0.0000
     58 H22       17.0215   13.2834   13.6847 H         1 RES1    0.0000
     59 C37       17.2764   13.7894   11.6951 C.ar      1 RES1    0.0000
     60 C38       18.3525   14.6379   11.4767 C.ar      1 RES1    0.0000
     61 C39       18.2310   15.5337   10.3532 C.ar      1 RES1    0.0000
     62 C40       19.0866   16.6787   10.1747 C.ar      1 RES1    0.0000
     63 H23       19.7291   16.8523   10.8239 H         1 RES1    0.0000
     64 C41       19.0077   17.5087    9.1225 C.ar      1 RES1    0.0000
     65 H24       19.4998   18.2982    9.1261 H         1 RES1    0.0000
     66 C42       18.1902   17.2031    8.0099 C.ar      1 RES1    0.0000
     67 C43       18.3104   17.9010    6.7877 C.ar      1 RES1    0.0000
     68 H25       18.8355   18.6669    6.7517 H         1 RES1    0.0000
     69 C44       17.6797   17.4826    5.6666 C.ar      1 RES1    0.0000
     70 H26       17.7633   17.9581    4.8727 H         1 RES1    0.0000
     71 C45       16.9063   16.3324    5.7207 C.ar      1 RES1    0.0000
     72 H27       16.5106   16.0095    4.9452 H         1 RES1    0.0000
     73 C46       16.7178   15.6635    6.9100 C.ar      1 RES1    0.0000
     74 H28       16.1785   14.9070    6.9239 H         1 RES1    0.0000
     75 C47       17.3195   16.0948    8.1057 C.ar      1 RES1    0.0000
     76 C48       17.1879   15.3879    9.3865 C.ar      1 RES1    0.0000
     77 C49       16.7446   20.0803   11.9181 C.3       1 RES1    0.0000
     78 C50       18.2281   19.6856   12.0806 C.3       1 RES1    0.0000
     79 H29       18.6400   19.6252   11.2166 H         1 RES1    0.0000
     80 H30       18.2859   18.8361   12.5216 H         1 RES1    0.0000
     81 H31       18.6804   20.3507   12.6032 H         1 RES1    0.0000
     82 C51       16.7490   21.4480   11.2314 C.3       1 RES1    0.0000
     83 H32       17.1580   22.0950   11.8087 H         1 RES1    0.0000
     84 H33       15.8463   21.7146   11.0414 H         1 RES1    0.0000
     85 H34       17.2457   21.3929   10.4100 H         1 RES1    0.0000
     86 C52       16.0876   20.3477   13.2796 C.3       1 RES1    0.0000
     87 H35       16.2054   19.5834   13.8478 H         1 RES1    0.0000
     88 H36       15.1500   20.5116   13.1560 H         1 RES1    0.0000
     89 H37       16.4954   21.1148   13.6877 H         1 RES1    0.0000
     90 C53       19.6443   14.6569   12.3461 C.3       1 RES1    0.0000
     91 C54       19.8200   13.4492   13.2769 C.3       1 RES1    0.0000
     92 H38       20.6901   13.4812   13.6817 H         1 RES1    0.0000
     93 H39       19.7325   12.6384   12.7693 H         1 RES1    0.0000
     94 H40       19.1474   13.4728   13.9626 H         1 RES1    0.0000
     95 C55       20.8939   14.5920   11.4256 C.3       1 RES1    0.0000
     96 H41       21.6882   14.6691   11.9597 H         1 RES1    0.0000
     97 H42       20.8621   15.3125   10.7937 H         1 RES1    0.0000
     98 H43       20.9025   13.7543   10.9568 H         1 RES1    0.0000
     99 C56       19.6588   15.8869   13.2793 C.3       1 RES1    0.0000
    100 H44       18.8777   15.8755   13.8357 H         1 RES1    0.0000
    101 H45       19.6634   16.6881   12.7512 H         1 RES1    0.0000
    102 H46       20.4440   15.8621   13.8297 H         1 RES1    0.0000
@<TRIPOS>BOND
     1    1    2 ar
     2    2    3 1
     3    4    2 ar
     4    5    4 1
     5    6    4 ar
     6    7    6 1
     7    8    6 ar
     8    9    8 1
     9   10    1 ar
    10   11   10 1
    11   12   11 ar
    12   13   12 1
    13   14   13 ar
    14   15   14 1
    15   16   14 ar
    16   17   16 1
    17   18   16 ar
    18   19   18 1
    19   20   18 ar
    20   21   20 1
    21   22   13 ar
    22   23   22 1
    23   24   23 1
    24   25   23 1
    25   26   12 ar
    26   27   26 ar
    27   28   27 ar
    28   29   28 ar
    29   30   29 1
    30   31   29 ar
    31   32   31 1
    32   33   31 ar
    33   34   33 ar
    34   35   34 1
    35   36   34 ar
    36   37   36 1
    37   38   36 ar
    38   39   38 1
    39   40   38 ar
    40   41   40 1
    41   42   33 ar
    42   43   11 ar
    43   44    1 1
    44   45   44 ar
    45   46   45 1
    46   47   46 ar
    47   48   47 1
    48   49   47 ar
    49   50   49 1
    50   51   49 ar
    51   52   51 1
    52   53   51 ar
    53   54   53 1
    54   55   46 ar
    55   56   55 1
    56   57   56 1
    57   58   56 1
    58   59   45 ar
    59   60   59 ar
    60   61   60 ar
    61   62   61 ar
    62   63   62 1
    63   64   62 ar
    64   65   64 1
    65   66   64 ar
    66   67   66 ar
    67   68   67 1
    68   69   67 ar
    69   70   69 1
    70   71   69 ar
    71   72   71 1
    72   73   71 ar
    73   74   73 1
    74   75   66 ar
    75   76   44 ar
    76   77   27 1
    77   78   77 1
    78   79   78 1
    79   80   78 1
    80   81   78 1
    81   82   77 1
    82   83   82 1
    83   84   82 1
    84   85   82 1
    85   86   77 1
    86   87   86 1
    87   88   86 1
    88   89   86 1
    89   90   60 1
    90   91   90 1
    91   92   91 1
    92   93   91 1
    93   94   91 1
    94   95   90 1
    95   96   95 1
    96   97   95 1
    97   98   95 1
    98   99   90 1
    99  100   99 1
   100  101   99 1
   101  102   99 1
   102    8   10 ar
   103   20   22 ar
   104   23   26 1
   105   28   43 ar
   106   40   42 ar
   107   42   43 ar
   108   53   55 ar
   109   56   59 1
   110   61   76 ar
   111   73   75 ar
   112   75   76 ar
@<TRIPOS>SUBSTRUCTURE
     1 RES1 1

@<TRIPOS>CRYSIN
  16.8596   16.7551   30.2090  90.0000  90.0000  90.0000  61 1

