# MOL2 file generated by ConQuest
# Please check atom types

@<TRIPOS>MOLECULE
JEDTER
    45    49     1
SMALL
NO_CHARGES
****
Generated from CSD

@<TRIPOS>ATOM
      1 C1        -1.6679    6.8113    5.1333 C.3       1 RES1    0.0000
      2 C2        -1.3635    5.8948    3.9362 C.3       1 RES1    0.0000
      3 C3        -1.5060    4.4900    4.4855 C.2       1 RES1    0.0000
      4 C4        -1.2698    3.3344    3.5861 C.ar      1 RES1    0.0000
      5 C5        -2.0739    3.1706    2.4773 C.ar      1 RES1    0.0000
      6 C6        -1.8617    2.1231    1.5544 C.ar      1 RES1    0.0000
      7 C7        -0.8108    1.2692    1.7248 C.ar      1 RES1    0.0000
      8 C8         0.0737    1.4147    2.8233 C.ar      1 RES1    0.0000
      9 C9         1.1956    0.5607    2.9866 C.ar      1 RES1    0.0000
     10 C10        2.0401    0.7039    4.0461 C.ar      1 RES1    0.0000
     11 C11        1.8041    1.7156    4.9999 C.ar      1 RES1    0.0000
     12 C12        0.7375    2.5642    4.8746 C.ar      1 RES1    0.0000
     13 C13       -0.1685    2.4439    3.7802 C.ar      1 RES1    0.0000
     14 H1        -0.9720    7.4093    5.2873 H         1 RES1    0.0000
     15 H2        -0.4566    5.9954    3.5841 H         1 RES1    0.0000
     16 H3        -2.0381    6.0487    3.1344 H         1 RES1    0.0000
     17 H4        -2.8196    3.8128    2.3757 H         1 RES1    0.0000
     18 H5        -2.4690    2.0706    0.8121 H         1 RES1    0.0000
     19 H6        -0.6530    0.5866    1.1057 H         1 RES1    0.0000
     20 H7         1.3433   -0.0884    2.3305 H         1 RES1    0.0000
     21 H8         2.7770    0.1379    4.1878 H         1 RES1    0.0000
     22 H9         2.4352    1.8062    5.7534 H         1 RES1    0.0000
     23 H10        0.6017    3.2552    5.5265 H         1 RES1    0.0000
     24 C2B       -1.9723    5.8948    6.3304 C.3       1 RES1    0.0000
     25 H1B       -2.3638    7.4093    4.9793 H         1 RES1    0.0000
     26 C3B       -1.8298    4.4900    5.7812 C.2       1 RES1    0.0000
     27 H2B       -2.8792    5.9954    6.6826 H         1 RES1    0.0000
     28 H3B       -1.2978    6.0487    7.1322 H         1 RES1    0.0000
     29 C4B       -2.0660    3.3344    6.6805 C.ar      1 RES1    0.0000
     30 C5B       -1.2619    3.1706    7.7893 C.ar      1 RES1    0.0000
     31 C13B      -3.1674    2.4439    6.4865 C.ar      1 RES1    0.0000
     32 C6B       -1.4741    2.1231    8.7123 C.ar      1 RES1    0.0000
     33 H4B       -0.5162    3.8128    7.8910 H         1 RES1    0.0000
     34 C8B       -3.4096    1.4147    7.4433 C.ar      1 RES1    0.0000
     35 C12B      -4.0733    2.5642    5.3920 C.ar      1 RES1    0.0000
     36 C7B       -2.5250    1.2692    8.5419 C.ar      1 RES1    0.0000
     37 H5B       -0.8668    2.0706    9.4546 H         1 RES1    0.0000
     38 C9B       -4.5315    0.5607    7.2801 C.ar      1 RES1    0.0000
     39 C11B      -5.1400    1.7156    5.2668 C.ar      1 RES1    0.0000
     40 H10B      -3.9376    3.2552    4.7401 H         1 RES1    0.0000
     41 H6B       -2.6828    0.5866    9.1609 H         1 RES1    0.0000
     42 C10B      -5.3759    0.7039    6.2206 C.ar      1 RES1    0.0000
     43 H7B       -4.6791   -0.0884    7.9361 H         1 RES1    0.0000
     44 H9B       -5.7710    1.8062    4.5132 H         1 RES1    0.0000
     45 H8B       -6.1128    0.1379    6.0789 H         1 RES1    0.0000
@<TRIPOS>BOND
     1    1    2 1
     2    2    3 1
     3    3    4 1
     4    4    5 ar
     5    5    6 ar
     6    6    7 ar
     7    7    8 ar
     8    8    9 ar
     9    9   10 ar
    10   10   11 ar
    11   11   12 ar
    12   12   13 ar
    13   13    4 ar
    14   14    1 1
    15   15    2 1
    16   16    2 1
    17   17    5 1
    18   18    6 1
    19   19    7 1
    20   20    9 1
    21   21   10 1
    22   22   11 1
    23   23   12 1
    24   24    1 1
    25   25    1 1
    26   26    3 2
    27   27   24 1
    28   28   24 1
    29   29   26 1
    30   30   29 ar
    31   31   29 ar
    32   32   30 ar
    33   33   30 1
    34   34   31 ar
    35   35   31 ar
    36   36   32 ar
    37   37   32 1
    38   38   34 ar
    39   39   35 ar
    40   40   35 1
    41   41   36 1
    42   42   38 ar
    43   43   38 1
    44   44   39 1
    45   45   42 1
    46    8   13 ar
    47   24   26 1
    48   34   36 ar
    49   39   42 ar
@<TRIPOS>SUBSTRUCTURE
     1 RES1 1

