# MOL2 file generated by ConQuest
# Please check atom types

@<TRIPOS>MOLECULE
JEKGOW
    90    99     1
SMALL
NO_CHARGES
****
Generated from CSD

@<TRIPOS>ATOM
      1 C1         8.6842    7.8967    0.9059 C.ar      1 RES1    0.0000
      2 C2         7.9722    7.9067    2.1255 C.ar      1 RES1    0.0000
      3 C3         7.9030    9.1224    2.8660 C.ar      1 RES1    0.0000
      4 C4         8.5077   10.2852    2.3487 C.ar      1 RES1    0.0000
      5 C5         9.6088   10.1111    1.4676 C.ar      1 RES1    0.0000
      6 C6         9.6354    8.9418    0.6882 C.ar      1 RES1    0.0000
      7 C7         8.5093    6.8861   -0.1525 C.ar      1 RES1    0.0000
      8 C8         9.4597    6.8017   -1.1936 C.ar      1 RES1    0.0000
      9 C9         7.1844    6.7192    2.5700 C.ar      1 RES1    0.0000
     10 C10        5.6480    4.3877    3.0458 C.ar      1 RES1    0.0000
     11 C11        7.1970    9.2603    4.1480 C.ar      1 RES1    0.0000
     12 C12        6.6516   10.5094    4.4947 C.ar      1 RES1    0.0000
     13 C13        7.8692   11.5707    2.6268 C.ar      1 RES1    0.0000
     14 C14        6.8866   11.6588    3.6292 C.ar      1 RES1    0.0000
     15 C15       10.7441   11.0351    1.4560 C.ar      1 RES1    0.0000
     16 C16       13.0306   12.7278    1.5195 C.ar      1 RES1    0.0000
     17 C17       11.8054   10.8347    0.5532 C.ar      1 RES1    0.0000
     18 C18       10.6567    8.8082   -0.3276 C.ar      1 RES1    0.0000
     19 C19       11.7345    9.7251   -0.4033 C.ar      1 RES1    0.0000
     20 C20       10.6057    7.7118   -1.2289 C.ar      1 RES1    0.0000
     21 C21        4.8322    3.0889    3.1051 C.3       1 RES1    0.0000
     22 C22       14.2083   13.7147    1.5562 C.3       1 RES1    0.0000
     23 C23        9.2642    5.8728   -2.2318 C.ar      1 RES1    0.0000
     24 C24        8.1663    5.0382   -2.2533 C.ar      1 RES1    0.0000
     25 C25        7.2168    5.1383   -1.2530 C.ar      1 RES1    0.0000
     26 C26        7.3685    6.0547   -0.2370 C.ar      1 RES1    0.0000
     27 C27        7.7993    5.4861    2.7761 C.ar      1 RES1    0.0000
     28 C28        7.0404    4.3501    3.0165 C.ar      1 RES1    0.0000
     29 C29        5.0427    5.6381    2.9198 C.ar      1 RES1    0.0000
     30 C30        5.7993    6.7853    2.6929 C.ar      1 RES1    0.0000
     31 C31        7.1324    8.2143    5.0881 C.ar      1 RES1    0.0000
     32 C32        6.4631    8.3651    6.2815 C.ar      1 RES1    0.0000
     33 C33        5.8215    9.5681    6.5593 C.ar      1 RES1    0.0000
     34 C34        5.9232   10.6247    5.6939 C.ar      1 RES1    0.0000
     35 C35        6.1672   12.8620    3.7572 C.ar      1 RES1    0.0000
     36 C36        6.3980   13.9230    2.9234 C.ar      1 RES1    0.0000
     37 C37        7.3373   13.8270    1.9119 C.ar      1 RES1    0.0000
     38 C38        8.0632   12.6650    1.7601 C.ar      1 RES1    0.0000
     39 C39       10.8987   12.0394    2.4384 C.ar      1 RES1    0.0000
     40 C40       11.9972   12.8669    2.4567 C.ar      1 RES1    0.0000
     41 C41       12.9315   11.6994    0.6089 C.ar      1 RES1    0.0000
     42 C42       12.7462    9.5109   -1.3405 C.ar      1 RES1    0.0000
     43 C43       12.6950    8.4378   -2.2051 C.ar      1 RES1    0.0000
     44 C44       11.6378    7.5491   -2.1586 C.ar      1 RES1    0.0000
     45 H1         9.8987    5.8219   -2.9363 H         1 RES1    0.0000
     46 H2         8.0651    4.4000   -2.9494 H         1 RES1    0.0000
     47 H3         6.4579    4.5676   -1.2654 H         1 RES1    0.0000
     48 H4         6.6886    6.1389    0.4205 H         1 RES1    0.0000
     49 H5         8.7469    5.4280    2.7475 H         1 RES1    0.0000
     50 H6         7.4811    3.5231    3.1699 H         1 RES1    0.0000
     51 H7         4.0968    5.6997    2.9886 H         1 RES1    0.0000
     52 H8         5.3686    7.6288    2.6167 H         1 RES1    0.0000
     53 H9         7.5662    7.3918    4.8932 H         1 RES1    0.0000
     54 H10        6.4322    7.6499    6.9062 H         1 RES1    0.0000
     55 H11        5.3165    9.6560    7.3585 H         1 RES1    0.0000
     56 H12        5.4968   11.4477    5.9025 H         1 RES1    0.0000
     57 H13        5.5014   12.9315    4.4315 H         1 RES1    0.0000
     58 H14        5.9214   14.7353    3.0484 H         1 RES1    0.0000
     59 H15        7.4786   14.5602    1.3233 H         1 RES1    0.0000
     60 H16        8.6952   12.5903    1.0560 H         1 RES1    0.0000
     61 H17       10.2244   12.1435    3.0989 H         1 RES1    0.0000
     62 H18       12.0592   13.5518    3.1120 H         1 RES1    0.0000
     63 H19       13.6399   11.5684   -0.0093 H         1 RES1    0.0000
     64 H20       13.4731   10.1209   -1.3831 H         1 RES1    0.0000
     65 H21       13.3955    8.3095   -2.8335 H         1 RES1    0.0000
     66 H22       11.6108    6.8152   -2.7625 H         1 RES1    0.0000
     67 C45        5.1040    2.3261    1.7969 C.3       1 RES1    0.0000
     68 H23        4.6121    1.5125    1.7962 H         1 RES1    0.0000
     69 H24        6.0323    2.1329    1.7382 H         1 RES1    0.0000
     70 H25        4.8412    2.8544    1.0523 H         1 RES1    0.0000
     71 C46        5.2776    2.2106    4.2704 C.3       1 RES1    0.0000
     72 H26        4.7585    1.4159    4.2876 H         1 RES1    0.0000
     73 H27        6.1954    1.9879    4.1661 H         1 RES1    0.0000
     74 H28        5.1577    2.6838    5.0857 H         1 RES1    0.0000
     75 C47        3.3383    3.3495    3.2484 C.3       1 RES1    0.0000
     76 H29        2.8773    2.5193    3.2802 H         1 RES1    0.0000
     77 H30        3.1679    3.8370    4.0465 H         1 RES1    0.0000
     78 H31        3.0349    3.8521    2.5008 H         1 RES1    0.0000
     79 C48       15.3548   13.3093    0.6245 C.3       1 RES1    0.0000
     80 H32       16.0524   13.9503    0.6841 H         1 RES1    0.0000
     81 H33       15.0398   13.2666   -0.2710 H         1 RES1    0.0000
     82 H34       15.6844   12.4575    0.8841 H         1 RES1    0.0000
     83 C49       13.7080   15.0909    1.1009 C.3       1 RES1    0.0000
     84 H35       14.4271   15.7119    1.1196 H         1 RES1    0.0000
     85 H36       13.0209   15.3858    1.6859 H         1 RES1    0.0000
     86 H37       13.3657   15.0281    0.2168 H         1 RES1    0.0000
     87 C50       14.7500   13.8251    2.9927 C.3       1 RES1    0.0000
     88 H38       15.4760   14.4364    3.0129 H         1 RES1    0.0000
     89 H39       14.0578   14.1360    3.5643 H         1 RES1    0.0000
     90 H40       15.0455   12.9722    3.2895 H         1 RES1    0.0000
@<TRIPOS>BOND
     1    1    2 ar
     2    2    3 ar
     3    3    4 ar
     4    4    5 ar
     5    5    6 ar
     6    6    1 ar
     7    7    1 ar
     8    8    7 ar
     9    9    2 1
    10   10   21 1
    11   11    3 ar
    12   12   11 ar
    13   13    4 ar
    14   14   12 ar
    15   15    5 ar
    16   16   22 1
    17   17   15 ar
    18   18    6 ar
    19   19   17 ar
    20   20    8 ar
    21   21   67 1
    22   22   79 1
    23   23    8 ar
    24   24   23 ar
    25   25   24 ar
    26   26    7 ar
    27   27    9 ar
    28   28   10 ar
    29   29   10 ar
    30   30    9 ar
    31   31   11 ar
    32   32   31 ar
    33   33   32 ar
    34   34   12 ar
    35   35   14 ar
    36   36   35 ar
    37   37   36 ar
    38   38   13 ar
    39   39   15 ar
    40   40   16 ar
    41   41   16 ar
    42   42   19 ar
    43   43   42 ar
    44   44   20 ar
    45   45   23 1
    46   46   24 1
    47   47   25 1
    48   48   26 1
    49   49   27 1
    50   50   28 1
    51   51   29 1
    52   52   30 1
    53   53   31 1
    54   54   32 1
    55   55   33 1
    56   56   34 1
    57   57   35 1
    58   58   36 1
    59   59   37 1
    60   60   38 1
    61   61   39 1
    62   62   40 1
    63   63   41 1
    64   64   42 1
    65   65   43 1
    66   66   44 1
    67   67   68 1
    68   69   67 1
    69   70   67 1
    70   71   21 1
    71   72   71 1
    72   73   71 1
    73   74   71 1
    74   75   21 1
    75   76   75 1
    76   77   75 1
    77   78   75 1
    78   79   80 1
    79   81   79 1
    80   82   79 1
    81   83   22 1
    82   84   83 1
    83   85   83 1
    84   86   83 1
    85   87   22 1
    86   88   87 1
    87   89   87 1
    88   90   87 1
    89   13   14 ar
    90   17   41 ar
    91   18   19 ar
    92   18   20 ar
    93   25   26 ar
    94   27   28 ar
    95   29   30 ar
    96   33   34 ar
    97   37   38 ar
    98   39   40 ar
    99   43   44 ar
@<TRIPOS>SUBSTRUCTURE
     1 RES1 1

@<TRIPOS>CRYSIN
  12.1176   15.0945   18.9522  90.0000  99.5309  90.0000 231 1

