# MOL2 file generated by ConQuest
# Please check atom types

@<TRIPOS>MOLECULE
JEWYUI
    59    67     1
SMALL
NO_CHARGES
****
Generated from CSD

@<TRIPOS>ATOM
      1 C1         3.7367    5.9573    2.2202 C.ar      1 RES1    0.0000
      2 C2         5.0267    5.7725    2.6914 C.ar      1 RES1    0.0000
      3 C3         5.5139    4.4431    2.9920 C.ar      1 RES1    0.0000
      4 C4         6.8201    4.1224    3.5518 C.ar      1 RES1    0.0000
      5 C5         7.6383    5.0554    4.2181 C.ar      1 RES1    0.0000
      6 H1         7.3506    5.9363    4.2911 H         1 RES1    0.0000
      7 C6         8.8457    4.7035    4.7616 C.ar      1 RES1    0.0000
      8 H2         9.3516    5.3441    5.2078 H         1 RES1    0.0000
      9 C7         9.3297    3.3986    4.6554 C.ar      1 RES1    0.0000
     10 H3        10.1623    3.1722    5.0043 H         1 RES1    0.0000
     11 C8         8.5636    2.4622    4.0317 C.ar      1 RES1    0.0000
     12 H4         8.8855    1.5926    3.9527 H         1 RES1    0.0000
     13 C9         7.2956    2.7774    3.5030 C.ar      1 RES1    0.0000
     14 C10        6.4498    1.7661    2.9692 C.ar      1 RES1    0.0000
     15 H5         6.7798    0.9041    2.8582 H         1 RES1    0.0000
     16 C11        5.1789    2.0388    2.6229 C.ar      1 RES1    0.0000
     17 H6         4.6279    1.3414    2.3485 H         1 RES1    0.0000
     18 C12        4.6475    3.3647    2.6625 C.ar      1 RES1    0.0000
     19 C13        3.2406    3.5869    2.3999 C.ar      1 RES1    0.0000
     20 C14        2.2801    2.5369    2.3912 C.ar      1 RES1    0.0000
     21 H7         2.5678    1.6571    2.4770 H         1 RES1    0.0000
     22 C15        0.9449    2.7906    2.2599 C.ar      1 RES1    0.0000
     23 H8         0.3402    2.0829    2.2607 H         1 RES1    0.0000
     24 C16        0.4748    4.0935    2.1256 C.ar      1 RES1    0.0000
     25 H9        -0.4378    4.2584    2.0561 H         1 RES1    0.0000
     26 C17        1.3669    5.1292    2.0961 C.ar      1 RES1    0.0000
     27 H10        1.0531    5.9982    1.9940 H         1 RES1    0.0000
     28 C18        2.7625    4.9029    2.2183 C.ar      1 RES1    0.0000
     29 C19        3.5648    7.3210    1.7018 C.ar      1 RES1    0.0000
     30 C20        2.5178    7.9649    1.0315 C.ar      1 RES1    0.0000
     31 H11        1.7263    7.5122    0.8503 H         1 RES1    0.0000
     32 C21        2.6753    9.2815    0.6429 C.ar      1 RES1    0.0000
     33 H12        1.9747    9.7189    0.2163 H         1 RES1    0.0000
     34 C22        3.8556    9.9581    0.8780 C.ar      1 RES1    0.0000
     35 H13        3.9403   10.8469    0.6179 H         1 RES1    0.0000
     36 C23        4.9147    9.3184    1.4994 C.ar      1 RES1    0.0000
     37 H14        5.7177    9.7653    1.6449 H         1 RES1    0.0000
     38 C24        4.7602    8.0026    1.8998 C.ar      1 RES1    0.0000
     39 C25        5.7800    7.1174    2.6254 C.3       1 RES1    0.0000
     40 C26        6.1000    7.8943    3.9114 C.ar      1 RES1    0.0000
     41 C27        5.2866    8.1459    4.9958 C.ar      1 RES1    0.0000
     42 H15        4.4637    7.7214    5.0857 H         1 RES1    0.0000
     43 C28        5.7345    9.0579    5.9580 C.ar      1 RES1    0.0000
     44 H16        5.2090    9.2324    6.7049 H         1 RES1    0.0000
     45 C29        6.9514    9.7035    5.8125 C.ar      1 RES1    0.0000
     46 H17        7.2191   10.3248    6.4500 H         1 RES1    0.0000
     47 C30        7.7684    9.4404    4.7410 C.ar      1 RES1    0.0000
     48 H18        8.5882    9.8701    4.6563 H         1 RES1    0.0000
     49 C31        7.3494    8.5202    3.7832 C.ar      1 RES1    0.0000
     50 C32        7.9991    8.0501    2.5562 C.ar      1 RES1    0.0000
     51 C33        9.2554    8.3153    2.0034 C.ar      1 RES1    0.0000
     52 H19        9.8485    8.8887    2.4331 H         1 RES1    0.0000
     53 C34        9.6017    7.7114    0.8066 C.ar      1 RES1    0.0000
     54 H20       10.4357    7.8823    0.4316 H         1 RES1    0.0000
     55 C35        8.7319    6.8617    0.1631 C.ar      1 RES1    0.0000
     56 H21        8.9820    6.4691   -0.6425 H         1 RES1    0.0000
     57 C36        7.4805    6.5839    0.7059 C.ar      1 RES1    0.0000
     58 H22        6.8947    6.0070    0.2709 H         1 RES1    0.0000
     59 C37        7.1215    7.1768    1.9008 C.ar      1 RES1    0.0000
@<TRIPOS>BOND
     1    1    2 ar
     2    2    3 ar
     3    3    4 ar
     4    4    5 ar
     5    5    6 1
     6    7    5 ar
     7    8    7 1
     8    9    7 ar
     9   10    9 1
    10   11    9 ar
    11   12   11 1
    12   13    4 ar
    13   14   13 ar
    14   15   14 1
    15   16   14 ar
    16   17   16 1
    17   18    3 ar
    18   19   18 ar
    19   20   19 ar
    20   21   20 1
    21   22   20 ar
    22   23   22 1
    23   24   22 ar
    24   25   24 1
    25   26   24 ar
    26   27   26 1
    27   28    1 ar
    28   29    1 1
    29   30   29 ar
    30   31   30 1
    31   32   30 ar
    32   33   32 1
    33   34   32 ar
    34   35   34 1
    35   36   34 ar
    36   37   36 1
    37   38   29 ar
    38   39    2 1
    39   40   39 1
    40   41   40 ar
    41   42   41 1
    42   43   41 ar
    43   44   43 1
    44   45   43 ar
    45   46   45 1
    46   47   45 ar
    47   48   47 1
    48   49   40 ar
    49   50   49 1
    50   51   50 ar
    51   52   51 1
    52   53   51 ar
    53   54   53 1
    54   55   53 ar
    55   56   55 1
    56   57   55 ar
    57   58   57 1
    58   59   39 1
    59   11   13 ar
    60   16   18 ar
    61   19   28 ar
    62   26   28 ar
    63   36   38 ar
    64   38   39 1
    65   47   49 ar
    66   50   59 ar
    67   57   59 ar
@<TRIPOS>SUBSTRUCTURE
     1 RES1 1

@<TRIPOS>CRYSIN
  11.0820   11.4560   11.7770  92.0380 110.4290 118.0820   2 1

