# MOL2 file generated by ConQuest
# Please check atom types

@<TRIPOS>MOLECULE
JICZIH
   152   168     2
SMALL
NO_CHARGES
****
Generated from CSD

@<TRIPOS>ATOM
      1 C1         6.9046    0.7956    2.1211 C.ar      1 RES1    0.0000
      2 C2         6.1572    0.1429    3.0995 C.ar      1 RES1    0.0000
      3 H1         6.1766    0.4588    3.9956 H         1 RES1    0.0000
      4 C3         5.3807   -0.9682    2.7786 C.ar      1 RES1    0.0000
      5 H2         4.8800   -1.4083    3.4550 H         1 RES1    0.0000
      6 C4         5.3385   -1.4302    1.4745 C.ar      1 RES1    0.0000
      7 H3         4.7962   -2.1778    1.2517 H         1 RES1    0.0000
      8 C5         6.0852   -0.8023    0.4971 C.ar      1 RES1    0.0000
      9 H4         6.0670   -1.1295   -0.3951 H         1 RES1    0.0000
     10 C6         6.8649    0.3085    0.8140 C.ar      1 RES1    0.0000
     11 H5         7.3727    0.7377    0.1357 H         1 RES1    0.0000
     12 C7        10.9839    0.6106    3.4381 C.ar      1 RES1    0.0000
     13 H6        11.4021   -0.2400    3.5213 H         1 RES1    0.0000
     14 C8         9.6886    0.6932    3.0222 C.ar      1 RES1    0.0000
     15 H7         9.2201   -0.1059    2.8093 H         1 RES1    0.0000
     16 C9         9.0162    1.9526    2.8984 C.ar      1 RES1    0.0000
     17 C10        7.6759    2.0398    2.4677 C.ar      1 RES1    0.0000
     18 C11        7.0339    3.2896    2.3964 C.ar      1 RES1    0.0000
     19 C12        5.6586    3.4135    2.0062 C.ar      1 RES1    0.0000
     20 H8         5.1829    2.6366    1.7319 H         1 RES1    0.0000
     21 C13        5.0203    4.6104    2.0181 C.ar      1 RES1    0.0000
     22 H9         4.1063    4.6626    1.7676 H         1 RES1    0.0000
     23 C14        5.7204    5.7882    2.4073 C.ar      1 RES1    0.0000
     24 H10        5.2683    6.6251    2.4192 H         1 RES1    0.0000
     25 C15        7.0349    5.7250    2.7608 C.ar      1 RES1    0.0000
     26 H11        7.4861    6.5227    3.0084 H         1 RES1    0.0000
     27 C16        7.7506    4.4875    2.7697 C.ar      1 RES1    0.0000
     28 C17        9.0983    4.3951    3.2024 C.ar      1 RES1    0.0000
     29 C18        9.7409    3.1502    3.2609 C.ar      1 RES1    0.0000
     30 C19       11.1040    3.0097    3.6669 C.ar      1 RES1    0.0000
     31 H12       11.6030    3.7873    3.8857 H         1 RES1    0.0000
     32 C20       11.7088    1.7870    3.7481 C.ar      1 RES1    0.0000
     33 H13       12.6199    1.7260    4.0125 H         1 RES1    0.0000
     34 C21        9.8320    5.6399    3.6094 C.ar      1 RES1    0.0000
     35 C22       10.3301    6.5280    2.6558 C.ar      1 RES1    0.0000
     36 H14       10.1966    6.3427    1.7339 H         1 RES1    0.0000
     37 C23       11.0159    7.6790    3.0232 C.ar      1 RES1    0.0000
     38 H15       11.3485    8.2628    2.3498 H         1 RES1    0.0000
     39 C24       11.2235    7.9892    4.3699 C.ar      1 RES1    0.0000
     40 C25       10.7408    7.0931    5.3245 C.ar      1 RES1    0.0000
     41 H16       10.8839    7.2710    6.2465 H         1 RES1    0.0000
     42 C26       10.0582    5.9491    4.9542 C.ar      1 RES1    0.0000
     43 H17        9.7361    5.3615    5.6276 H         1 RES1    0.0000
     44 C27       11.9363    9.2373    4.8027 C.ar      1 RES1    0.0000
     45 C28       11.2961   10.4963    4.7413 C.ar      1 RES1    0.0000
     46 C29       10.0435   10.6954    4.0778 C.ar      1 RES1    0.0000
     47 H18        9.6100    9.9535    3.6718 H         1 RES1    0.0000
     48 C30        9.4556   11.9258    4.0135 C.ar      1 RES1    0.0000
     49 H19        8.6368   12.0324    3.5451 H         1 RES1    0.0000
     50 C31       10.0584   13.0479    4.6423 C.ar      1 RES1    0.0000
     51 H20        9.6392   13.8996    4.5977 H         1 RES1    0.0000
     52 C32       11.2414   12.9049    5.3097 C.ar      1 RES1    0.0000
     53 H21       11.6235   13.6596    5.7434 H         1 RES1    0.0000
     54 C33       11.9194   11.6427    5.3711 C.ar      1 RES1    0.0000
     55 C34       13.1642   11.5121    6.0118 C.ar      1 RES1    0.0000
     56 C35       13.8702   10.2884    5.9415 C.ar      1 RES1    0.0000
     57 C36       15.2059   10.1360    6.4237 C.ar      1 RES1    0.0000
     58 H22       15.6253   10.8712    6.8574 H         1 RES1    0.0000
     59 C37       15.8959    8.9729    6.2821 C.ar      1 RES1    0.0000
     60 H23       16.7863    8.9087    6.6069 H         1 RES1    0.0000
     61 C38       15.2882    7.8505    5.6493 C.ar      1 RES1    0.0000
     62 H24       15.7797    7.0451    5.5325 H         1 RES1    0.0000
     63 C39       14.0001    7.9335    5.2107 C.ar      1 RES1    0.0000
     64 H25       13.5941    7.1686    4.8205 H         1 RES1    0.0000
     65 C40       13.2409    9.1438    5.3226 C.ar      1 RES1    0.0000
     66 C41       13.7462   12.6568    6.7832 C.ar      1 RES1    0.0000
     67 C42       14.7259   13.5039    6.2514 C.ar      1 RES1    0.0000
     68 H26       15.0222   13.3701    5.3592 H         1 RES1    0.0000
     69 C43       15.2709   14.5338    7.0050 C.ar      1 RES1    0.0000
     70 H27       15.9413   15.0926    6.6297 H         1 RES1    0.0000
     71 C44       14.8391   14.7460    8.2982 C.ar      1 RES1    0.0000
     72 H28       15.2130   15.4491    8.8142 H         1 RES1    0.0000
     73 C45       13.8619   13.9342    8.8449 C.ar      1 RES1    0.0000
     74 H29       13.5627   14.0831    9.7341 H         1 RES1    0.0000
     75 C46       13.3202   12.9042    8.0923 C.ar      1 RES1    0.0000
     76 H30       12.6451   12.3536    8.4735 H         1 RES1    0.0000
     77 C47        5.1808    4.8800    6.4693 C.ar      2 RES2    0.0000
     78 C48        6.0823    4.0322    5.8533 C.ar      2 RES2    0.0000
     79 H31        6.2822    4.1508    4.9324 H         2 RES2    0.0000
     80 C49        6.7020    3.0083    6.5633 C.ar      2 RES2    0.0000
     81 H32        7.3317    2.4425    6.1296 H         2 RES2    0.0000
     82 C50        6.4044    2.8103    7.8992 C.ar      2 RES2    0.0000
     83 H33        6.8346    2.1178    8.3874 H         2 RES2    0.0000
     84 C51        5.4741    3.6281    8.5230 C.ar      2 RES2    0.0000
     85 H34        5.2539    3.4872    9.4360 H         2 RES2    0.0000
     86 C52        4.8659    4.6524    7.8110 C.ar      2 RES2    0.0000
     87 H35        4.2263    5.2062    8.2428 H         2 RES2    0.0000
     88 C53        4.5466    6.0423    5.7444 C.ar      2 RES2    0.0000
     89 C54        5.2555    7.2512    5.6216 C.ar      2 RES2    0.0000
     90 C55        6.6347    7.3691    5.9623 C.ar      2 RES2    0.0000
     91 H36        7.0847    6.6251    6.3445 H         2 RES2    0.0000
     92 C56        7.3216    8.5272    5.7513 C.ar      2 RES2    0.0000
     93 H37        8.2494    8.5663    5.9494 H         2 RES2    0.0000
     94 C57        6.6569    9.6746    5.2374 C.ar      2 RES2    0.0000
     95 H38        7.1402   10.4829    5.1007 H         2 RES2    0.0000
     96 C58        5.3410    9.6189    4.9443 C.ar      2 RES2    0.0000
     97 H39        4.9055   10.4017    4.6274 H         2 RES2    0.0000
     98 C59        4.5800    8.4146    5.0958 C.ar      2 RES2    0.0000
     99 C60        3.2170    8.3447    4.7314 C.ar      2 RES2    0.0000
    100 C61        2.5609    7.0917    4.7205 C.ar      2 RES2    0.0000
    101 C62        1.2262    6.9325    4.2194 C.ar      2 RES2    0.0000
    102 H40        0.7454    7.6981    3.9253 H         2 RES2    0.0000
    103 C63        0.6337    5.7028    4.1561 C.ar      2 RES2    0.0000
    104 H41       -0.2407    5.6156    3.7936 H         2 RES2    0.0000
    105 C64        1.3196    4.5461    4.6334 C.ar      2 RES2    0.0000
    106 H42        0.9036    3.6955    4.5819 H         2 RES2    0.0000
    107 C65        2.5708    4.6601    5.1631 C.ar      2 RES2    0.0000
    108 H43        3.0045    3.8861    5.5008 H         2 RES2    0.0000
    109 C66        3.2488    5.9255    5.2216 C.ar      2 RES2    0.0000
    110 C67        2.4837    9.6047    4.3749 C.ar      2 RES2    0.0000
    111 C68        1.7294   10.2863    5.3285 C.ar      2 RES2    0.0000
    112 H44        1.6766    9.9429    6.2128 H         2 RES2    0.0000
    113 C69        1.0501   11.4610    5.0106 C.ar      2 RES2    0.0000
    114 H45        0.5428   11.9053    5.6790 H         2 RES2    0.0000
    115 C70        1.1080   11.9869    3.7263 C.ar      2 RES2    0.0000
    116 C71        1.8741   11.3180    2.7846 C.ar      2 RES2    0.0000
    117 H46        1.9348   11.6653    1.9023 H         2 RES2    0.0000
    118 C72        2.5536   10.1532    3.1014 C.ar      2 RES2    0.0000
    119 H47        3.0759    9.7205    2.4350 H         2 RES2    0.0000
    120 C73        0.3726   13.2441    3.3500 C.ar      2 RES2    0.0000
    121 C74        1.0636   14.4731    3.2629 C.ar      2 RES2    0.0000
    122 C75        2.4712   14.5794    3.5084 C.ar      2 RES2    0.0000
    123 H48        2.9641   13.7972    3.7312 H         2 RES2    0.0000
    124 C76        3.1189   15.7770    3.4272 C.ar      2 RES2    0.0000
    125 H49        4.0552   15.8161    3.5827 H         2 RES2    0.0000
    126 C77        2.4025   16.9668    3.1133 C.ar      2 RES2    0.0000
    127 H50        2.8590   17.7998    3.0717 H         2 RES2    0.0000
    128 C78        1.0652   16.9114    2.8737 C.ar      2 RES2    0.0000
    129 H51        0.6013   17.7115    2.6588 H         2 RES2    0.0000
    130 C79        0.3369   15.6785    2.9351 C.ar      2 RES2    0.0000
    131 C80       -1.0498   15.6273    2.6905 C.ar      2 RES2    0.0000
    132 C81       -1.7307   14.3944    2.7529 C.ar      2 RES2    0.0000
    133 C82       -3.1386   14.2906    2.4865 C.ar      2 RES2    0.0000
    134 H52       -3.6266   15.0749    2.2686 H         2 RES2    0.0000
    135 C83       -3.7917   13.0994    2.5400 C.ar      2 RES2    0.0000
    136 H53       -4.7223   13.0595    2.3548 H         2 RES2    0.0000
    137 C84       -3.0804   11.9128    2.8727 C.ar      2 RES2    0.0000
    138 H54       -3.5417   11.0829    2.9163 H         2 RES2    0.0000
    139 C85       -1.7458   11.9558    3.1302 C.ar      2 RES2    0.0000
    140 H55       -1.2891   11.1500    3.3450 H         2 RES2    0.0000
    141 C86       -1.0135   13.1841    3.0846 C.ar      2 RES2    0.0000
    142 C87       -1.8260   16.8782    2.4103 C.ar      2 RES2    0.0000
    143 C88       -2.5031   17.5252    3.4381 C.ar      2 RES2    0.0000
    144 H56       -2.4399   17.1892    4.3254 H         2 RES2    0.0000
    145 C89       -3.2717   18.6561    3.1876 C.ar      2 RES2    0.0000
    146 H57       -3.7274   19.0881    3.9016 H         2 RES2    0.0000
    147 C90       -3.3766   19.1573    1.9013 C.ar      2 RES2    0.0000
    148 H58       -3.9101   19.9246    1.7290 H         2 RES2    0.0000
    149 C91       -2.7014   18.5378    0.8694 C.ar      2 RES2    0.0000
    150 H59       -2.7630   18.8834   -0.0129 H         2 RES2    0.0000
    151 C92       -1.9261   17.4016    1.1190 C.ar      2 RES2    0.0000
    152 H60       -1.4635   16.9809    0.4040 H         2 RES2    0.0000
@<TRIPOS>BOND
     1    1    2 ar
     2    2    3 1
     3    4    2 ar
     4    5    4 1
     5    6    4 ar
     6    7    6 1
     7    8    6 ar
     8    9    8 1
     9   10    1 ar
    10   11   10 1
    11   12   13 1
    12   14   12 ar
    13   15   14 1
    14   16   14 ar
    15   17    1 1
    16   18   17 ar
    17   19   18 ar
    18   20   19 1
    19   21   19 ar
    20   22   21 1
    21   23   21 ar
    22   24   23 1
    23   25   23 ar
    24   26   25 1
    25   27   18 ar
    26   28   27 ar
    27   29   16 ar
    28   30   29 ar
    29   31   30 1
    30   32   12 ar
    31   33   32 1
    32   34   28 1
    33   35   34 ar
    34   36   35 1
    35   37   35 ar
    36   38   37 1
    37   39   37 ar
    38   40   39 ar
    39   41   40 1
    40   42   34 ar
    41   43   42 1
    42   44   39 1
    43   45   44 ar
    44   46   45 ar
    45   47   46 1
    46   48   46 ar
    47   49   48 1
    48   50   48 ar
    49   51   50 1
    50   52   50 ar
    51   53   52 1
    52   54   45 ar
    53   55   54 ar
    54   56   55 ar
    55   57   56 ar
    56   58   57 1
    57   59   57 ar
    58   60   59 1
    59   61   59 ar
    60   62   61 1
    61   63   61 ar
    62   64   63 1
    63   65   44 ar
    64   66   55 1
    65   67   66 ar
    66   68   67 1
    67   69   67 ar
    68   70   69 1
    69   71   69 ar
    70   72   71 1
    71   73   71 ar
    72   74   73 1
    73   75   66 ar
    74   76   75 1
    75   77   78 ar
    76   78   79 1
    77   80   78 ar
    78   81   80 1
    79   82   80 ar
    80   83   82 1
    81   84   82 ar
    82   85   84 1
    83   86   77 ar
    84   87   86 1
    85   88   77 1
    86   89   88 ar
    87   90   89 ar
    88   91   90 1
    89   92   90 ar
    90   93   92 1
    91   94   92 ar
    92   95   94 1
    93   96   94 ar
    94   97   96 1
    95   98   89 ar
    96   99   98 ar
    97  100   99 ar
    98  101  100 ar
    99  102  101 1
   100  103  101 ar
   101  104  103 1
   102  105  103 ar
   103  106  105 1
   104  107  105 ar
   105  108  107 1
   106  109   88 ar
   107  110   99 1
   108  111  110 ar
   109  112  111 1
   110  113  111 ar
   111  114  113 1
   112  115  113 ar
   113  116  115 ar
   114  117  116 1
   115  118  110 ar
   116  119  118 1
   117  120  115 1
   118  121  120 ar
   119  122  121 ar
   120  123  122 1
   121  124  122 ar
   122  125  124 1
   123  126  124 ar
   124  127  126 1
   125  128  126 ar
   126  129  128 1
   127  130  121 ar
   128  131  130 ar
   129  132  131 ar
   130  133  132 ar
   131  134  133 1
   132  135  133 ar
   133  136  135 1
   134  137  135 ar
   135  138  137 1
   136  139  137 ar
   137  140  139 1
   138  141  120 ar
   139  142  131 1
   140  143  142 ar
   141  144  143 1
   142  145  143 ar
   143  146  145 1
   144  147  145 ar
   145  148  147 1
   146  149  147 ar
   147  150  149 1
   148  151  142 ar
   149  152  151 1
   150    8   10 ar
   151   16   17 ar
   152   25   27 ar
   153   28   29 ar
   154   30   32 ar
   155   40   42 ar
   156   52   54 ar
   157   56   65 ar
   158   63   65 ar
   159   73   75 ar
   160   84   86 ar
   161   96   98 ar
   162  100  109 ar
   163  107  109 ar
   164  116  118 ar
   165  128  130 ar
   166  132  141 ar
   167  139  141 ar
   168  149  151 ar
@<TRIPOS>SUBSTRUCTURE
     1 RES1 1
     2 RES2 77

@<TRIPOS>CRYSIN
  17.4709   35.2960   10.1108  90.0000 101.6520  90.0000  14 1

