# MOL2 file generated by ConQuest
# Please check atom types

@<TRIPOS>MOLECULE
JIKRAW
    40    44     1
SMALL
NO_CHARGES
****
Generated from CSD

@<TRIPOS>ATOM
      1 C1         7.0600    3.4734    6.7293 C.ar      1 RES1    0.0000
      2 C2         6.5750    2.3110    6.2154 C.ar      1 RES1    0.0000
      3 C3         7.2765    1.1266    6.6036 C.ar      1 RES1    0.0000
      4 C4         8.3529    1.0808    7.4607 C.ar      1 RES1    0.0000
      5 C5         8.8699    2.2839    8.0118 C.ar      1 RES1    0.0000
      6 C6         9.8950    2.6594    8.9163 C.ar      1 RES1    0.0000
      7 C7        10.0523    3.9900    9.2507 C.ar      1 RES1    0.0000
      8 C8         9.2666    5.0758    8.7558 C.ar      1 RES1    0.0000
      9 C9         8.2964    4.7292    7.8647 C.ar      1 RES1    0.0000
     10 C10        8.1656    3.3748    7.5706 C.ar      1 RES1    0.0000
     11 C11        7.0932    4.9925    6.9420 C.2       1 RES1    0.0000
     12 C12        6.3874    6.0512    6.5269 C.2       1 RES1    0.0000
     13 C13        5.1332    5.8728    5.7505 C.ar      1 RES1    0.0000
     14 C14        4.1854    4.9229    6.1221 C.ar      1 RES1    0.0000
     15 C15        2.9851    4.8124    5.4429 C.ar      1 RES1    0.0000
     16 C16        2.7072    5.6451    4.3818 C.ar      1 RES1    0.0000
     17 C17        3.6432    6.5797    3.9841 C.ar      1 RES1    0.0000
     18 C18        4.8419    6.6935    4.6601 C.ar      1 RES1    0.0000
     19 C19        6.7922    7.4327    6.8874 C.ar      1 RES1    0.0000
     20 C20        5.8280    8.4013    7.1768 C.ar      1 RES1    0.0000
     21 C21        6.1934    9.6724    7.5753 C.ar      1 RES1    0.0000
     22 C22        7.5168   10.0089    7.6749 C.ar      1 RES1    0.0000
     23 C23        8.4775    9.0811    7.3650 C.ar      1 RES1    0.0000
     24 C24        8.1193    7.8015    6.9768 C.ar      1 RES1    0.0000
     25 H1         5.8027    2.2771    5.6453 H         1 RES1    0.0000
     26 H2         6.8966    0.2889    6.2699 H         1 RES1    0.0000
     27 H3         8.7421    0.1869    7.6852 H         1 RES1    0.0000
     28 H4        10.5463    1.9542    9.3219 H         1 RES1    0.0000
     29 H5        10.7573    4.2143    9.8991 H         1 RES1    0.0000
     30 H6         9.4186    5.9985    9.0372 H         1 RES1    0.0000
     31 H7         4.3809    4.3162    6.8787 H         1 RES1    0.0000
     32 H8         2.3235    4.1123    5.7402 H         1 RES1    0.0000
     33 H9         1.8482    5.5737    3.9059 H         1 RES1    0.0000
     34 H10        3.4543    7.2050    3.2101 H         1 RES1    0.0000
     35 H11        5.5200    7.3580    4.3644 H         1 RES1    0.0000
     36 H12        4.9018    8.1906    7.1238 H         1 RES1    0.0000
     37 H13        5.5103   10.3657    7.7564 H         1 RES1    0.0000
     38 H14        7.7524   10.9435    7.9303 H         1 RES1    0.0000
     39 H15        9.4031    9.3462    7.4006 H         1 RES1    0.0000
     40 H16        8.8104    7.1710    6.7522 H         1 RES1    0.0000
@<TRIPOS>BOND
     1    1    2 ar
     2    2    3 ar
     3    3    4 ar
     4    4    5 ar
     5    5    6 ar
     6    6    7 ar
     7    7    8 ar
     8    8    9 ar
     9    9   10 ar
    10   10    1 ar
    11   11    1 1
    12   12   11 2
    13   13   12 1
    14   14   13 ar
    15   15   14 ar
    16   16   15 ar
    17   17   16 ar
    18   18   13 ar
    19   19   12 1
    20   20   19 ar
    21   21   20 ar
    22   22   21 ar
    23   23   22 ar
    24   24   19 ar
    25   25    2 1
    26   26    3 1
    27   27    4 1
    28   28    6 1
    29   29    7 1
    30   30    8 1
    31   31   14 1
    32   32   15 1
    33   33   16 1
    34   34   17 1
    35   35   18 1
    36   36   20 1
    37   37   21 1
    38   38   22 1
    39   39   23 1
    40   40   24 1
    41    5   10 ar
    42    9   11 1
    43   17   18 ar
    44   23   24 ar
@<TRIPOS>SUBSTRUCTURE
     1 RES1 1

@<TRIPOS>CRYSIN
  12.0850   16.9930    8.1340  90.0000 103.5800  90.0000  14 1

