# MOL2 file generated by ConQuest
# Please check atom types

@<TRIPOS>MOLECULE
JILZIO
    72    76     1
SMALL
NO_CHARGES
****
Generated from CSD

@<TRIPOS>ATOM
      1 C1         3.3559    0.2370    0.1160 C.ar      1 RES1    0.0000
      2 C2         1.9660    0.4982    0.2813 C.ar      1 RES1    0.0000
      3 H1         1.3481   -0.1159   -0.1230 H         1 RES1    0.0000
      4 C3         1.5246    1.5691    0.9958 C.ar      1 RES1    0.0000
      5 H2         0.5846    1.7213    1.0930 H         1 RES1    0.0000
      6 C4         2.4526    2.4686    1.5848 C.ar      1 RES1    0.0000
      7 H3         2.1139    3.2109    2.0911 H         1 RES1    0.0000
      8 C5         3.7875    2.2590    1.4511 C.ar      1 RES1    0.0000
      9 H4         4.4729    2.8965    1.8134 H         1 RES1    0.0000
     10 C6         4.2913    1.1355    0.7266 C.ar      1 RES1    0.0000
     11 C7         3.8226   -0.8834   -0.6075 C.ar      1 RES1    0.0000
     12 C8         2.8794   -1.7711   -1.2313 C.1       1 RES1    0.0000
     13 C9         2.1117   -2.4714   -1.8266 C.1       1 RES1    0.0000
     14 C10        1.2201   -3.3802   -2.5063 C.ar      1 RES1    0.0000
     15 C11        0.8216   -4.5095   -1.7835 C.ar      1 RES1    0.0000
     16 H5         1.1205   -4.6343   -0.8575 H         1 RES1    0.0000
     17 C12        0.0301   -5.4892   -2.3625 C.ar      1 RES1    0.0000
     18 H6        -0.2130   -6.2895   -1.8749 H         1 RES1    0.0000
     19 C13       -0.3734   -5.3345   -3.6727 C.ar      1 RES1    0.0000
     20 H7        -0.8659   -6.0246   -4.1189 H         1 RES1    0.0000
     21 C14       -0.0083   -4.2021   -4.3907 C.ar      1 RES1    0.0000
     22 H8        -0.3150   -4.1121   -5.2927 H         1 RES1    0.0000
     23 C15        0.7923   -3.1921   -3.8497 C.ar      1 RES1    0.0000
     24 C16        1.2034   -1.9631   -4.6766 C.3       1 RES1    0.0000
     25 C17        2.7306   -1.9406   -4.8479 C.3       1 RES1    0.0000
     26 H9         3.0361   -2.7723   -5.3454 H         1 RES1    0.0000
     27 H10        2.9893   -1.1751   -5.4192 H         1 RES1    0.0000
     28 H11        3.2173   -1.8951   -3.9748 H         1 RES1    0.0000
     29 C18        0.6065   -2.0019   -6.0911 C.3       1 RES1    0.0000
     30 H12        0.9067   -1.1751   -6.5912 H         1 RES1    0.0000
     31 H13       -0.3987   -1.9779   -6.0676 H         1 RES1    0.0000
     32 H14        0.9803   -2.7972   -6.5877 H         1 RES1    0.0000
     33 C19        0.7103   -0.6687   -4.0031 C.3       1 RES1    0.0000
     34 H15        0.9536    0.1572   -4.5863 H         1 RES1    0.0000
     35 H16        1.1248   -0.5296   -3.1243 H         1 RES1    0.0000
     36 H17       -0.2534   -0.6703   -3.8974 H         1 RES1    0.0000
     37 C1B        6.1468   -0.2370   -0.1160 C.ar      1 RES1    0.0000
     38 C2B        7.5367   -0.4982   -0.2813 C.ar      1 RES1    0.0000
     39 H1B        8.1546    0.1159    0.1230 H         1 RES1    0.0000
     40 C3B        7.9781   -1.5691   -0.9958 C.ar      1 RES1    0.0000
     41 H2B        8.9181   -1.7213   -1.0930 H         1 RES1    0.0000
     42 C4B        7.0501   -2.4686   -1.5848 C.ar      1 RES1    0.0000
     43 H3B        7.3888   -3.2109   -2.0911 H         1 RES1    0.0000
     44 C5B        5.7152   -2.2590   -1.4511 C.ar      1 RES1    0.0000
     45 H4B        5.0298   -2.8965   -1.8134 H         1 RES1    0.0000
     46 C6B        5.2114   -1.1355   -0.7266 C.ar      1 RES1    0.0000
     47 C7B        5.6801    0.8834    0.6075 C.ar      1 RES1    0.0000
     48 C8B        6.6233    1.7711    1.2313 C.1       1 RES1    0.0000
     49 C9B        7.3910    2.4714    1.8266 C.1       1 RES1    0.0000
     50 C10B       8.2826    3.3802    2.5063 C.ar      1 RES1    0.0000
     51 C11B       8.6811    4.5095    1.7835 C.ar      1 RES1    0.0000
     52 H5B        8.3822    4.6343    0.8575 H         1 RES1    0.0000
     53 C12B       9.4726    5.4892    2.3625 C.ar      1 RES1    0.0000
     54 H6B        9.7157    6.2895    1.8749 H         1 RES1    0.0000
     55 C13B       9.8761    5.3345    3.6727 C.ar      1 RES1    0.0000
     56 H7B       10.3686    6.0246    4.1189 H         1 RES1    0.0000
     57 C14B       9.5110    4.2021    4.3907 C.ar      1 RES1    0.0000
     58 H8B        9.8177    4.1121    5.2927 H         1 RES1    0.0000
     59 C15B       8.7104    3.1921    3.8497 C.ar      1 RES1    0.0000
     60 C16B       8.2993    1.9631    4.6766 C.3       1 RES1    0.0000
     61 C17B       6.7721    1.9406    4.8479 C.3       1 RES1    0.0000
     62 H9B        6.4666    2.7723    5.3454 H         1 RES1    0.0000
     63 H10B       6.5134    1.1751    5.4192 H         1 RES1    0.0000
     64 H11B       6.2854    1.8951    3.9748 H         1 RES1    0.0000
     65 C18B       8.8962    2.0019    6.0911 C.3       1 RES1    0.0000
     66 H12B       8.5960    1.1751    6.5912 H         1 RES1    0.0000
     67 H13B       9.9014    1.9779    6.0676 H         1 RES1    0.0000
     68 H14B       8.5224    2.7972    6.5877 H         1 RES1    0.0000
     69 C19B       8.7924    0.6687    4.0031 C.3       1 RES1    0.0000
     70 H15B       8.5491   -0.1572    4.5863 H         1 RES1    0.0000
     71 H16B       8.3779    0.5296    3.1243 H         1 RES1    0.0000
     72 H17B       9.7561    0.6703    3.8974 H         1 RES1    0.0000
@<TRIPOS>BOND
     1    1    2 ar
     2    2    3 1
     3    4    2 ar
     4    5    4 1
     5    6    4 ar
     6    7    6 1
     7    8    6 ar
     8    9    8 1
     9   10    1 ar
    10   11    1 ar
    11   12   11 1
    12   13   12 3
    13   14   13 1
    14   15   14 ar
    15   16   15 1
    16   17   15 ar
    17   18   17 1
    18   19   17 ar
    19   20   19 1
    20   21   19 ar
    21   22   21 1
    22   23   14 ar
    23   24   23 1
    24   25   24 1
    25   26   25 1
    26   27   25 1
    27   28   25 1
    28   29   24 1
    29   30   29 1
    30   31   29 1
    31   32   29 1
    32   33   24 1
    33   34   33 1
    34   35   33 1
    35   36   33 1
    36   37   38 ar
    37   38   39 1
    38   40   38 ar
    39   41   40 1
    40   42   40 ar
    41   43   42 1
    42   44   42 ar
    43   45   44 1
    44   46   11 ar
    45   47   10 ar
    46   48   47 1
    47   49   48 3
    48   50   49 1
    49   51   50 ar
    50   52   51 1
    51   53   51 ar
    52   54   53 1
    53   55   53 ar
    54   56   55 1
    55   57   55 ar
    56   58   57 1
    57   59   50 ar
    58   60   59 1
    59   61   60 1
    60   62   61 1
    61   63   61 1
    62   64   61 1
    63   65   60 1
    64   66   65 1
    65   67   65 1
    66   68   65 1
    67   69   60 1
    68   70   69 1
    69   71   69 1
    70   72   69 1
    71    8   10 ar
    72   21   23 ar
    73   37   46 ar
    74   37   47 ar
    75   44   46 ar
    76   57   59 ar
@<TRIPOS>SUBSTRUCTURE
     1 RES1 1

@<TRIPOS>CRYSIN
   9.5027    8.2756   17.7737  90.0000  98.6420  90.0000 231 1

