# MOL2 file generated by ConQuest
# Please check atom types

@<TRIPOS>MOLECULE
JINYAH
    66    73     1
SMALL
NO_CHARGES
****
Generated from CSD

@<TRIPOS>ATOM
      1 C1        -1.2782    4.6730    4.6844 C.ar      1 RES1    0.0000
      2 C2        -0.3552    3.7656    5.1591 C.ar      1 RES1    0.0000
      3 C3         0.1554    3.9127    6.4831 C.ar      1 RES1    0.0000
      4 H1         0.7980    3.2918    6.8041 H         1 RES1    0.0000
      5 C4        -0.2560    4.9199    7.2967 C.ar      1 RES1    0.0000
      6 H2         0.1321    5.0189    8.1583 H         1 RES1    0.0000
      7 C5        -1.2572    5.8220    6.8725 C.ar      1 RES1    0.0000
      8 C6        -1.7747    6.8124    7.7428 C.ar      1 RES1    0.0000
      9 H3        -1.3952    6.9218    8.6065 H         1 RES1    0.0000
     10 C7        -2.8076    7.6078    7.3577 C.ar      1 RES1    0.0000
     11 H4        -3.1546    8.2581    7.9564 H         1 RES1    0.0000
     12 C8        -3.3633    7.4680    6.0724 C.ar      1 RES1    0.0000
     13 H5        -4.0987    8.0128    5.8155 H         1 RES1    0.0000
     14 C9        -2.8548    6.5540    5.1858 C.ar      1 RES1    0.0000
     15 H6        -3.2212    6.4940    4.3120 H         1 RES1    0.0000
     16 C10       -1.7878    5.6964    5.5576 C.ar      1 RES1    0.0000
     17 C11        0.1647    2.6161    4.3652 C.ar      1 RES1    0.0000
     18 C12        0.9245    2.8203    3.2371 C.ar      1 RES1    0.0000
     19 H7         1.0459    3.7040    2.9102 H         1 RES1    0.0000
     20 C13        1.5269    1.7389    2.5570 C.ar      1 RES1    0.0000
     21 H8         2.0474    1.9007    1.7785 H         1 RES1    0.0000
     22 C14        1.3632    0.4635    3.0128 C.ar      1 RES1    0.0000
     23 H9         1.7937   -0.2542    2.5621 H         1 RES1    0.0000
     24 C15        0.5625    0.1972    4.1465 C.ar      1 RES1    0.0000
     25 C16        0.3350   -1.1234    4.6113 C.ar      1 RES1    0.0000
     26 H10        0.7576   -1.8503    4.1689 H         1 RES1    0.0000
     27 C17       -0.4736   -1.3723    5.6757 C.ar      1 RES1    0.0000
     28 H11       -0.6044   -2.2647    5.9745 H         1 RES1    0.0000
     29 C18       -1.1157   -0.3116    6.3330 C.ar      1 RES1    0.0000
     30 H12       -1.6937   -0.4906    7.0664 H         1 RES1    0.0000
     31 C19       -0.9152    0.9818    5.9241 C.ar      1 RES1    0.0000
     32 H13       -1.3558    1.6901    6.3782 H         1 RES1    0.0000
     33 C20       -0.0582    1.2792    4.8322 C.ar      1 RES1    0.0000
     34 C1B       -1.7580    4.6730    3.2625 C.ar      1 RES1    0.0000
     35 C2B       -2.6810    3.7656    2.7878 C.ar      1 RES1    0.0000
     36 C3B       -3.1916    3.9127    1.4638 C.ar      1 RES1    0.0000
     37 H1B       -3.8342    3.2918    1.1428 H         1 RES1    0.0000
     38 C4B       -2.7802    4.9199    0.6502 C.ar      1 RES1    0.0000
     39 H2B       -3.1683    5.0189   -0.2114 H         1 RES1    0.0000
     40 C5B       -1.7790    5.8220    1.0744 C.ar      1 RES1    0.0000
     41 C6B       -1.2616    6.8124    0.2041 C.ar      1 RES1    0.0000
     42 H3B       -1.6410    6.9218   -0.6596 H         1 RES1    0.0000
     43 C7B       -0.2286    7.6078    0.5892 C.ar      1 RES1    0.0000
     44 H4B        0.1184    8.2581   -0.0095 H         1 RES1    0.0000
     45 C8B        0.3271    7.4680    1.8745 C.ar      1 RES1    0.0000
     46 H5B        1.0625    8.0128    2.1314 H         1 RES1    0.0000
     47 C9B       -0.1814    6.5540    2.7611 C.ar      1 RES1    0.0000
     48 H6B        0.1850    6.4940    3.6349 H         1 RES1    0.0000
     49 C10B      -1.2484    5.6964    2.3893 C.ar      1 RES1    0.0000
     50 C11B      -3.2009    2.6161    3.5817 C.ar      1 RES1    0.0000
     51 C12B      -3.9607    2.8203    4.7098 C.ar      1 RES1    0.0000
     52 H7B       -4.0821    3.7040    5.0367 H         1 RES1    0.0000
     53 C13B      -4.5631    1.7389    5.3899 C.ar      1 RES1    0.0000
     54 H8B       -5.0836    1.9007    6.1684 H         1 RES1    0.0000
     55 C14B      -4.3994    0.4635    4.9341 C.ar      1 RES1    0.0000
     56 H9B       -4.8299   -0.2542    5.3848 H         1 RES1    0.0000
     57 C15B      -3.5987    0.1972    3.8004 C.ar      1 RES1    0.0000
     58 C16B      -3.3712   -1.1234    3.3356 C.ar      1 RES1    0.0000
     59 H10B      -3.7938   -1.8503    3.7780 H         1 RES1    0.0000
     60 C17B      -2.5626   -1.3723    2.2712 C.ar      1 RES1    0.0000
     61 H11B      -2.4318   -2.2647    1.9724 H         1 RES1    0.0000
     62 C18B      -1.9205   -0.3116    1.6139 C.ar      1 RES1    0.0000
     63 H12B      -1.3425   -0.4906    0.8805 H         1 RES1    0.0000
     64 C19B      -2.1210    0.9818    2.0228 C.ar      1 RES1    0.0000
     65 H13B      -1.6804    1.6901    1.5687 H         1 RES1    0.0000
     66 C20B      -2.9780    1.2792    3.1147 C.ar      1 RES1    0.0000
@<TRIPOS>BOND
     1    1    2 ar
     2    2    3 ar
     3    3    4 1
     4    5    3 ar
     5    6    5 1
     6    7    5 ar
     7    8    7 ar
     8    9    8 1
     9   10    8 ar
    10   11   10 1
    11   12   10 ar
    12   13   12 1
    13   14   12 ar
    14   15   14 1
    15   16    1 ar
    16   17    2 1
    17   18   17 ar
    18   19   18 1
    19   20   18 ar
    20   21   20 1
    21   22   20 ar
    22   23   22 1
    23   24   22 ar
    24   25   24 ar
    25   26   25 1
    26   27   25 ar
    27   28   27 1
    28   29   27 ar
    29   30   29 1
    30   31   29 ar
    31   32   31 1
    32   33   17 ar
    33   34    1 1
    34   35   34 ar
    35   36   35 ar
    36   37   36 1
    37   38   36 ar
    38   39   38 1
    39   40   38 ar
    40   41   40 ar
    41   42   41 1
    42   43   41 ar
    43   44   43 1
    44   45   43 ar
    45   46   45 1
    46   47   45 ar
    47   48   47 1
    48   49   34 ar
    49   50   35 1
    50   51   50 ar
    51   52   51 1
    52   53   51 ar
    53   54   53 1
    54   55   53 ar
    55   56   55 1
    56   57   55 ar
    57   58   57 ar
    58   59   58 1
    59   60   58 ar
    60   61   60 1
    61   62   60 ar
    62   63   62 1
    63   64   62 ar
    64   65   64 1
    65   66   50 ar
    66    7   16 ar
    67   14   16 ar
    68   24   33 ar
    69   31   33 ar
    70   40   49 ar
    71   47   49 ar
    72   57   66 ar
    73   64   66 ar
@<TRIPOS>SUBSTRUCTURE
     1 RES1 1

@<TRIPOS>CRYSIN
  14.7084   11.2004   17.0143  90.0000 110.9100  90.0000  15 1

