# MOL2 file generated by ConQuest
# Please check atom types

@<TRIPOS>MOLECULE
JOGNEZ
   240   260     2
SMALL
NO_CHARGES
****
Generated from CSD

@<TRIPOS>ATOM
      1 C1        -1.4788    1.8955   28.9138 C.ar      1 RES1    0.0000
      2 C2        -2.8503    1.8994   29.2369 C.ar      1 RES1    0.0000
      3 C3        -2.9728    2.1134   30.6255 C.ar      1 RES1    0.0000
      4 C4        -1.6738    2.2451   31.1619 C.ar      1 RES1    0.0000
      5 C5        -0.7552    2.1111   30.1026 C.ar      1 RES1    0.0000
      6 C6        -1.0208    2.2843   27.6701 C.ar      1 RES1    0.0000
      7 C7        -2.0382    2.5023   26.6845 C.ar      1 RES1    0.0000
      8 H1        -1.7834    2.6489   25.8014 H         1 RES1    0.0000
      9 C8        -3.3901    2.5015   27.0034 C.ar      1 RES1    0.0000
     10 C9        -3.8415    2.2851   28.3452 C.ar      1 RES1    0.0000
     11 C10       -5.0909    2.6881   28.9570 C.ar      1 RES1    0.0000
     12 H2        -5.8369    2.8190   28.4179 H         1 RES1    0.0000
     13 C11       -5.2032    2.8825   30.3260 C.ar      1 RES1    0.0000
     14 C12       -4.0699    2.7186   31.2118 C.ar      1 RES1    0.0000
     15 C13       -3.8336    3.3387   32.4721 C.ar      1 RES1    0.0000
     16 H3        -4.5597    3.6515   32.9629 H         1 RES1    0.0000
     17 C14       -2.5503    3.4908   32.9911 C.ar      1 RES1    0.0000
     18 C15       -1.3893    3.0110   32.2901 C.ar      1 RES1    0.0000
     19 C16       -0.0251    3.4265   32.4041 C.ar      1 RES1    0.0000
     20 H4         0.2589    3.8091   33.2025 H         1 RES1    0.0000
     21 C17        0.8928    3.2815   31.3679 C.ar      1 RES1    0.0000
     22 C18        0.5008    2.7061   30.1084 C.ar      1 RES1    0.0000
     23 C19        1.0722    2.9162   28.8125 C.ar      1 RES1    0.0000
     24 H5         1.9594    3.1882   28.7580 H         1 RES1    0.0000
     25 C20        0.3578    2.7327   27.6341 C.ar      1 RES1    0.0000
     26 C21       -4.3342    2.8535   25.9595 C.1       1 RES1    0.0000
     27 C22       -5.0495    3.1349   25.0617 C.1       1 RES1    0.0000
     28 C23       -5.8410    3.4884   23.9015 C.ar      1 RES1    0.0000
     29 C24       -5.9911    2.5987   22.8545 C.ar      1 RES1    0.0000
     30 H6        -5.6100    1.7528   22.9106 H         1 RES1    0.0000
     31 C25       -6.7059    2.9546   21.7264 C.ar      1 RES1    0.0000
     32 C26       -7.2511    4.2206   21.6615 C.ar      1 RES1    0.0000
     33 H7        -7.7189    4.4683   20.8970 H         1 RES1    0.0000
     34 C27       -7.1230    5.1355   22.6934 C.ar      1 RES1    0.0000
     35 C28       -6.4169    4.7615   23.8346 C.ar      1 RES1    0.0000
     36 H8        -6.3280    5.3534   24.5454 H         1 RES1    0.0000
     37 C29       -6.8662    1.9731   20.5782 C.3       1 RES1    0.0000
     38 H9        -7.0140    2.4560   19.7607 H         1 RES1    0.0000
     39 H10       -7.6157    1.3985   20.7501 H         1 RES1    0.0000
     40 H11       -6.0699    1.4432   20.4951 H         1 RES1    0.0000
     41 C30       -7.6870    6.5489   22.5906 C.3       1 RES1    0.0000
     42 H12       -6.9705    7.1846   22.6439 H         1 RES1    0.0000
     43 H13       -8.3034    6.7002   23.3086 H         1 RES1    0.0000
     44 H14       -8.1413    6.6516   21.7511 H         1 RES1    0.0000
     45 C31       -6.4381    3.3889   30.9153 C.1       1 RES1    0.0000
     46 C32       -7.3977    3.8028   31.4734 C.1       1 RES1    0.0000
     47 C33       -8.5531    4.2920   32.1730 C.ar      1 RES1    0.0000
     48 C34       -9.8499    4.0121   31.7405 C.ar      1 RES1    0.0000
     49 H15       -9.9721    3.5112   30.9648 H         1 RES1    0.0000
     50 C35      -10.9596    4.4613   32.4354 C.ar      1 RES1    0.0000
     51 C36      -10.7388    5.1809   33.5956 C.ar      1 RES1    0.0000
     52 H16      -11.4759    5.4780   34.0798 H         1 RES1    0.0000
     53 C37       -9.4748    5.4812   34.0744 C.ar      1 RES1    0.0000
     54 C38       -8.3888    5.0281   33.3451 C.ar      1 RES1    0.0000
     55 H17       -7.5289    5.2193   33.6431 H         1 RES1    0.0000
     56 C39      -12.3464    4.1563   31.9422 C.3       1 RES1    0.0000
     57 H18      -12.9874    4.3852   32.6228 H         1 RES1    0.0000
     58 H19      -12.4149    3.2203   31.7416 H         1 RES1    0.0000
     59 H20      -12.5252    4.6682   31.1503 H         1 RES1    0.0000
     60 C40       -9.2901    6.2494   35.3564 C.3       1 RES1    0.0000
     61 H21       -8.8376    5.6960   35.9968 H         1 RES1    0.0000
     62 H22      -10.1482    6.5058   35.7031 H         1 RES1    0.0000
     63 H23       -8.7647    7.0349   35.1852 H         1 RES1    0.0000
     64 C41       -2.3325    4.3578   34.1363 C.1       1 RES1    0.0000
     65 C42       -2.0717    5.1182   35.0186 C.1       1 RES1    0.0000
     66 C43       -1.7423    6.0558   36.0548 C.ar      1 RES1    0.0000
     67 C44       -1.6084    5.6325   37.3638 C.ar      1 RES1    0.0000
     68 H24       -1.7444    4.7364   37.5698 H         1 RES1    0.0000
     69 C45       -1.2767    6.5159   38.3686 C.ar      1 RES1    0.0000
     70 C46       -1.0471    7.8267   38.0339 C.ar      1 RES1    0.0000
     71 H25       -0.8234    8.4264   38.7099 H         1 RES1    0.0000
     72 C47       -1.1375    8.2915   36.7377 C.ar      1 RES1    0.0000
     73 C48       -1.5246    7.4010   35.7676 C.ar      1 RES1    0.0000
     74 H26       -1.6462    7.7044   34.8953 H         1 RES1    0.0000
     75 C49       -1.1556    6.0479   39.7998 C.3       1 RES1    0.0000
     76 H27       -0.7432    5.1817   39.8191 H         1 RES1    0.0000
     77 H28       -2.0282    5.9946   40.1940 H         1 RES1    0.0000
     78 H29       -0.6177    6.6704   40.2945 H         1 RES1    0.0000
     79 C50       -0.8258    9.7441   36.3941 C.3       1 RES1    0.0000
     80 H30       -0.1515    9.7739   35.7147 H         1 RES1    0.0000
     81 H31       -0.5106   10.1972   37.1794 H         1 RES1    0.0000
     82 H32       -1.6213   10.1753   36.0741 H         1 RES1    0.0000
     83 C51        2.2216    3.8436   31.5345 C.1       1 RES1    0.0000
     84 C52        3.2976    4.2951   31.7358 C.1       1 RES1    0.0000
     85 C53        4.6055    4.8062   32.0601 C.ar      1 RES1    0.0000
     86 C54        4.8028    5.4718   33.2675 C.ar      1 RES1    0.0000
     87 H33        4.0790    5.6262   33.8286 H         1 RES1    0.0000
     88 C55        6.0624    5.9076   33.6404 C.ar      1 RES1    0.0000
     89 C56        7.1113    5.6693   32.7762 C.ar      1 RES1    0.0000
     90 H34        7.9631    5.9554   33.0209 H         1 RES1    0.0000
     91 C57        6.9569    5.0273   31.5673 C.ar      1 RES1    0.0000
     92 C58        5.6848    4.5906   31.2133 C.ar      1 RES1    0.0000
     93 H35        5.5576    4.1509   30.4044 H         1 RES1    0.0000
     94 C59        6.2762    6.5920   34.9649 C.3       1 RES1    0.0000
     95 H36        7.1975    6.8507   35.0460 H         1 RES1    0.0000
     96 H37        6.0508    5.9891   35.6760 H         1 RES1    0.0000
     97 H38        5.7184    7.3712   35.0151 H         1 RES1    0.0000
     98 C60        8.1382    4.7506   30.6568 C.3       1 RES1    0.0000
     99 H39        8.2039    3.8067   30.4972 H         1 RES1    0.0000
    100 H40        8.9447    5.0618   31.0730 H         1 RES1    0.0000
    101 H41        8.0140    5.2084   29.8208 H         1 RES1    0.0000
    102 C61        0.8834    3.1145   26.3413 C.1       1 RES1    0.0000
    103 C62        1.1701    3.4594   25.2341 C.1       1 RES1    0.0000
    104 C63        1.4883    3.8153   23.8806 C.ar      1 RES1    0.0000
    105 C64        2.1046    5.0375   23.5919 C.ar      1 RES1    0.0000
    106 H42        2.3230    5.6168   24.2864 H         1 RES1    0.0000
    107 C65        2.3924    5.3965   22.2868 C.ar      1 RES1    0.0000
    108 C66        2.0772    4.5083   21.2723 C.ar      1 RES1    0.0000
    109 H43        2.2866    4.7310   20.3946 H         1 RES1    0.0000
    110 C67        1.4571    3.2956   21.5335 C.ar      1 RES1    0.0000
    111 C68        1.1631    2.9664   22.8394 C.ar      1 RES1    0.0000
    112 H44        0.7383    2.1589   23.0226 H         1 RES1    0.0000
    113 C69        3.0483    6.7331   21.9753 C.3       1 RES1    0.0000
    114 H45        2.4177    7.4418   22.1299 H         1 RES1    0.0000
    115 H46        3.3274    6.7464   21.0555 H         1 RES1    0.0000
    116 H47        3.8119    6.8546   22.5434 H         1 RES1    0.0000
    117 C70        1.1255    2.3345   20.4081 C.3       1 RES1    0.0000
    118 H48        1.2773    1.4330   20.6999 H         1 RES1    0.0000
    119 H49        1.6861    2.5227   19.6525 H         1 RES1    0.0000
    120 H50        0.2032    2.4403   20.1588 H         1 RES1    0.0000
    121 C71        4.7299    2.0343    9.1921 C.ar      2 RES2    0.0000
    122 C72        3.7367    1.9426   10.1737 C.ar      2 RES2    0.0000
    123 C73        4.3736    1.7889   11.4178 C.ar      2 RES2    0.0000
    124 C74        5.7786    1.7787   11.2025 C.ar      2 RES2    0.0000
    125 C75        5.9889    1.9324    9.8158 C.ar      2 RES2    0.0000
    126 C76        4.4848    1.6094    7.8799 C.ar      2 RES2    0.0000
    127 C77        3.1259    1.3052    7.5878 C.ar      2 RES2    0.0000
    128 H51        2.8866    1.1524    6.7016 H         2 RES2    0.0000
    129 C78        2.1303    1.2253    8.5737 C.ar      2 RES2    0.0000
    130 C79        2.4564    1.4393    9.9526 C.ar      2 RES2    0.0000
    131 C80        1.7923    0.9525   11.1221 C.ar      2 RES2    0.0000
    132 H52        0.8881    0.7345   11.0649 H         2 RES2    0.0000
    133 C81        2.4363    0.7910   12.3399 C.ar      2 RES2    0.0000
    134 C82        3.8230    1.1147   12.5127 C.ar      2 RES2    0.0000
    135 C83        4.7639    0.6162   13.4638 C.ar      2 RES2    0.0000
    136 H53        4.4511    0.2712   14.2689 H         2 RES2    0.0000
    137 C84        6.1321    0.6295   13.2277 C.ar      2 RES2    0.0000
    138 C85        6.6900    1.1249   12.0107 C.ar      2 RES2    0.0000
    139 C86        7.9389    0.7729   11.3919 C.ar      2 RES2    0.0000
    140 H54        8.6388    0.4617   11.9191 H         2 RES2    0.0000
    141 C87        8.1174    0.8913   10.0183 C.ar      2 RES2    0.0000
    142 C88        7.0912    1.3969    9.1507 C.ar      2 RES2    0.0000
    143 C89        6.9013    1.1696    7.7443 C.ar      2 RES2    0.0000
    144 H55        7.6386    0.9407    7.2272 H         2 RES2    0.0000
    145 C90        5.6644    1.2786    7.1302 C.ar      2 RES2    0.0000
    146 C91        0.8067    0.8074    8.1911 C.1       2 RES2    0.0000
    147 C92       -0.2528    0.4672    7.7907 C.1       2 RES2    0.0000
    148 C93       -1.5125    0.0564    7.2075 C.ar      2 RES2    0.0000
    149 C94       -1.5390   -0.5346    5.9479 C.ar      2 RES2    0.0000
    150 H56       -0.7397   -0.6601    5.4842 H         2 RES2    0.0000
    151 C95       -2.7226   -0.9352    5.3744 C.ar      2 RES2    0.0000
    152 C96       -3.8906   -0.7385    6.0828 C.ar      2 RES2    0.0000
    153 H57       -4.6921   -1.0191    5.7045 H         2 RES2    0.0000
    154 C97       -3.9179   -0.1380    7.3346 C.ar      2 RES2    0.0000
    155 C98       -2.7087    0.2477    7.8923 C.ar      2 RES2    0.0000
    156 H58       -2.6968    0.6397    8.7345 H         2 RES2    0.0000
    157 C99       -2.7144   -1.5898    4.0105 C.3       2 RES2    0.0000
    158 H59       -3.6088   -1.6063    3.6600 H         2 RES2    0.0000
    159 H60       -2.3839   -2.4882    4.0890 H         2 RES2    0.0000
    160 H61       -2.1455   -1.0912    3.4204 H         2 RES2    0.0000
    161 C100      -5.2200    0.0862    8.0519 C.3       2 RES2    0.0000
    162 H62       -5.5860   -0.7588    8.3248 H         2 RES2    0.0000
    163 H63       -5.8358    0.5284    7.4629 H         2 RES2    0.0000
    164 H64       -5.0693    0.6326    8.8272 H         2 RES2    0.0000
    165 C101       1.7791    0.1011   13.4441 C.1       2 RES2    0.0000
    166 C102       1.3540   -0.5205   14.3705 C.1       2 RES2    0.0000
    167 C103       0.8962   -1.3515   15.4584 C.ar      2 RES2    0.0000
    168 C104       0.9580   -2.7241   15.3649 C.ar      2 RES2    0.0000
    169 H65        1.2719   -3.1114   14.5780 H         2 RES2    0.0000
    170 C105       0.5687   -3.5339   16.4030 C.ar      2 RES2    0.0000
    171 C106       0.0934   -2.9554   17.5447 C.ar      2 RES2    0.0000
    172 H66       -0.1811   -3.4994   18.2457 H         2 RES2    0.0000
    173 C107       0.0095   -1.5968   17.6834 C.ar      2 RES2    0.0000
    174 C108       0.4182   -0.8012   16.6353 C.ar      2 RES2    0.0000
    175 H67        0.3709    0.1239   16.7191 H         2 RES2    0.0000
    176 C109       0.6765   -5.0383   16.2898 C.3       2 RES2    0.0000
    177 H68       -0.1347   -5.4428   16.6109 H         2 RES2    0.0000
    178 H69        1.4185   -5.3471   16.8158 H         2 RES2    0.0000
    179 H70        0.8117   -5.2813   15.3703 H         2 RES2    0.0000
    180 C110      -0.5104   -0.9995   18.9754 C.3       2 RES2    0.0000
    181 H71       -0.5034   -1.6690   19.6641 H         2 RES2    0.0000
    182 H72       -1.4068   -0.6851   18.8448 H         2 RES2    0.0000
    183 H73        0.0527   -0.2650   19.2351 H         2 RES2    0.0000
    184 C111       7.0174   -0.0470   14.1680 C.1       2 RES2    0.0000
    185 C112       7.7731   -0.6091   14.8977 C.1       2 RES2    0.0000
    186 C113       8.5950   -1.3797   15.8082 C.ar      2 RES2    0.0000
    187 C114       8.3883   -2.7437   15.9586 C.ar      2 RES2    0.0000
    188 H74        7.7373   -3.1678   15.4476 H         2 RES2    0.0000
    189 C115       9.1346   -3.4806   16.8536 C.ar      2 RES2    0.0000
    190 C116      10.1064   -2.8323   17.5798 C.ar      2 RES2    0.0000
    191 H75       10.6093   -3.3254   18.1878 H         2 RES2    0.0000
    192 C117      10.3699   -1.4769   17.4488 C.ar      2 RES2    0.0000
    193 C118       9.6017   -0.7628   16.5441 C.ar      2 RES2    0.0000
    194 H76        9.7629    0.1458   16.4254 H         2 RES2    0.0000
    195 C119       8.8648   -4.9458   17.0306 C.3       2 RES2    0.0000
    196 H77        7.9912   -5.0673   17.4071 H         2 RES2    0.0000
    197 H78        9.5216   -5.3236   17.6196 H         2 RES2    0.0000
    198 H79        8.9100   -5.3847   16.1781 H         2 RES2    0.0000
    199 C120      11.4430   -0.7808   18.2627 C.3       2 RES2    0.0000
    200 H80       11.0307   -0.2791   18.9723 H         2 RES2    0.0000
    201 H81       11.9396   -0.1866   17.6969 H         2 RES2    0.0000
    202 H82       12.0377   -1.4361   18.6361 H         2 RES2    0.0000
    203 C121       9.3157    0.3426    9.3768 C.1       2 RES2    0.0000
    204 C122      10.2608   -0.0972    8.7978 C.1       2 RES2    0.0000
    205 C123      11.4175   -0.5503    8.0929 C.ar      2 RES2    0.0000
    206 C124      12.7025   -0.3136    8.5748 C.ar      2 RES2    0.0000
    207 H83       12.8111    0.1035    9.3992 H         2 RES2    0.0000
    208 C125      13.8136   -0.6875    7.8510 C.ar      2 RES2    0.0000
    209 C126      13.6275   -1.3225    6.6374 C.ar      2 RES2    0.0000
    210 H84       14.3752   -1.5757    6.1450 H         2 RES2    0.0000
    211 C127      12.3639   -1.5968    6.1257 C.ar      2 RES2    0.0000
    212 C128      11.2614   -1.2010    6.8647 C.ar      2 RES2    0.0000
    213 H85       10.4067   -1.3703    6.5392 H         2 RES2    0.0000
    214 C129      15.2117   -0.3974    8.3545 C.3       2 RES2    0.0000
    215 H86       15.6942    0.0980    7.6910 H         2 RES2    0.0000
    216 H87       15.6683   -1.2245    8.5296 H         2 RES2    0.0000
    217 H88       15.1584    0.1184    9.1635 H         2 RES2    0.0000
    218 C130      12.1923   -2.3337    4.8067 C.3       2 RES2    0.0000
    219 H89       11.3515   -2.7947    4.8040 H         2 RES2    0.0000
    220 H90       12.9029   -2.9679    4.6996 H         2 RES2    0.0000
    221 H91       12.2129   -1.7027    4.0851 H         2 RES2    0.0000
    222 C131       5.4898    0.8827    5.7334 C.1       2 RES2    0.0000
    223 C132       5.3087    0.5644    4.6103 C.1       2 RES2    0.0000
    224 C133       5.1086    0.1231    3.2526 C.ar      2 RES2    0.0000
    225 C134       4.5757    0.9580    2.2996 C.ar      2 RES2    0.0000
    226 H92        4.3556    1.8320    2.5276 H         2 RES2    0.0000
    227 C135       4.3611    0.5229    1.0087 C.ar      2 RES2    0.0000
    228 C136       4.7000   -0.7635    0.6906 C.ar      2 RES2    0.0000
    229 H93        4.5699   -1.0544   -0.1816 H         2 RES2    0.0000
    230 C137       5.2209   -1.6423    1.6066 C.ar      2 RES2    0.0000
    231 C138       5.4301   -1.1822    2.9040 C.ar      2 RES2    0.0000
    232 H94        5.7891   -1.7544    3.5440 H         2 RES2    0.0000
    233 C139       3.6840    1.4393   -0.0151 C.3       2 RES2    0.0000
    234 H95        4.3546    1.8642   -0.5565 H         2 RES2    0.0000
    235 H96        3.1707    2.1095    0.4445 H         2 RES2    0.0000
    236 H97        3.1019    0.9195   -0.5759 H         2 RES2    0.0000
    237 C140       5.5880   -3.0855    1.2630 C.3       2 RES2    0.0000
    238 H98        6.3154   -3.3724    1.8203 H         2 RES2    0.0000
    239 H99        5.8515   -3.1380    0.3401 H         2 RES2    0.0000
    240 H100       4.8263   -3.6531    1.4107 H         2 RES2    0.0000
@<TRIPOS>BOND
     1    1    2 ar
     2    2    3 ar
     3    3    4 ar
     4    4    5 ar
     5    5    1 ar
     6    6    1 ar
     7    7    6 ar
     8    8    7 1
     9    9    7 ar
    10   10    2 ar
    11   11   10 ar
    12   12   11 1
    13   13   11 ar
    14   14    3 ar
    15   15   14 ar
    16   16   15 1
    17   17   15 ar
    18   18    4 ar
    19   19   18 ar
    20   20   19 1
    21   21   19 ar
    22   22    5 ar
    23   23   22 ar
    24   24   23 1
    25   25    6 ar
    26   26    9 1
    27   27   26 3
    28   28   27 1
    29   29   28 ar
    30   30   29 1
    31   31   29 ar
    32   32   31 ar
    33   33   32 1
    34   34   32 ar
    35   35   28 ar
    36   36   35 1
    37   37   31 1
    38   38   37 1
    39   39   37 1
    40   40   37 1
    41   41   34 1
    42   42   41 1
    43   43   41 1
    44   44   41 1
    45   45   13 1
    46   46   45 3
    47   47   46 1
    48   48   47 ar
    49   49   48 1
    50   50   48 ar
    51   51   50 ar
    52   52   51 1
    53   53   51 ar
    54   54   47 ar
    55   55   54 1
    56   56   50 1
    57   57   56 1
    58   58   56 1
    59   59   56 1
    60   60   53 1
    61   61   60 1
    62   62   60 1
    63   63   60 1
    64   64   17 1
    65   65   64 3
    66   66   65 1
    67   67   66 ar
    68   68   67 1
    69   69   67 ar
    70   70   69 ar
    71   71   70 1
    72   72   70 ar
    73   73   66 ar
    74   74   73 1
    75   75   69 1
    76   76   75 1
    77   77   75 1
    78   78   75 1
    79   79   72 1
    80   80   79 1
    81   81   79 1
    82   82   79 1
    83   83   21 1
    84   84   83 3
    85   85   84 1
    86   86   85 ar
    87   87   86 1
    88   88   86 ar
    89   89   88 ar
    90   90   89 1
    91   91   89 ar
    92   92   85 ar
    93   93   92 1
    94   94   88 1
    95   95   94 1
    96   96   94 1
    97   97   94 1
    98   98   91 1
    99   99   98 1
   100  100   98 1
   101  101   98 1
   102  102   25 1
   103  103  102 3
   104  104  103 1
   105  105  104 ar
   106  106  105 1
   107  107  105 ar
   108  108  107 ar
   109  109  108 1
   110  110  108 ar
   111  111  104 ar
   112  112  111 1
   113  113  107 1
   114  114  113 1
   115  115  113 1
   116  116  113 1
   117  117  110 1
   118  118  117 1
   119  119  117 1
   120  120  117 1
   121  121  122 ar
   122  122  123 ar
   123  123  124 ar
   124  124  125 ar
   125  125  121 ar
   126  126  121 ar
   127  127  126 ar
   128  128  127 1
   129  129  127 ar
   130  130  122 ar
   131  131  130 ar
   132  132  131 1
   133  133  131 ar
   134  134  123 ar
   135  135  134 ar
   136  136  135 1
   137  137  135 ar
   138  138  124 ar
   139  139  138 ar
   140  140  139 1
   141  141  139 ar
   142  142  125 ar
   143  143  142 ar
   144  144  143 1
   145  145  126 ar
   146  146  129 1
   147  147  146 3
   148  148  147 1
   149  149  148 ar
   150  150  149 1
   151  151  149 ar
   152  152  151 ar
   153  153  152 1
   154  154  152 ar
   155  155  148 ar
   156  156  155 1
   157  157  151 1
   158  158  157 1
   159  159  157 1
   160  160  157 1
   161  161  154 1
   162  162  161 1
   163  163  161 1
   164  164  161 1
   165  165  133 1
   166  166  165 3
   167  167  166 1
   168  168  167 ar
   169  169  168 1
   170  170  168 ar
   171  171  170 ar
   172  172  171 1
   173  173  171 ar
   174  174  167 ar
   175  175  174 1
   176  176  170 1
   177  177  176 1
   178  178  176 1
   179  179  176 1
   180  180  173 1
   181  181  180 1
   182  182  180 1
   183  183  180 1
   184  184  137 1
   185  185  184 3
   186  186  185 1
   187  187  186 ar
   188  188  187 1
   189  189  187 ar
   190  190  189 ar
   191  191  190 1
   192  192  190 ar
   193  193  186 ar
   194  194  193 1
   195  195  189 1
   196  196  195 1
   197  197  195 1
   198  198  195 1
   199  199  192 1
   200  200  199 1
   201  201  199 1
   202  202  199 1
   203  203  141 1
   204  204  203 3
   205  205  204 1
   206  206  205 ar
   207  207  206 1
   208  208  206 ar
   209  209  208 ar
   210  210  209 1
   211  211  209 ar
   212  212  205 ar
   213  213  212 1
   214  214  208 1
   215  215  214 1
   216  216  214 1
   217  217  214 1
   218  218  211 1
   219  219  218 1
   220  220  218 1
   221  221  218 1
   222  222  145 1
   223  223  222 3
   224  224  223 1
   225  225  224 ar
   226  226  225 1
   227  227  225 ar
   228  228  227 ar
   229  229  228 1
   230  230  228 ar
   231  231  224 ar
   232  232  231 1
   233  233  227 1
   234  234  233 1
   235  235  233 1
   236  236  233 1
   237  237  230 1
   238  238  237 1
   239  239  237 1
   240  240  237 1
   241    9   10 ar
   242   13   14 ar
   243   17   18 ar
   244   21   22 ar
   245   23   25 ar
   246   34   35 ar
   247   53   54 ar
   248   72   73 ar
   249   91   92 ar
   250  110  111 ar
   251  129  130 ar
   252  133  134 ar
   253  137  138 ar
   254  141  142 ar
   255  143  145 ar
   256  154  155 ar
   257  173  174 ar
   258  192  193 ar
   259  211  212 ar
   260  230  231 ar
@<TRIPOS>SUBSTRUCTURE
     1 RES1 1
     2 RES2 121

@<TRIPOS>CRYSIN
  33.4143    7.8392   41.0964  90.0000 109.8771  90.0000 231 1

