# MOL2 file generated by ConQuest
# Please check atom types

@<TRIPOS>MOLECULE
JUYWIL
    60    67     1
SMALL
NO_CHARGES
****
Generated from CSD

@<TRIPOS>ATOM
      1 C1         3.6447    6.4222    2.5482 C.3       1 RES1    0.0000
      2 H1         2.8833    6.7530    1.9901 H         1 RES1    0.0000
      3 C2         4.3549    5.2851    1.8685 C.ar      1 RES1    0.0000
      4 C3         5.6932    5.5636    1.7378 C.ar      1 RES1    0.0000
      5 C4         5.9487    6.9015    2.3286 C.ar      1 RES1    0.0000
      6 C5         4.7329    7.4558    2.6397 C.ar      1 RES1    0.0000
      7 C6         3.7669    4.0591    1.4265 C.ar      1 RES1    0.0000
      8 C7         2.3804    3.8025    1.5313 C.ar      1 RES1    0.0000
      9 H2         1.8107    4.4620    1.9088 H         1 RES1    0.0000
     10 C8         1.8482    2.6209    1.0989 C.ar      1 RES1    0.0000
     11 H3         0.9171    2.4574    1.1902 H         1 RES1    0.0000
     12 C9         2.6737    1.6570    0.5245 C.ar      1 RES1    0.0000
     13 H4         2.3000    0.8425    0.2104 H         1 RES1    0.0000
     14 C10        4.0174    1.8760    0.4076 C.ar      1 RES1    0.0000
     15 H5         4.5635    1.2072    0.0112 H         1 RES1    0.0000
     16 C11        4.6107    3.0695    0.8627 C.ar      1 RES1    0.0000
     17 C12        6.0308    3.3565    0.6879 C.ar      1 RES1    0.0000
     18 C13        6.9090    2.4139    0.1170 C.ar      1 RES1    0.0000
     19 H6         6.5960    1.5334   -0.0518 H         1 RES1    0.0000
     20 C14        8.2021    2.7334   -0.2016 C.ar      1 RES1    0.0000
     21 H7         8.7854    2.0695   -0.5499 H         1 RES1    0.0000
     22 C15        8.6580    4.0304   -0.0144 C.ar      1 RES1    0.0000
     23 H8         9.5289    4.2742   -0.3019 H         1 RES1    0.0000
     24 C16        7.8470    4.9599    0.5871 C.ar      1 RES1    0.0000
     25 H9         8.1695    5.8448    0.7084 H         1 RES1    0.0000
     26 C17        6.5490    4.6365    1.0290 C.ar      1 RES1    0.0000
     27 C18        7.1569    7.6074    2.7051 C.ar      1 RES1    0.0000
     28 C19        8.4021    6.9666    2.8911 C.ar      1 RES1    0.0000
     29 H10        8.4703    6.0333    2.7301 H         1 RES1    0.0000
     30 C20        9.5120    7.6560    3.2977 C.ar      1 RES1    0.0000
     31 H11       10.3420    7.2029    3.3928 H         1 RES1    0.0000
     32 C21        9.4319    9.0151    3.5717 C.ar      1 RES1    0.0000
     33 H12       10.2083    9.5002    3.8247 H         1 RES1    0.0000
     34 C22        8.2175    9.6520    3.4710 C.ar      1 RES1    0.0000
     35 H13        8.1625   10.5758    3.6865 H         1 RES1    0.0000
     36 C23        7.0566    8.9778    3.0610 C.ar      1 RES1    0.0000
     37 C24        5.7527    9.6278    3.1023 C.ar      1 RES1    0.0000
     38 C25        5.5919   11.0192    3.2702 C.ar      1 RES1    0.0000
     39 H14        6.3617   11.5750    3.3135 H         1 RES1    0.0000
     40 C26        4.3463   11.5858    3.3714 C.ar      1 RES1    0.0000
     41 H15        4.2605   12.5276    3.4670 H         1 RES1    0.0000
     42 C27        3.2068   10.7882    3.3358 C.ar      1 RES1    0.0000
     43 H16        2.3487   11.1837    3.4324 H         1 RES1    0.0000
     44 C28        3.3180    9.4347    3.1609 C.ar      1 RES1    0.0000
     45 H17        2.5347    8.8963    3.1448 H         1 RES1    0.0000
     46 C29        4.5888    8.8300    3.0049 C.ar      1 RES1    0.0000
     47 C30        3.1581    6.0358    3.9851 C.3       1 RES1    0.0000
     48 H18        2.7816    6.8394    4.4244 H         1 RES1    0.0000
     49 H19        2.4345    5.3649    3.9101 H         1 RES1    0.0000
     50 C31        4.2646    5.4728    4.8531 C.ar      1 RES1    0.0000
     51 C32        4.9784    6.2742    5.7174 C.ar      1 RES1    0.0000
     52 H20        4.7501    7.1918    5.8027 H         1 RES1    0.0000
     53 C33        6.0317    5.7558    6.4684 C.ar      1 RES1    0.0000
     54 H21        6.5090    6.3209    7.0640 H         1 RES1    0.0000
     55 C34        6.3824    4.4372    6.3526 C.ar      1 RES1    0.0000
     56 H22        7.1083    4.0845    6.8557 H         1 RES1    0.0000
     57 C35        5.6512    3.6097    5.4774 C.ar      1 RES1    0.0000
     58 H23        5.8839    2.6942    5.3819 H         1 RES1    0.0000
     59 C36        4.6100    4.1252    4.7705 C.ar      1 RES1    0.0000
     60 H24        4.1053    3.5521    4.2059 H         1 RES1    0.0000
@<TRIPOS>BOND
     1    1    2 1
     2    3    1 1
     3    4    3 ar
     4    5    4 1
     5    6    1 1
     6    7    3 ar
     7    8    7 ar
     8    9    8 1
     9   10    8 ar
    10   11   10 1
    11   12   10 ar
    12   13   12 1
    13   14   12 ar
    14   15   14 1
    15   16    7 ar
    16   17   16 ar
    17   18   17 ar
    18   19   18 1
    19   20   18 ar
    20   21   20 1
    21   22   20 ar
    22   23   22 1
    23   24   22 ar
    24   25   24 1
    25   26    4 ar
    26   27    5 ar
    27   28   27 ar
    28   29   28 1
    29   30   28 ar
    30   31   30 1
    31   32   30 ar
    32   33   32 1
    33   34   32 ar
    34   35   34 1
    35   36   27 ar
    36   37   36 ar
    37   38   37 ar
    38   39   38 1
    39   40   38 ar
    40   41   40 1
    41   42   40 ar
    42   43   42 1
    43   44   42 ar
    44   45   44 1
    45   46    6 ar
    46   47    1 1
    47   48   47 1
    48   49   47 1
    49   50   47 1
    50   51   50 ar
    51   52   51 1
    52   53   51 ar
    53   54   53 1
    54   55   53 ar
    55   56   55 1
    56   57   55 ar
    57   58   57 1
    58   59   50 ar
    59   60   59 1
    60    5    6 ar
    61   14   16 ar
    62   17   26 ar
    63   24   26 ar
    64   34   36 ar
    65   37   46 ar
    66   44   46 ar
    67   57   59 ar
@<TRIPOS>SUBSTRUCTURE
     1 RES1 1

@<TRIPOS>CRYSIN
  10.0590   11.4457   11.6474 107.8470 111.6460  92.0730   2 1

