# MOL2 file generated by ConQuest
# Please check atom types

@<TRIPOS>MOLECULE
JUZDUF
    64    70     1
SMALL
NO_CHARGES
****
Generated from CSD

@<TRIPOS>ATOM
      1 C1         3.5324   12.5432    4.0553 C.ar      1 RES1    0.0000
      2 C2         4.6564   13.3686    3.9884 C.ar      1 RES1    0.0000
      3 H1         4.7440   13.9604    3.2753 H         1 RES1    0.0000
      4 C3         0.7703    9.0994    6.3285 C.ar      1 RES1    0.0000
      5 C4        -0.1896    9.0766    7.4034 C.ar      1 RES1    0.0000
      6 C5         0.6323    8.2284    5.2891 C.ar      1 RES1    0.0000
      7 H2         1.2901    8.2109    4.6314 H         1 RES1    0.0000
      8 C6         5.5189   12.4519    6.0075 C.ar      1 RES1    0.0000
      9 H3         6.1833   12.4116    6.6567 H         1 RES1    0.0000
     10 C7        -1.4759    7.3506    6.1620 C.ar      1 RES1    0.0000
     11 C8         3.4042   11.6561    5.1414 C.ar      1 RES1    0.0000
     12 C9        -1.3215    8.2216    7.3114 C.ar      1 RES1    0.0000
     13 C10        4.4158   11.6319    6.1054 C.ar      1 RES1    0.0000
     14 H4         4.3432   11.0508    6.8276 H         1 RES1    0.0000
     15 C11        5.6432   13.3256    4.9580 C.ar      1 RES1    0.0000
     16 H5         6.3840   13.8853    4.8996 H         1 RES1    0.0000
     17 C12        1.8839   12.0412   -0.4363 C.ar      1 RES1    0.0000
     18 C13        1.8878   10.0643    6.3194 C.2       1 RES1    0.0000
     19 H6         2.3501   10.2079    7.1136 H         1 RES1    0.0000
     20 C14        2.2684   10.7327    5.2487 C.2       1 RES1    0.0000
     21 H7         1.7623   10.6065    4.4781 H         1 RES1    0.0000
     22 C15        3.0504   10.2697   -1.6244 C.ar      1 RES1    0.0000
     23 H8         3.7743    9.6899   -1.6863 H         1 RES1    0.0000
     24 C16       -2.5979    6.5252    5.9639 C.ar      1 RES1    0.0000
     25 H9        -3.2852    6.5360    6.5888 H         1 RES1    0.0000
     26 C17        0.8710   12.0184   -1.4528 C.ar      1 RES1    0.0000
     27 C18       -2.1043    9.0725    9.4422 C.ar      1 RES1    0.0000
     28 H10       -2.7392    9.0672   10.1206 H         1 RES1    0.0000
     29 C19       -0.4760    7.3466    5.1688 C.ar      1 RES1    0.0000
     30 C20       -2.2507    8.2418    8.3621 C.ar      1 RES1    0.0000
     31 H11       -2.9870    7.6754    8.3252 H         1 RES1    0.0000
     32 C21       -2.7026    5.7079    4.8760 C.ar      1 RES1    0.0000
     33 H12       -3.4513    5.1644    4.7788 H         1 RES1    0.0000
     34 C22        2.0585   10.2670   -2.6208 C.ar      1 RES1    0.0000
     35 H13        2.1291    9.6872   -3.3431 H         1 RES1    0.0000
     36 C23        1.7668   12.9418    0.6403 C.ar      1 RES1    0.0000
     37 C24       -0.0667    9.9328    8.5154 C.ar      1 RES1    0.0000
     38 H14        0.6591   10.5112    8.5670 H         1 RES1    0.0000
     39 C25        2.9491   11.1259   -0.5657 C.ar      1 RES1    0.0000
     40 H15        3.6050   11.1058    0.0943 H         1 RES1    0.0000
     41 C26        1.0188   11.0951   -2.5294 C.ar      1 RES1    0.0000
     42 H16        0.3662   11.0696   -3.1927 H         1 RES1    0.0000
     43 C27       -0.9998    9.9288    9.5239 C.ar      1 RES1    0.0000
     44 H17       -0.8985   10.4911   10.2562 H         1 RES1    0.0000
     45 C28       -1.6956    5.6784    3.9002 C.ar      1 RES1    0.0000
     46 H18       -1.7681    5.1187    3.1603 H         1 RES1    0.0000
     47 C29       -0.1831   12.9042   -1.3708 C.ar      1 RES1    0.0000
     48 H19       -0.8520   12.8639   -2.0165 H         1 RES1    0.0000
     49 C30       -0.2831   13.8463   -0.3667 C.ar      1 RES1    0.0000
     50 C31        0.7134   13.8745    0.6766 C.ar      1 RES1    0.0000
     51 C32       -0.4106   15.7991    1.6421 C.ar      1 RES1    0.0000
     52 H20       -0.4558   16.4554    2.2965 H         1 RES1    0.0000
     53 C33       -0.6068    6.4877    4.0565 C.ar      1 RES1    0.0000
     54 H21        0.0654    6.4729    3.4138 H         1 RES1    0.0000
     55 C34       -1.3941   15.7467    0.6309 C.ar      1 RES1    0.0000
     56 H22       -2.0846   16.3695    0.6250 H         1 RES1    0.0000
     57 C35        0.6049   14.8918    1.6586 C.ar      1 RES1    0.0000
     58 H23        1.2437   14.9415    2.3319 H         1 RES1    0.0000
     59 C36       -1.3425   14.8073   -0.3213 C.ar      1 RES1    0.0000
     60 H24       -2.0094   14.7791   -0.9699 H         1 RES1    0.0000
     61 C37        2.5110   12.6358    2.9917 C.2       1 RES1    0.0000
     62 H25        1.6210   12.5257    3.2369 H         1 RES1    0.0000
     63 C38        2.7686   12.8626    1.7311 C.2       1 RES1    0.0000
     64 H26        3.6599   12.9861    1.4976 H         1 RES1    0.0000
@<TRIPOS>BOND
     1    1    2 ar
     2    2    3 1
     3    4    5 ar
     4    5   12 ar
     5    6    4 ar
     6    7    6 1
     7    8    9 1
     8   10   12 ar
     9   11    1 ar
    10   12   30 ar
    11   13    8 ar
    12   14   13 1
    13   15    2 ar
    14   16   15 1
    15   17   26 ar
    16   18    4 1
    17   19   18 1
    18   20   11 1
    19   21   20 1
    20   22   23 1
    21   24   10 ar
    22   25   24 1
    23   26   41 ar
    24   27   28 1
    25   29    6 ar
    26   30   27 ar
    27   31   30 1
    28   32   24 ar
    29   33   32 1
    30   34   22 ar
    31   35   34 1
    32   36   17 ar
    33   37    5 ar
    34   38   37 1
    35   39   17 ar
    36   40   39 1
    37   41   34 ar
    38   42   41 1
    39   43   27 ar
    40   44   43 1
    41   45   32 ar
    42   46   45 1
    43   47   26 ar
    44   48   47 1
    45   49   47 ar
    46   50   36 ar
    47   51   52 1
    48   53   29 ar
    49   54   53 1
    50   55   51 ar
    51   56   55 1
    52   57   50 ar
    53   58   57 1
    54   59   49 ar
    55   60   59 1
    56   61    1 1
    57   62   61 1
    58   63   36 1
    59   64   63 1
    60    8   15 ar
    61   10   29 ar
    62   11   13 ar
    63   18   20 2
    64   22   39 ar
    65   37   43 ar
    66   45   53 ar
    67   49   50 ar
    68   51   57 ar
    69   55   59 ar
    70   61   63 2
@<TRIPOS>SUBSTRUCTURE
     1 RES1 1

@<TRIPOS>CRYSIN
   6.5390   13.4209   29.4803  90.0000  90.0000  90.0000  19 1

