# MOL2 file generated by ConQuest
# Please check atom types

@<TRIPOS>MOLECULE
JUZFAN
    64    70     1
SMALL
NO_CHARGES
****
Generated from CSD

@<TRIPOS>ATOM
      1 C1         0.6191   16.7556   18.0088 C.ar      1 RES1    0.0000
      2 H1         0.0407   17.2748   17.4970 H         1 RES1    0.0000
      3 C2         0.4806   15.3778   18.0170 C.ar      1 RES1    0.0000
      4 C3        -2.4452   14.3716   15.7045 C.ar      1 RES1    0.0000
      5 C4        -3.4046   15.0696   14.8485 C.ar      1 RES1    0.0000
      6 C5         2.3544   15.2295   19.5721 C.ar      1 RES1    0.0000
      7 C6         3.2518   14.4110   20.4010 C.2       1 RES1    0.0000
      8 H2         4.0678   14.7943   20.6281 H         1 RES1    0.0000
      9 C7         1.6050   17.3603   18.7504 C.ar      1 RES1    0.0000
     10 H3         1.6880   18.2873   18.7334 H         1 RES1    0.0000
     11 C8        -4.3966   14.3351   14.1574 C.ar      1 RES1    0.0000
     12 C9         2.4798   16.6088   19.5228 C.ar      1 RES1    0.0000
     13 H4         3.1512   17.0308   20.0087 H         1 RES1    0.0000
     14 C10       -2.5364   13.0225   15.7886 C.ar      1 RES1    0.0000
     15 H5        -1.9223   12.5752   16.3261 H         1 RES1    0.0000
     16 C11       -3.5124   12.2484   15.1067 C.ar      1 RES1    0.0000
     17 C12        3.7752   12.4074   23.0817 C.ar      1 RES1    0.0000
     18 C13       -4.4510   12.8943   14.2847 C.ar      1 RES1    0.0000
     19 C14        1.3614   14.6366   18.8138 C.ar      1 RES1    0.0000
     20 H6         1.2756   13.7107   18.8330 H         1 RES1    0.0000
     21 C15        3.9369   12.4007   21.6782 C.ar      1 RES1    0.0000
     22 C16       -0.5119   14.6548   17.2072 C.2       1 RES1    0.0000
     23 H7        -0.4509   13.7280   17.2346 H         1 RES1    0.0000
     24 C17       -3.3854   16.4613   14.7108 C.ar      1 RES1    0.0000
     25 H8        -2.7283   16.9501   15.1529 H         1 RES1    0.0000
     26 C18        4.9409   11.5999   21.1035 C.ar      1 RES1    0.0000
     27 C19        4.6726   11.6564   23.9069 C.ar      1 RES1    0.0000
     28 C20       -5.2851   16.4148   13.2713 C.ar      1 RES1    0.0000
     29 H9        -5.9185   16.8636   12.7577 H         1 RES1    0.0000
     30 C21        2.7404   13.1399   23.7240 C.ar      1 RES1    0.0000
     31 H10        2.1433   13.6319   23.2078 H         1 RES1    0.0000
     32 C22       -5.3170   15.0476   13.3640 C.ar      1 RES1    0.0000
     33 H11       -5.9642   14.5772   12.8889 H         1 RES1    0.0000
     34 C23        4.4862   11.7065   25.3275 C.ar      1 RES1    0.0000
     35 H12        5.0679   11.2341   25.8798 H         1 RES1    0.0000
     36 C24        5.8427   10.8519   21.9478 C.ar      1 RES1    0.0000
     37 C25        5.0938   11.4706   19.6936 C.ar      1 RES1    0.0000
     38 H13        4.5175   11.9296   19.1245 H         1 RES1    0.0000
     39 C26        5.6815   10.9172   23.3217 C.ar      1 RES1    0.0000
     40 H14        6.2710   10.4482   23.8685 H         1 RES1    0.0000
     41 C27        3.4932   12.4184   25.8811 C.ar      1 RES1    0.0000
     42 H15        3.3953   12.4330   26.8053 H         1 RES1    0.0000
     43 C28       -5.4484   10.7384   13.7935 C.ar      1 RES1    0.0000
     44 H16       -6.0934   10.2350   13.3504 H         1 RES1    0.0000
     45 C29       -4.3053   17.1259   13.9456 C.ar      1 RES1    0.0000
     46 H17       -4.2728   18.0529   13.8776 H         1 RES1    0.0000
     47 C30       -5.4171   12.0975   13.6327 C.ar      1 RES1    0.0000
     48 H18       -6.0461   12.5041   13.0808 H         1 RES1    0.0000
     49 C31        2.6035   13.1383   25.0780 C.ar      1 RES1    0.0000
     50 H19        1.9124   13.6204   25.4718 H         1 RES1    0.0000
     51 C32       -3.5718   10.8373   15.2607 C.ar      1 RES1    0.0000
     52 H20       -2.9560   10.4079   15.8087 H         1 RES1    0.0000
     53 C33        6.9841    9.9937   20.0264 C.ar      1 RES1    0.0000
     54 H21        7.6736    9.4837   19.6662 H         1 RES1    0.0000
     55 C34        6.8527   10.0769   21.3512 C.ar      1 RES1    0.0000
     56 H22        7.4455    9.6105   21.8961 H         1 RES1    0.0000
     57 C35        6.0895   10.6711   19.1575 C.ar      1 RES1    0.0000
     58 H23        6.1715   10.5789   18.2354 H         1 RES1    0.0000
     59 C36       -4.5192   10.1066   14.6158 C.ar      1 RES1    0.0000
     60 H24       -4.5467    9.1840   14.7229 H         1 RES1    0.0000
     61 C37        3.0368   13.2300   20.8457 C.2       1 RES1    0.0000
     62 H25        2.2197   12.8480   20.6184 H         1 RES1    0.0000
     63 C38       -1.4505   15.1240   16.4675 C.2       1 RES1    0.0000
     64 H26       -1.5044   16.0509   16.4111 H         1 RES1    0.0000
@<TRIPOS>BOND
     1    1    2 1
     2    3    1 ar
     3    4    5 ar
     4    5   11 ar
     5    6    7 1
     6    7    8 1
     7    9    1 ar
     8   10    9 1
     9   11   18 ar
    10   12    6 ar
    11   13   12 1
    12   14    4 ar
    13   15   14 1
    14   16   14 ar
    15   17   21 ar
    16   18   16 ar
    17   19    3 ar
    18   20   19 1
    19   21   26 ar
    20   22    3 1
    21   23   22 1
    22   24    5 ar
    23   25   24 1
    24   26   36 ar
    25   27   17 ar
    26   28   29 1
    27   30   17 ar
    28   31   30 1
    29   32   11 ar
    30   33   32 1
    31   34   27 ar
    32   35   34 1
    33   36   39 ar
    34   37   26 ar
    35   38   37 1
    36   39   27 ar
    37   40   39 1
    38   41   34 ar
    39   42   41 1
    40   43   44 1
    41   45   24 ar
    42   46   45 1
    43   47   18 ar
    44   48   47 1
    45   49   30 ar
    46   50   49 1
    47   51   16 ar
    48   52   51 1
    49   53   54 1
    50   55   36 ar
    51   56   55 1
    52   57   37 ar
    53   58   57 1
    54   59   43 ar
    55   60   59 1
    56   61    7 2
    57   62   61 1
    58   63    4 1
    59   64   63 1
    60    6   19 ar
    61    9   12 ar
    62   21   61 1
    63   22   63 2
    64   28   32 ar
    65   28   45 ar
    66   41   49 ar
    67   43   47 ar
    68   51   59 ar
    69   53   55 ar
    70   53   57 ar
@<TRIPOS>SUBSTRUCTURE
     1 RES1 1

@<TRIPOS>CRYSIN
   5.4985   19.2134   24.2912  90.0000  90.0000  90.0000  19 1

