# MOL2 file generated by ConQuest
# Please check atom types

@<TRIPOS>MOLECULE
KAFVUI
    38    43     1
SMALL
NO_CHARGES
****
Generated from CSD

@<TRIPOS>ATOM
      1 C1         0.6972    4.0674   11.1487 C.ar      1 RES1    0.0000
      2 C2         1.1257    5.1805   10.4754 C.ar      1 RES1    0.0000
      3 C3         2.1776    5.9287   10.9952 C.ar      1 RES1    0.0000
      4 C4         2.7153    5.5821   12.2087 C.ar      1 RES1    0.0000
      5 C5         3.7597    4.9639   14.8724 C.ar      1 RES1    0.0000
      6 C6         4.1149    4.7756   16.2098 C.ar      1 RES1    0.0000
      7 C7         3.4601    3.8092   16.9756 C.ar      1 RES1    0.0000
      8 C8         1.8449    1.9746   17.1643 C.ar      1 RES1    0.0000
      9 C9         0.9460    1.1481   16.6205 C.ar      1 RES1    0.0000
     10 C10       -0.3491    0.4049   14.6523 C.ar      1 RES1    0.0000
     11 C11       -1.5051   -0.5082   12.6970 C.ar      1 RES1    0.0000
     12 C12       -1.6974   -0.5849   11.3504 C.ar      1 RES1    0.0000
     13 C13       -0.9250    0.2483   10.5235 C.ar      1 RES1    0.0000
     14 C14       -0.0817    1.1997   11.0507 C.ar      1 RES1    0.0000
     15 C15        1.3007    3.6175   12.3530 C.ar      1 RES1    0.0000
     16 C16        2.2943    4.4474   12.9264 C.ar      1 RES1    0.0000
     17 C17        2.7717    4.1807   14.2823 C.ar      1 RES1    0.0000
     18 C18        2.1496    3.1660   15.0185 C.ar      1 RES1    0.0000
     19 C19        2.4950    2.9860   16.4077 C.ar      1 RES1    0.0000
     20 C20        1.1920    2.2745   14.4192 C.ar      1 RES1    0.0000
     21 C21        0.5913    1.2564   15.2257 C.ar      1 RES1    0.0000
     22 C22       -0.6193    0.4299   13.2797 C.ar      1 RES1    0.0000
     23 C23        0.0527    1.3880   12.4510 C.ar      1 RES1    0.0000
     24 C24        0.8443    2.4095   13.0485 C.ar      1 RES1    0.0000
     25 H1        -0.0933    3.5825   10.7288 H         1 RES1    0.0000
     26 H2         0.6254    5.4821    9.6005 H         1 RES1    0.0000
     27 H3         2.5388    6.7319   10.4699 H         1 RES1    0.0000
     28 H4         3.4302    6.1153   12.5971 H         1 RES1    0.0000
     29 H5         4.3030    5.7654   14.3360 H         1 RES1    0.0000
     30 H6         4.8723    5.3655   16.6852 H         1 RES1    0.0000
     31 H7         3.7616    3.6492   17.9801 H         1 RES1    0.0000
     32 H8         2.0301    1.8496   18.1650 H         1 RES1    0.0000
     33 H9         0.4340    0.4499   17.1846 H         1 RES1    0.0000
     34 H10       -0.7654   -0.3499   15.3533 H         1 RES1    0.0000
     35 H11       -2.0815   -1.1497   13.3186 H         1 RES1    0.0000
     36 H12       -2.3708   -1.3664   10.8953 H         1 RES1    0.0000
     37 H13       -0.8634    0.1000    9.4340 H         1 RES1    0.0000
     38 H14        0.5227    1.6830   10.4329 H         1 RES1    0.0000
@<TRIPOS>BOND
     1    1    2 ar
     2    2    3 ar
     3    3    4 ar
     4    4   16 ar
     5    5    6 ar
     6    6    7 ar
     7    7   19 ar
     8    8    9 ar
     9    9   21 ar
    10   10   21 ar
    11   11   12 ar
    12   12   13 ar
    13   13   14 ar
    14   14   23 ar
    15   15    1 ar
    16   16   15 ar
    17   17    5 ar
    18   18   17 ar
    19   19    8 ar
    20   20   18 ar
    21   21   20 ar
    22   22   10 ar
    23   23   22 ar
    24   24   15 ar
    25   25    1 1
    26   26    2 1
    27   27    3 1
    28   28    4 1
    29   29    5 1
    30   30    6 1
    31   31    7 1
    32   32    8 1
    33   33    9 1
    34   34   10 1
    35   35   11 1
    36   36   12 1
    37   37   13 1
    38   38   14 1
    39   11   22 ar
    40   16   17 ar
    41   18   19 ar
    42   20   24 ar
    43   23   24 ar
@<TRIPOS>SUBSTRUCTURE
     1 RES1 1

@<TRIPOS>CRYSIN
   4.6670   16.6630   18.4980  90.0000  90.0000  90.0000  19 1

