# MOL2 file generated by ConQuest
# Please check atom types

@<TRIPOS>MOLECULE
KAGGIK
    62    67     1
SMALL
NO_CHARGES
****
Generated from CSD

@<TRIPOS>ATOM
      1 C1        -1.1241    2.0920    9.2912 C.ar      1 RES1    0.0000
      2 C2        -0.5246    2.0469    8.0609 C.ar      1 RES1    0.0000
      3 C3        -0.0632    0.7989    7.3999 C.ar      1 RES1    0.0000
      4 C4         0.4654   -0.2713    8.0931 C.ar      1 RES1    0.0000
      5 H1         0.6114   -0.1999    9.0295 H         1 RES1    0.0000
      6 C5         0.7864   -1.4552    7.4366 C.ar      1 RES1    0.0000
      7 H2         1.1531   -2.1754    7.9358 H         1 RES1    0.0000
      8 C6         0.5891   -1.6104    6.1031 C.ar      1 RES1    0.0000
      9 H3         0.7734   -2.4445    5.6876 H         1 RES1    0.0000
     10 C7         0.1042   -0.5177    5.3273 C.ar      1 RES1    0.0000
     11 C8        -0.1412   -0.6270    3.9432 C.ar      1 RES1    0.0000
     12 H4         0.0028   -1.4558    3.5014 H         1 RES1    0.0000
     13 C9        -0.5784    0.4381    3.2443 C.ar      1 RES1    0.0000
     14 H5        -0.7651    0.3375    2.3182 H         1 RES1    0.0000
     15 C10       -0.7672    1.6913    3.8434 C.ar      1 RES1    0.0000
     16 H6        -1.0465    2.4304    3.3155 H         1 RES1    0.0000
     17 C11       -0.5445    1.8607    5.2194 C.ar      1 RES1    0.0000
     18 C12       -0.5736    3.1708    5.8701 C.ar      1 RES1    0.0000
     19 C13       -0.4608    3.2551    7.2266 C.ar      1 RES1    0.0000
     20 C14       -0.4178    4.5368    7.9668 C.ar      1 RES1    0.0000
     21 C15        0.1892    5.6783    7.4917 C.ar      1 RES1    0.0000
     22 H7         0.6879    5.6345    6.6849 H         1 RES1    0.0000
     23 C16        0.0920    6.8908    8.1608 C.ar      1 RES1    0.0000
     24 H8         0.5387    7.6530    7.8119 H         1 RES1    0.0000
     25 C17       -0.6357    7.0058    9.3141 C.ar      1 RES1    0.0000
     26 H9        -0.7579    7.8561    9.7192 H         1 RES1    0.0000
     27 C18       -1.2107    5.8375    9.9063 C.ar      1 RES1    0.0000
     28 C19       -1.9234    5.8867   11.1274 C.ar      1 RES1    0.0000
     29 H10       -2.0719    6.7202   11.5589 H         1 RES1    0.0000
     30 C20       -2.3910    4.7445   11.6759 C.ar      1 RES1    0.0000
     31 H11       -2.8801    4.7919   12.4896 H         1 RES1    0.0000
     32 C21       -2.1800    3.4993   11.0884 C.ar      1 RES1    0.0000
     33 H12       -2.5068    2.7181   11.5199 H         1 RES1    0.0000
     34 C22       -1.4959    3.3758    9.8719 C.ar      1 RES1    0.0000
     35 C23       -0.1685    0.7166    5.9837 C.ar      1 RES1    0.0000
     36 C24       -1.0474    4.5860    9.2453 C.ar      1 RES1    0.0000
     37 C25       -1.5499    0.8444   10.0635 C.3       1 RES1    0.0000
     38 H13       -1.5016    0.0683    9.4507 H         1 RES1    0.0000
     39 H14       -2.4986    0.9529   10.3286 H         1 RES1    0.0000
     40 C26       -0.7391    0.5133   11.3179 C.3       1 RES1    0.0000
     41 H15       -0.7179    1.3075   11.9078 H         1 RES1    0.0000
     42 H16        0.1923    0.3067   11.0551 H         1 RES1    0.0000
     43 C27       -1.3132   -0.6740   12.0994 C.3       1 RES1    0.0000
     44 H17       -0.7841   -0.7976   12.9269 H         1 RES1    0.0000
     45 H18       -2.2435   -0.4635   12.3645 H         1 RES1    0.0000
     46 C28       -1.3100   -1.9797   11.3144 C.3       1 RES1    0.0000
     47 H19       -1.9512   -1.9180   10.5754 H         1 RES1    0.0000
     48 H20       -1.5629   -2.7176   11.9066 H         1 RES1    0.0000
     49 H21       -0.4127   -2.1416   10.9552 H         1 RES1    0.0000
     50 C29       -0.8469    4.3628    4.9853 C.3       1 RES1    0.0000
     51 H22       -1.1250    5.1200    5.5591 H         1 RES1    0.0000
     52 H23       -1.6098    4.1439    4.3931 H         1 RES1    0.0000
     53 C30        0.3336    4.8239    4.1085 C.3       1 RES1    0.0000
     54 H24        1.0837    5.0951    4.6949 H         1 RES1    0.0000
     55 H25        0.6415    4.0614    3.5576 H         1 RES1    0.0000
     56 C31       -0.0279    5.9917    3.1870 C.3       1 RES1    0.0000
     57 H26        0.7664    6.2346    2.6487 H         1 RES1    0.0000
     58 H27       -0.7388    5.7013    2.5626 H         1 RES1    0.0000
     59 C32       -0.5033    7.2118    3.9398 C.3       1 RES1    0.0000
     60 H28       -1.3414    7.0028    4.4034 H         1 RES1    0.0000
     61 H29       -0.6535    7.9470    3.3098 H         1 RES1    0.0000
     62 H30        0.1754    7.4755    4.5951 H         1 RES1    0.0000
@<TRIPOS>BOND
     1    1    2 ar
     2    2    3 ar
     3    3    4 ar
     4    4    5 1
     5    6    4 ar
     6    7    6 1
     7    8    6 ar
     8    9    8 1
     9   10    8 ar
    10   11   10 ar
    11   12   11 1
    12   13   11 ar
    13   14   13 1
    14   15   13 ar
    15   16   15 1
    16   17   15 ar
    17   18   17 ar
    18   19    2 ar
    19   20   19 ar
    20   21   20 ar
    21   22   21 1
    22   23   21 ar
    23   24   23 1
    24   25   23 ar
    25   26   25 1
    26   27   25 ar
    27   28   27 ar
    28   29   28 1
    29   30   28 ar
    30   31   30 1
    31   32   30 ar
    32   33   32 1
    33   34    1 ar
    34   35    3 ar
    35   36   20 ar
    36   37    1 1
    37   38   37 1
    38   39   37 1
    39   40   37 1
    40   41   40 1
    41   42   40 1
    42   43   40 1
    43   44   43 1
    44   45   43 1
    45   46   43 1
    46   47   46 1
    47   48   46 1
    48   49   46 1
    49   50   18 1
    50   51   50 1
    51   52   50 1
    52   53   50 1
    53   54   53 1
    54   55   53 1
    55   56   53 1
    56   57   56 1
    57   58   56 1
    58   59   56 1
    59   60   59 1
    60   61   59 1
    61   62   59 1
    62   10   35 ar
    63   17   35 ar
    64   18   19 ar
    65   27   36 ar
    66   32   34 ar
    67   34   36 ar
@<TRIPOS>SUBSTRUCTURE
     1 RES1 1

@<TRIPOS>CRYSIN
   8.2081   11.9527   12.3410 105.1320 101.7410 101.1790   2 1

