# MOL2 file generated by ConQuest
# Please check atom types

@<TRIPOS>MOLECULE
KAGGAC
    76    83     1
SMALL
NO_CHARGES
****
Generated from CSD

@<TRIPOS>ATOM
      1 C1         9.5584    9.7242    2.4403 C.ar      1 RES1    0.0000
      2 C2        10.2772   10.8488    2.7451 C.ar      1 RES1    0.0000
      3 C3        11.4962   10.8472    3.5736 C.ar      1 RES1    0.0000
      4 C4        12.4212    9.8166    3.5876 C.ar      1 RES1    0.0000
      5 H1        12.3044    9.0921    3.0163 H         1 RES1    0.0000
      6 C5        13.5259    9.8435    4.4419 C.ar      1 RES1    0.0000
      7 H2        14.1360    9.1418    4.4227 H         1 RES1    0.0000
      8 C6        13.7223   10.8740    5.2975 C.ar      1 RES1    0.0000
      9 H3        14.4415   10.8571    5.8870 H         1 RES1    0.0000
     10 C7        12.8413   11.9722    5.2978 C.ar      1 RES1    0.0000
     11 C8        13.0074   13.0732    6.1685 C.ar      1 RES1    0.0000
     12 H4        13.7101   13.0725    6.7777 H         1 RES1    0.0000
     13 C9        12.1584   14.1307    6.1295 C.ar      1 RES1    0.0000
     14 H5        12.2578   14.8291    6.7365 H         1 RES1    0.0000
     15 C10       11.1342   14.1738    5.1800 C.ar      1 RES1    0.0000
     16 H6        10.5798   14.9192    5.1471 H         1 RES1    0.0000
     17 C11       10.9235   13.1411    4.2908 C.ar      1 RES1    0.0000
     18 C12        9.9592   13.2359    3.1954 C.ar      1 RES1    0.0000
     19 C13        9.7276   12.1664    2.3806 C.ar      1 RES1    0.0000
     20 C14        8.8309   12.1933    1.2159 C.ar      1 RES1    0.0000
     21 C15        8.6933   13.2875    0.3763 C.ar      1 RES1    0.0000
     22 H7         9.2020   14.0501    0.5311 H         1 RES1    0.0000
     23 C16        7.8015   13.2611   -0.6987 C.ar      1 RES1    0.0000
     24 H8         7.7485   13.9920   -1.2710 H         1 RES1    0.0000
     25 C17        7.0087   12.1761   -0.9168 C.ar      1 RES1    0.0000
     26 H9         6.3854   12.1940   -1.6061 H         1 RES1    0.0000
     27 C18        7.1207   11.0321   -0.1137 C.ar      1 RES1    0.0000
     28 C19        6.3159    9.8840   -0.3038 C.ar      1 RES1    0.0000
     29 H10        5.6386    9.8972   -0.9410 H         1 RES1    0.0000
     30 C20        6.5222    8.7670    0.4335 C.ar      1 RES1    0.0000
     31 H11        5.9612    8.0331    0.3235 H         1 RES1    0.0000
     32 C21        7.5685    8.7032    1.3577 C.ar      1 RES1    0.0000
     33 H12        7.7256    7.9100    1.8162 H         1 RES1    0.0000
     34 C22        8.3730    9.7995    1.6028 C.ar      1 RES1    0.0000
     35 C23       11.7502   11.9823    4.3888 C.ar      1 RES1    0.0000
     36 C24        8.0973   11.0181    0.9141 C.ar      1 RES1    0.0000
     37 C25        9.8845    8.3876    3.0287 C.ar      1 RES1    0.0000
     38 C26       10.5928    7.4277    2.2941 C.ar      1 RES1    0.0000
     39 C27       10.9315    6.2330    2.9136 C.ar      1 RES1    0.0000
     40 H13       11.4107    5.5963    2.4337 H         1 RES1    0.0000
     41 C28       10.5784    5.9620    4.2218 C.ar      1 RES1    0.0000
     42 C29        9.8194    6.8951    4.9023 C.ar      1 RES1    0.0000
     43 H14        9.5452    6.7075    5.7710 H         1 RES1    0.0000
     44 C30        9.4548    8.1027    4.3282 C.ar      1 RES1    0.0000
     45 C31       11.0316    7.6948    0.8774 C.3       1 RES1    0.0000
     46 H15       11.5658    6.9610    0.5646 H         1 RES1    0.0000
     47 H16       11.5505    8.5022    0.8495 H         1 RES1    0.0000
     48 H17       10.2596    7.7910    0.3158 H         1 RES1    0.0000
     49 C32       11.0037    4.6773    4.8948 C.3       1 RES1    0.0000
     50 H18       11.2643    4.0377    4.2280 H         1 RES1    0.0000
     51 H19       10.2715    4.3262    5.4062 H         1 RES1    0.0000
     52 H20       11.7463    4.8519    5.4784 H         1 RES1    0.0000
     53 C33        8.6112    9.0916    5.0936 C.3       1 RES1    0.0000
     54 H21        8.3050    8.6880    5.9089 H         1 RES1    0.0000
     55 H22        7.8556    9.3490    4.5606 H         1 RES1    0.0000
     56 H23        9.1364    9.8681    5.2992 H         1 RES1    0.0000
     57 C34        9.2138   14.5355    3.0984 C.ar      1 RES1    0.0000
     58 C35        9.8362   15.6791    2.5760 C.ar      1 RES1    0.0000
     59 C36        9.1569   16.8887    2.5982 C.ar      1 RES1    0.0000
     60 H24        9.5760   17.6445    2.2532 H         1 RES1    0.0000
     61 C37        7.8888   17.0115    3.1106 C.ar      1 RES1    0.0000
     62 C38        7.2869   15.8765    3.6211 C.ar      1 RES1    0.0000
     63 H25        6.4271   15.9426    3.9702 H         1 RES1    0.0000
     64 C39        7.9258   14.6354    3.6313 C.ar      1 RES1    0.0000
     65 C40       11.2093   15.5913    1.9824 C.3       1 RES1    0.0000
     66 H26       11.4582   16.4465    1.6242 H         1 RES1    0.0000
     67 H27       11.2129   14.9363    1.2800 H         1 RES1    0.0000
     68 H28       11.8357   15.3347    2.6631 H         1 RES1    0.0000
     69 C41        7.1857   18.3488    3.0870 C.3       1 RES1    0.0000
     70 H29        7.7449   19.0114    3.4984 H         1 RES1    0.0000
     71 H30        6.3577   18.2834    3.5693 H         1 RES1    0.0000
     72 H31        7.0075   18.6006    2.1785 H         1 RES1    0.0000
     73 C42        7.2284   13.4297    4.2056 C.3       1 RES1    0.0000
     74 H32        6.3980   13.7001    4.6031 H         1 RES1    0.0000
     75 H33        7.7867   13.0256    4.8738 H         1 RES1    0.0000
     76 H34        7.0565   12.7960    3.5049 H         1 RES1    0.0000
@<TRIPOS>BOND
     1    1    2 ar
     2    2    3 ar
     3    3    4 ar
     4    4    5 1
     5    6    4 ar
     6    7    6 1
     7    8    6 ar
     8    9    8 1
     9   10    8 ar
    10   11   10 ar
    11   12   11 1
    12   13   11 ar
    13   14   13 1
    14   15   13 ar
    15   16   15 1
    16   17   15 ar
    17   18   17 ar
    18   19    2 ar
    19   20   19 ar
    20   21   20 ar
    21   22   21 1
    22   23   21 ar
    23   24   23 1
    24   25   23 ar
    25   26   25 1
    26   27   25 ar
    27   28   27 ar
    28   29   28 1
    29   30   28 ar
    30   31   30 1
    31   32   30 ar
    32   33   32 1
    33   34    1 ar
    34   35    3 ar
    35   36   20 ar
    36   37    1 1
    37   38   37 ar
    38   39   38 ar
    39   40   39 1
    40   41   39 ar
    41   42   41 ar
    42   43   42 1
    43   44   37 ar
    44   45   38 1
    45   46   45 1
    46   47   45 1
    47   48   45 1
    48   49   41 1
    49   50   49 1
    50   51   49 1
    51   52   49 1
    52   53   44 1
    53   54   53 1
    54   55   53 1
    55   56   53 1
    56   57   18 1
    57   58   57 ar
    58   59   58 ar
    59   60   59 1
    60   61   59 ar
    61   62   61 ar
    62   63   62 1
    63   64   57 ar
    64   65   58 1
    65   66   65 1
    66   67   65 1
    67   68   65 1
    68   69   61 1
    69   70   69 1
    70   71   69 1
    71   72   69 1
    72   73   64 1
    73   74   73 1
    74   75   73 1
    75   76   73 1
    76   10   35 ar
    77   17   35 ar
    78   18   19 ar
    79   27   36 ar
    80   32   34 ar
    81   34   36 ar
    82   42   44 ar
    83   62   64 ar
@<TRIPOS>SUBSTRUCTURE
     1 RES1 1

@<TRIPOS>CRYSIN
   9.0007   12.9900   14.0601  66.5600  89.4230  83.4930   2 1

