# MOL2 file generated by ConQuest
# Please check atom types

@<TRIPOS>MOLECULE
KAGGEG01
    38    43     1
SMALL
NO_CHARGES
****
Generated from CSD

@<TRIPOS>ATOM
      1 C1        11.3715   -1.3311    1.2209 C.ar      1 RES1    0.0000
      2 H1        11.8471   -2.0217    1.6235 H         1 RES1    0.0000
      3 C2         9.9904   -1.1500    1.5794 C.ar      1 RES1    0.0000
      4 C3         9.3766   -1.9650    2.5023 C.ar      1 RES1    0.0000
      5 H2         9.8688   -2.6370    2.9151 H         1 RES1    0.0000
      6 C4         8.0283   -1.8024    2.8319 C.ar      1 RES1    0.0000
      7 H3         7.6351   -2.3572    3.4663 H         1 RES1    0.0000
      8 C5         7.2899   -0.8346    2.2268 C.ar      1 RES1    0.0000
      9 H4         6.3898   -0.7441    2.4433 H         1 RES1    0.0000
     10 C6         7.8667    0.0371    1.2740 C.ar      1 RES1    0.0000
     11 C7         7.1299    1.0458    0.6352 C.ar      1 RES1    0.0000
     12 H5         6.2263    1.1510    0.8290 H         1 RES1    0.0000
     13 C8         7.7282    1.8706   -0.2655 C.ar      1 RES1    0.0000
     14 H6         7.2304    2.5405   -0.6763 H         1 RES1    0.0000
     15 C9         9.0878    1.7233   -0.5823 C.ar      1 RES1    0.0000
     16 H7         9.4766    2.2988   -1.2010 H         1 RES1    0.0000
     17 C10        9.8582    0.7452    0.0041 C.ar      1 RES1    0.0000
     18 C11       11.2922    0.5450   -0.3262 C.ar      1 RES1    0.0000
     19 C12        9.2436   -0.1129    0.9473 C.ar      1 RES1    0.0000
     20 C1B       11.9329    1.3311   -1.2209 C.ar      1 RES1    0.0000
     21 H1B       11.4573    2.0217   -1.6235 H         1 RES1    0.0000
     22 C2B       13.3140    1.1500   -1.5794 C.ar      1 RES1    0.0000
     23 C3B       13.9278    1.9650   -2.5023 C.ar      1 RES1    0.0000
     24 H2B       13.4356    2.6370   -2.9151 H         1 RES1    0.0000
     25 C4B       15.2761    1.8024   -2.8319 C.ar      1 RES1    0.0000
     26 H3B       15.6693    2.3572   -3.4663 H         1 RES1    0.0000
     27 C5B       16.0145    0.8346   -2.2268 C.ar      1 RES1    0.0000
     28 H4B       16.9146    0.7441   -2.4433 H         1 RES1    0.0000
     29 C6B       15.4377   -0.0371   -1.2740 C.ar      1 RES1    0.0000
     30 C7B       16.1745   -1.0458   -0.6352 C.ar      1 RES1    0.0000
     31 H5B       17.0781   -1.1510   -0.8290 H         1 RES1    0.0000
     32 C8B       15.5762   -1.8706    0.2655 C.ar      1 RES1    0.0000
     33 H6B       16.0740   -2.5405    0.6763 H         1 RES1    0.0000
     34 C9B       14.2166   -1.7233    0.5823 C.ar      1 RES1    0.0000
     35 H7B       13.8278   -2.2988    1.2010 H         1 RES1    0.0000
     36 C10B      13.4462   -0.7452   -0.0041 C.ar      1 RES1    0.0000
     37 C11B      12.0122   -0.5450    0.3262 C.ar      1 RES1    0.0000
     38 C12B      14.0608    0.1129   -0.9473 C.ar      1 RES1    0.0000
@<TRIPOS>BOND
     1    1    2 1
     2    3    1 ar
     3    4    3 ar
     4    5    4 1
     5    6    4 ar
     6    7    6 1
     7    8    6 ar
     8    9    8 1
     9   10    8 ar
    10   11   10 ar
    11   12   11 1
    12   13   11 ar
    13   14   13 1
    14   15   13 ar
    15   16   15 1
    16   17   15 ar
    17   18   17 ar
    18   19    3 ar
    19   20   18 ar
    20   21   20 1
    21   22   20 ar
    22   23   22 ar
    23   24   23 1
    24   25   23 ar
    25   26   25 1
    26   27   25 ar
    27   28   27 1
    28   29   27 ar
    29   30   29 ar
    30   31   30 1
    31   32   30 ar
    32   33   32 1
    33   34   32 ar
    34   35   34 1
    35   36   34 ar
    36   37    1 ar
    37   38   22 ar
    38   10   19 ar
    39   17   19 ar
    40   18   37 ar
    41   29   38 ar
    42   36   37 ar
    43   36   38 ar
@<TRIPOS>SUBSTRUCTURE
     1 RES1 1

@<TRIPOS>CRYSIN
  11.6522    5.4552   11.4821  90.0000  90.6070  90.0000  14 1

