# MOL2 file generated by ConQuest
# Please check atom types

@<TRIPOS>MOLECULE
KAGGOQ
    44    49     1
SMALL
NO_CHARGES
****
Generated from CSD

@<TRIPOS>ATOM
      1 C1        -4.3644    2.4035    5.9557 C.ar      1 RES1    0.0000
      2 H1        -4.9085    2.8852    6.5355 H         1 RES1    0.0000
      3 C2        -4.8533    2.0247    4.7030 C.ar      1 RES1    0.0000
      4 H2        -5.7181    2.2637    4.4569 H         1 RES1    0.0000
      5 C3        -4.0841    1.3121    3.8402 C.ar      1 RES1    0.0000
      6 H3        -4.4323    1.0684    3.0130 H         1 RES1    0.0000
      7 C4        -2.7712    0.9371    4.1760 C.ar      1 RES1    0.0000
      8 C5        -0.6249   -0.1635    3.6739 C.ar      1 RES1    0.0000
      9 C6        -0.1573    0.2832    4.9414 C.ar      1 RES1    0.0000
     10 H4         0.7157    0.0779    5.1882 H         1 RES1    0.0000
     11 C7        -0.9219    0.9917    5.8036 C.ar      1 RES1    0.0000
     12 C8        -2.2672    1.3320    5.4455 C.ar      1 RES1    0.0000
     13 C9        -3.0897    2.0708    6.3395 C.ar      1 RES1    0.0000
     14 C10       -1.0755    2.6424    7.6805 C.3       1 RES1    0.0000
     15 H5        -0.7668    2.8203    8.5829 H         1 RES1    0.0000
     16 H6        -0.8481    3.4071    7.1306 H         1 RES1    0.0000
     17 C11       -0.3841    1.4259    7.1494 C.3       1 RES1    0.0000
     18 H7        -0.4906    0.6993    7.7827 H         1 RES1    0.0000
     19 H8         0.5645    1.6120    7.0673 H         1 RES1    0.0000
     20 C12       -2.5588    2.4644    7.6909 C.3       1 RES1    0.0000
     21 H9        -2.9777    3.2932    7.9690 H         1 RES1    0.0000
     22 H10       -2.7930    1.7807    8.3375 H         1 RES1    0.0000
     23 C1B        1.8120   -2.4035    0.9962 C.ar      1 RES1    0.0000
     24 H1B        2.3560   -2.8852    0.4164 H         1 RES1    0.0000
     25 C2B        2.3008   -2.0247    2.2490 C.ar      1 RES1    0.0000
     26 H2B        3.1657   -2.2637    2.4951 H         1 RES1    0.0000
     27 C3B        1.5316   -1.3121    3.1117 C.ar      1 RES1    0.0000
     28 H3B        1.8798   -1.0684    3.9390 H         1 RES1    0.0000
     29 C4B        0.2187   -0.9371    2.7759 C.ar      1 RES1    0.0000
     30 C5B       -1.9275    0.1635    3.2780 C.ar      1 RES1    0.0000
     31 C6B       -2.3951   -0.2832    2.0105 C.ar      1 RES1    0.0000
     32 H4B       -3.2682   -0.0779    1.7637 H         1 RES1    0.0000
     33 C7B       -1.6306   -0.9917    1.1483 C.ar      1 RES1    0.0000
     34 C8B       -0.2853   -1.3320    1.5064 C.ar      1 RES1    0.0000
     35 C9B        0.5372   -2.0708    0.6125 C.ar      1 RES1    0.0000
     36 C10B      -1.4769   -2.6424   -0.7286 C.3       1 RES1    0.0000
     37 H5B       -1.7856   -2.8203   -1.6309 H         1 RES1    0.0000
     38 H6B       -1.7044   -3.4071   -0.1787 H         1 RES1    0.0000
     39 C11B      -2.1683   -1.4259   -0.1974 C.3       1 RES1    0.0000
     40 H7B       -2.0619   -0.6993   -0.8308 H         1 RES1    0.0000
     41 H8B       -3.1169   -1.6120   -0.1154 H         1 RES1    0.0000
     42 C12B       0.0064   -2.4644   -0.7390 C.3       1 RES1    0.0000
     43 H9B        0.4253   -3.2932   -1.0171 H         1 RES1    0.0000
     44 H10B       0.2406   -1.7807   -1.3855 H         1 RES1    0.0000
@<TRIPOS>BOND
     1    1    2 1
     2    3    1 ar
     3    4    3 1
     4    5    3 ar
     5    6    5 1
     6    7    5 ar
     7    8    9 ar
     8    9   10 1
     9   11    9 ar
    10   12    7 ar
    11   13    1 ar
    12   14   15 1
    13   16   14 1
    14   17   11 1
    15   18   17 1
    16   19   17 1
    17   20   13 1
    18   21   20 1
    19   22   20 1
    20   23   24 1
    21   25   23 ar
    22   26   25 1
    23   27   25 ar
    24   28   27 1
    25   29    8 ar
    26   30    7 ar
    27   31   30 ar
    28   32   31 1
    29   33   31 ar
    30   34   29 ar
    31   35   23 ar
    32   36   37 1
    33   38   36 1
    34   39   33 1
    35   40   39 1
    36   41   39 1
    37   42   35 1
    38   43   42 1
    39   44   42 1
    40    8   30 ar
    41   11   12 ar
    42   12   13 ar
    43   14   17 1
    44   14   20 1
    45   27   29 ar
    46   33   34 ar
    47   34   35 ar
    48   36   39 1
    49   36   42 1
@<TRIPOS>SUBSTRUCTURE
     1 RES1 1

@<TRIPOS>CRYSIN
   7.9800   14.4187    7.4057  90.0000 110.1610  90.0000  14 1

