# MOL2 file generated by ConQuest
# Please check atom types

@<TRIPOS>MOLECULE
KAGGEG
    38    43     1
SMALL
NO_CHARGES
****
Generated from CSD

@<TRIPOS>ATOM
      1 C1         3.4900    1.8313    8.5246 C.ar      1 RES1    0.0000
      2 H1         3.8926    2.3994    7.8787 H         1 RES1    0.0000
      3 C2         2.1354    1.9995    8.8547 C.ar      1 RES1    0.0000
      4 H2         1.6343    2.6918    8.4395 H         1 RES1    0.0000
      5 C3         1.5179    1.1693    9.7788 C.ar      1 RES1    0.0000
      6 C4         0.1383    1.3511   10.1383 C.ar      1 RES1    0.0000
      7 H3        -0.3445    2.0630    9.7346 H         1 RES1    0.0000
      8 C5         0.2106   -0.5497   11.6704 C.ar      1 RES1    0.0000
      9 C6         4.2315    0.8535    9.1281 C.ar      1 RES1    0.0000
     10 H4         5.1519    0.7607    8.9094 H         1 RES1    0.0000
     11 C7         3.6439   -0.0277   10.0792 C.ar      1 RES1    0.0000
     12 C8         2.2637    0.1248   10.4025 C.ar      1 RES1    0.0000
     13 C9         1.6401   -0.7466   11.3418 C.ar      1 RES1    0.0000
     14 C10        2.4168   -1.7396   11.9284 C.ar      1 RES1    0.0000
     15 H5         2.0179   -2.3343   12.5531 H         1 RES1    0.0000
     16 C11        3.7759   -1.8807   11.6166 C.ar      1 RES1    0.0000
     17 H6         4.2837   -2.5660   12.0343 H         1 RES1    0.0000
     18 C12        4.3821   -1.0423   10.7151 C.ar      1 RES1    0.0000
     19 H7         5.3061   -1.1471   10.5201 H         1 RES1    0.0000
     20 C1B       -3.7895   -1.8313   14.1774 C.ar      1 RES1    0.0000
     21 H1B       -4.1921   -2.3994   14.8233 H         1 RES1    0.0000
     22 C2B       -2.4350   -1.9995   13.8473 C.ar      1 RES1    0.0000
     23 H2B       -1.9339   -2.6918   14.2625 H         1 RES1    0.0000
     24 C3B       -1.8175   -1.1693   12.9232 C.ar      1 RES1    0.0000
     25 C4B       -0.4379   -1.3511   12.5638 C.ar      1 RES1    0.0000
     26 H3B        0.0449   -2.0630   12.9674 H         1 RES1    0.0000
     27 C5B       -0.5101    0.5497   11.0316 C.ar      1 RES1    0.0000
     28 C6B       -4.5311   -0.8535   13.5739 C.ar      1 RES1    0.0000
     29 H4B       -5.4515   -0.7607   13.7926 H         1 RES1    0.0000
     30 C7B       -3.9435    0.0277   12.6228 C.ar      1 RES1    0.0000
     31 C8B       -2.5632   -0.1248   12.2995 C.ar      1 RES1    0.0000
     32 C9B       -1.9397    0.7466   11.3602 C.ar      1 RES1    0.0000
     33 C10B      -2.7164    1.7396   10.7736 C.ar      1 RES1    0.0000
     34 H5B       -2.3174    2.3343   10.1489 H         1 RES1    0.0000
     35 C11B      -4.0755    1.8807   11.0854 C.ar      1 RES1    0.0000
     36 H6B       -4.5833    2.5660   10.6677 H         1 RES1    0.0000
     37 C12B      -4.6817    1.0423   11.9869 C.ar      1 RES1    0.0000
     38 H7B       -5.6056    1.1471   12.1819 H         1 RES1    0.0000
@<TRIPOS>BOND
     1    1    2 1
     2    3    1 ar
     3    4    3 1
     4    5    3 ar
     5    6    5 ar
     6    7    6 1
     7    8   13 ar
     8    9    1 ar
     9   10    9 1
    10   11    9 ar
    11   12    5 ar
    12   13   12 ar
    13   14   13 ar
    14   15   14 1
    15   16   14 ar
    16   17   16 1
    17   18   11 ar
    18   19   18 1
    19   20   21 1
    20   22   20 ar
    21   23   22 1
    22   24   22 ar
    23   25    8 ar
    24   26   25 1
    25   27    6 ar
    26   28   20 ar
    27   29   28 1
    28   30   28 ar
    29   31   24 ar
    30   32   27 ar
    31   33   32 ar
    32   34   33 1
    33   35   33 ar
    34   36   35 1
    35   37   30 ar
    36   38   37 1
    37    8   27 ar
    38   11   12 ar
    39   16   18 ar
    40   24   25 ar
    41   30   31 ar
    42   31   32 ar
    43   35   37 ar
@<TRIPOS>SUBSTRUCTURE
     1 RES1 1

@<TRIPOS>CRYSIN
  11.6145    5.4260   11.3520  90.0000  90.7560  90.0000  14 1

