# MOL2 file generated by ConQuest
# Please check atom types

@<TRIPOS>MOLECULE
KAJTUM
    94   102     1
SMALL
NO_CHARGES
****
Generated from CSD

@<TRIPOS>ATOM
      1 C1         9.7881   12.3276    1.4694 C.ar      1 RES1    0.0000
      2 H1         9.3026   11.8769    2.1226 H         1 RES1    0.0000
      3 C2         9.1707   13.3898    0.7474 C.ar      1 RES1    0.0000
      4 C3         7.8425   13.7831    1.0019 C.ar      1 RES1    0.0000
      5 C4         7.2610   14.8365    0.2660 C.ar      1 RES1    0.0000
      6 C5         5.9255   15.2518    0.4807 C.ar      1 RES1    0.0000
      7 H2         5.4146   14.8227    1.1283 H         1 RES1    0.0000
      8 C6         5.3737   16.2623   -0.2384 C.ar      1 RES1    0.0000
      9 H3         4.4944   16.5208   -0.0798 H         1 RES1    0.0000
     10 C7         6.1309   16.9153   -1.2228 C.ar      1 RES1    0.0000
     11 H4         5.7490   17.6081   -1.7124 H         1 RES1    0.0000
     12 C8         7.0895   13.0759    2.0054 C.1       1 RES1    0.0000
     13 C9         6.5657   12.4112    2.8393 C.1       1 RES1    0.0000
     14 C10        6.0030   11.5319    3.8910 C.3       1 RES1    0.0000
     15 C11        5.0906   12.3742    4.8048 C.ar      1 RES1    0.0000
     16 C12        5.0494   12.2011    6.1735 C.ar      1 RES1    0.0000
     17 H5         5.6188   11.5867    6.5752 H         1 RES1    0.0000
     18 C13        4.1701   12.9310    6.9562 C.ar      1 RES1    0.0000
     19 H6         4.1527   12.8039    7.8775 H         1 RES1    0.0000
     20 C14        3.3335   13.8306    6.3789 C.ar      1 RES1    0.0000
     21 H7         2.7493   14.3274    6.9056 H         1 RES1    0.0000
     22 C15        3.3485   14.0097    5.0235 C.ar      1 RES1    0.0000
     23 H8         2.7664   14.6176    4.6282 H         1 RES1    0.0000
     24 C16        4.2239   13.2891    4.2466 C.ar      1 RES1    0.0000
     25 H9         4.2309   13.4220    3.3259 H         1 RES1    0.0000
     26 C17        5.1871   10.3985    3.2372 C.ar      1 RES1    0.0000
     27 C18        5.5026    9.9386    1.9708 C.ar      1 RES1    0.0000
     28 H10        6.1973   10.3347    1.4954 H         1 RES1    0.0000
     29 C19        4.7946    8.8950    1.4063 C.ar      1 RES1    0.0000
     30 H11        5.0144    8.5976    0.5522 H         1 RES1    0.0000
     31 C20        3.7780    8.2972    2.0891 C.ar      1 RES1    0.0000
     32 H12        3.3060    7.5969    1.7013 H         1 RES1    0.0000
     33 C21        3.4568    8.7319    3.3387 C.ar      1 RES1    0.0000
     34 H13        2.7687    8.3189    3.8079 H         1 RES1    0.0000
     35 C22        4.1492    9.7818    3.9115 C.ar      1 RES1    0.0000
     36 H14        3.9142   10.0777    4.7606 H         1 RES1    0.0000
     37 C23        7.2067   10.9542    4.6778 C.ar      1 RES1    0.0000
     38 C24        8.2254   11.7787    5.0809 C.ar      1 RES1    0.0000
     39 H15        8.1927   12.6827    4.8644 H         1 RES1    0.0000
     40 C25        9.3014   11.2935    5.8049 C.ar      1 RES1    0.0000
     41 H16        9.9748   11.8740    6.0773 H         1 RES1    0.0000
     42 C26        9.3804    9.9737    6.1208 C.ar      1 RES1    0.0000
     43 H17       10.1035    9.6459    6.6071 H         1 RES1    0.0000
     44 C27        8.3854    9.1376    5.7155 C.ar      1 RES1    0.0000
     45 H18        8.4318    8.2322    5.9209 H         1 RES1    0.0000
     46 C28        7.3114    9.6232    5.0053 C.ar      1 RES1    0.0000
     47 H19        6.6398    9.0366    4.7399 H         1 RES1    0.0000
     48 C1B        7.4057   16.5524   -1.4694 C.ar      1 RES1    0.0000
     49 H1B        7.8912   17.0031   -2.1226 H         1 RES1    0.0000
     50 C2B        8.0231   15.4902   -0.7474 C.ar      1 RES1    0.0000
     51 C3B        9.3513   15.0969   -1.0019 C.ar      1 RES1    0.0000
     52 C4B        9.9328   14.0435   -0.2660 C.ar      1 RES1    0.0000
     53 C5B       11.2683   13.6282   -0.4807 C.ar      1 RES1    0.0000
     54 H2B       11.7792   14.0573   -1.1283 H         1 RES1    0.0000
     55 C6B       11.8201   12.6177    0.2384 C.ar      1 RES1    0.0000
     56 H3B       12.6994   12.3592    0.0798 H         1 RES1    0.0000
     57 C7B       11.0629   11.9647    1.2228 C.ar      1 RES1    0.0000
     58 H4B       11.4448   11.2719    1.7124 H         1 RES1    0.0000
     59 C8B       10.1043   15.8041   -2.0054 C.1       1 RES1    0.0000
     60 C9B       10.6281   16.4688   -2.8393 C.1       1 RES1    0.0000
     61 C10B      11.1908   17.3481   -3.8910 C.3       1 RES1    0.0000
     62 C11B      12.1032   16.5058   -4.8048 C.ar      1 RES1    0.0000
     63 C12B      12.1444   16.6789   -6.1735 C.ar      1 RES1    0.0000
     64 H5B       11.5750   17.2933   -6.5752 H         1 RES1    0.0000
     65 C13B      13.0237   15.9490   -6.9562 C.ar      1 RES1    0.0000
     66 H6B       13.0411   16.0761   -7.8775 H         1 RES1    0.0000
     67 C14B      13.8603   15.0494   -6.3789 C.ar      1 RES1    0.0000
     68 H7B       14.4445   14.5526   -6.9056 H         1 RES1    0.0000
     69 C15B      13.8453   14.8703   -5.0235 C.ar      1 RES1    0.0000
     70 H8B       14.4274   14.2624   -4.6282 H         1 RES1    0.0000
     71 C16B      12.9699   15.5909   -4.2466 C.ar      1 RES1    0.0000
     72 H9B       12.9629   15.4580   -3.3259 H         1 RES1    0.0000
     73 C17B      12.0067   18.4815   -3.2372 C.ar      1 RES1    0.0000
     74 C18B      11.6912   18.9414   -1.9708 C.ar      1 RES1    0.0000
     75 H10B      10.9965   18.5453   -1.4954 H         1 RES1    0.0000
     76 C19B      12.3992   19.9850   -1.4063 C.ar      1 RES1    0.0000
     77 H11B      12.1794   20.2824   -0.5522 H         1 RES1    0.0000
     78 C20B      13.4158   20.5828   -2.0891 C.ar      1 RES1    0.0000
     79 H12B      13.8878   21.2831   -1.7013 H         1 RES1    0.0000
     80 C21B      13.7370   20.1481   -3.3387 C.ar      1 RES1    0.0000
     81 H13B      14.4251   20.5611   -3.8079 H         1 RES1    0.0000
     82 C22B      13.0446   19.0982   -3.9115 C.ar      1 RES1    0.0000
     83 H14B      13.2796   18.8023   -4.7606 H         1 RES1    0.0000
     84 C23B       9.9871   17.9258   -4.6778 C.ar      1 RES1    0.0000
     85 C24B       8.9684   17.1013   -5.0809 C.ar      1 RES1    0.0000
     86 H15B       9.0011   16.1973   -4.8644 H         1 RES1    0.0000
     87 C25B       7.8924   17.5865   -5.8049 C.ar      1 RES1    0.0000
     88 H16B       7.2190   17.0060   -6.0773 H         1 RES1    0.0000
     89 C26B       7.8134   18.9063   -6.1208 C.ar      1 RES1    0.0000
     90 H17B       7.0903   19.2341   -6.6071 H         1 RES1    0.0000
     91 C27B       8.8084   19.7424   -5.7155 C.ar      1 RES1    0.0000
     92 H18B       8.7620   20.6478   -5.9209 H         1 RES1    0.0000
     93 C28B       9.8824   19.2568   -5.0053 C.ar      1 RES1    0.0000
     94 H19B      10.5540   19.8434   -4.7399 H         1 RES1    0.0000
@<TRIPOS>BOND
     1    1    2 1
     2    3    1 ar
     3    4    3 ar
     4    5    4 ar
     5    6    5 ar
     6    7    6 1
     7    8    6 ar
     8    9    8 1
     9   10    8 ar
    10   11   10 1
    11   12    4 1
    12   13   12 3
    13   14   13 1
    14   15   14 1
    15   16   15 ar
    16   17   16 1
    17   18   16 ar
    18   19   18 1
    19   20   18 ar
    20   21   20 1
    21   22   20 ar
    22   23   22 1
    23   24   15 ar
    24   25   24 1
    25   26   14 1
    26   27   26 ar
    27   28   27 1
    28   29   27 ar
    29   30   29 1
    30   31   29 ar
    31   32   31 1
    32   33   31 ar
    33   34   33 1
    34   35   26 ar
    35   36   35 1
    36   37   14 1
    37   38   37 ar
    38   39   38 1
    39   40   38 ar
    40   41   40 1
    41   42   40 ar
    42   43   42 1
    43   44   42 ar
    44   45   44 1
    45   46   37 ar
    46   47   46 1
    47   48   10 ar
    48   49   48 1
    49   50    5 ar
    50   51   50 ar
    51   52    3 ar
    52   53   52 ar
    53   54   53 1
    54   55   53 ar
    55   56   55 1
    56   57    1 ar
    57   58   57 1
    58   59   51 1
    59   60   59 3
    60   61   60 1
    61   62   61 1
    62   63   62 ar
    63   64   63 1
    64   65   63 ar
    65   66   65 1
    66   67   65 ar
    67   68   67 1
    68   69   67 ar
    69   70   69 1
    70   71   62 ar
    71   72   71 1
    72   73   61 1
    73   74   73 ar
    74   75   74 1
    75   76   74 ar
    76   77   76 1
    77   78   76 ar
    78   79   78 1
    79   80   78 ar
    80   81   80 1
    81   82   73 ar
    82   83   82 1
    83   84   61 1
    84   85   84 ar
    85   86   85 1
    86   87   85 ar
    87   88   87 1
    88   89   87 ar
    89   90   89 1
    90   91   89 ar
    91   92   91 1
    92   93   84 ar
    93   94   93 1
    94   22   24 ar
    95   33   35 ar
    96   44   46 ar
    97   48   50 ar
    98   51   52 ar
    99   55   57 ar
   100   69   71 ar
   101   80   82 ar
   102   91   93 ar
@<TRIPOS>SUBSTRUCTURE
     1 RES1 1

@<TRIPOS>CRYSIN
   8.5969   14.4400   16.3620  90.0000 102.7390  90.0000 231 1

