# MOL2 file generated by ConQuest
# Please check atom types

@<TRIPOS>MOLECULE
KAJTEX
    72    80     1
SMALL
NO_CHARGES
****
Generated from CSD

@<TRIPOS>ATOM
      1 C1         8.1463   -0.9141    3.3715 C.ar      1 RES1    0.0000
      2 H1         8.2531   -1.7370    3.8334 H         1 RES1    0.0000
      3 C2         8.2725    0.2836    4.0564 C.ar      1 RES1    0.0000
      4 H2         8.4604    0.2757    4.9875 H         1 RES1    0.0000
      5 C3         8.1253    1.5071    3.3896 C.ar      1 RES1    0.0000
      6 C4         8.1801    2.7432    4.1112 C.1       1 RES1    0.0000
      7 C5         8.1797    3.7854    4.7075 C.1       1 RES1    0.0000
      8 C6         8.2042    5.0582    5.3589 C.ar      1 RES1    0.0000
      9 C7         8.9501    5.2295    6.5446 C.ar      1 RES1    0.0000
     10 C8         9.6954    4.1638    7.1404 C.ar      1 RES1    0.0000
     11 H3         9.6940    3.3065    6.7320 H         1 RES1    0.0000
     12 C9        10.4094    4.3613    8.2858 C.ar      1 RES1    0.0000
     13 H4        10.9058    3.6429    8.6606 H         1 RES1    0.0000
     14 C10       10.4196    5.6357    8.9261 C.ar      1 RES1    0.0000
     15 H5        10.9038    5.7558    9.7340 H         1 RES1    0.0000
     16 C11        9.7383    6.6787    8.3824 C.ar      1 RES1    0.0000
     17 H6         9.7588    7.5244    8.8144 H         1 RES1    0.0000
     18 C12        8.9907    6.5267    7.1688 C.ar      1 RES1    0.0000
     19 C13        8.3228    7.5974    6.5826 C.ar      1 RES1    0.0000
     20 H7         8.3545    8.4477    7.0042 H         1 RES1    0.0000
     21 C14        7.6016    7.4543    5.3813 C.ar      1 RES1    0.0000
     22 C15        6.9827    8.5564    4.7557 C.ar      1 RES1    0.0000
     23 H8         7.0499    9.4158    5.1563 H         1 RES1    0.0000
     24 C16        6.2752    8.4159    3.5666 C.ar      1 RES1    0.0000
     25 C17        5.6738    9.5342    2.8978 C.ar      1 RES1    0.0000
     26 H9         5.7401   10.4010    3.2805 H         1 RES1    0.0000
     27 C18        5.0107    9.3680    1.7229 C.ar      1 RES1    0.0000
     28 H10        4.6318   10.1214    1.2853 H         1 RES1    0.0000
     29 C19        4.8778    8.0728    1.1395 C.ar      1 RES1    0.0000
     30 H11        4.4104    7.9716    0.3184 H         1 RES1    0.0000
     31 C20        5.4136    6.9816    1.7504 C.ar      1 RES1    0.0000
     32 H12        5.3016    6.1237    1.3585 H         1 RES1    0.0000
     33 C21        6.1447    7.1090    2.9768 C.ar      1 RES1    0.0000
     34 C22        6.7529    6.0165    3.5861 C.ar      1 RES1    0.0000
     35 H13        6.6594    5.1557    3.1945 H         1 RES1    0.0000
     36 C23        7.5037    6.1539    4.7680 C.ar      1 RES1    0.0000
     37 C1A        7.8632   -0.9141    2.0064 C.ar      1 RES1    0.0000
     38 H1A        7.7564   -1.7370    1.5445 H         1 RES1    0.0000
     39 C2A        7.7370    0.2836    1.3215 C.ar      1 RES1    0.0000
     40 H2A        7.5491    0.2757    0.3904 H         1 RES1    0.0000
     41 C3A        7.8842    1.5071    1.9883 C.ar      1 RES1    0.0000
     42 C4A        7.8295    2.7432    1.2667 C.1       1 RES1    0.0000
     43 C5A        7.8298    3.7854    0.6704 C.1       1 RES1    0.0000
     44 C6A        7.8053    5.0582    0.0190 C.ar      1 RES1    0.0000
     45 C7A        7.0594    5.2295   -1.1667 C.ar      1 RES1    0.0000
     46 C8A        6.3141    4.1638   -1.7626 C.ar      1 RES1    0.0000
     47 H3A        6.3156    3.3065   -1.3542 H         1 RES1    0.0000
     48 C9A        5.6001    4.3613   -2.9079 C.ar      1 RES1    0.0000
     49 H4A        5.1037    3.6429   -3.2827 H         1 RES1    0.0000
     50 C10A       5.5899    5.6357   -3.5482 C.ar      1 RES1    0.0000
     51 H5A        5.1057    5.7558   -4.3561 H         1 RES1    0.0000
     52 C11A       6.2712    6.6787   -3.0045 C.ar      1 RES1    0.0000
     53 H6A        6.2508    7.5244   -3.4365 H         1 RES1    0.0000
     54 C12A       7.0189    6.5267   -1.7909 C.ar      1 RES1    0.0000
     55 C13A       7.6867    7.5974   -1.2048 C.ar      1 RES1    0.0000
     56 H7A        7.6550    8.4477   -1.6263 H         1 RES1    0.0000
     57 C14A       8.4079    7.4543   -0.0034 C.ar      1 RES1    0.0000
     58 C15A       9.0268    8.5564    0.6222 C.ar      1 RES1    0.0000
     59 H8A        8.9596    9.4158    0.2216 H         1 RES1    0.0000
     60 C16A       9.7344    8.4159    1.8113 C.ar      1 RES1    0.0000
     61 C17A      10.3357    9.5342    2.4801 C.ar      1 RES1    0.0000
     62 H9A       10.2694   10.4010    2.0974 H         1 RES1    0.0000
     63 C18A      10.9989    9.3680    3.6550 C.ar      1 RES1    0.0000
     64 H10A      11.3777   10.1214    4.0926 H         1 RES1    0.0000
     65 C19A      11.1317    8.0728    4.2384 C.ar      1 RES1    0.0000
     66 H11A      11.5991    7.9716    5.0595 H         1 RES1    0.0000
     67 C20A      10.5959    6.9816    3.6275 C.ar      1 RES1    0.0000
     68 H12A      10.7079    6.1237    4.0194 H         1 RES1    0.0000
     69 C21A       9.8648    7.1090    2.4011 C.ar      1 RES1    0.0000
     70 C22A       9.2566    6.0165    1.7918 C.ar      1 RES1    0.0000
     71 H13A       9.3501    5.1557    2.1834 H         1 RES1    0.0000
     72 C23A       8.5058    6.1539    0.6099 C.ar      1 RES1    0.0000
@<TRIPOS>BOND
     1    1    2 1
     2    3    1 ar
     3    4    3 1
     4    5    3 ar
     5    6    5 1
     6    7    6 3
     7    8    7 1
     8    9    8 ar
     9   10    9 ar
    10   11   10 1
    11   12   10 ar
    12   13   12 1
    13   14   12 ar
    14   15   14 1
    15   16   14 ar
    16   17   16 1
    17   18    9 ar
    18   19   18 ar
    19   20   19 1
    20   21   19 ar
    21   22   21 ar
    22   23   22 1
    23   24   22 ar
    24   25   24 ar
    25   26   25 1
    26   27   25 ar
    27   28   27 1
    28   29   27 ar
    29   30   29 1
    30   31   29 ar
    31   32   31 1
    32   33   24 ar
    33   34   33 ar
    34   35   34 1
    35   36    8 ar
    36   37    1 ar
    37   38   37 1
    38   39   37 ar
    39   40   39 1
    40   41    5 ar
    41   42   41 1
    42   43   42 3
    43   44   43 1
    44   45   44 ar
    45   46   45 ar
    46   47   46 1
    47   48   46 ar
    48   49   48 1
    49   50   48 ar
    50   51   50 1
    51   52   50 ar
    52   53   52 1
    53   54   45 ar
    54   55   54 ar
    55   56   55 1
    56   57   55 ar
    57   58   57 ar
    58   59   58 1
    59   60   58 ar
    60   61   60 ar
    61   62   61 1
    62   63   61 ar
    63   64   63 1
    64   65   63 ar
    65   66   65 1
    66   67   65 ar
    67   68   67 1
    68   69   60 ar
    69   70   69 ar
    70   71   70 1
    71   72   44 ar
    72   16   18 ar
    73   21   36 ar
    74   31   33 ar
    75   34   36 ar
    76   39   41 ar
    77   52   54 ar
    78   57   72 ar
    79   67   69 ar
    80   70   72 ar
@<TRIPOS>SUBSTRUCTURE
     1 RES1 1

@<TRIPOS>CRYSIN
  20.5497   13.1892   14.0762  90.0000 130.1720  90.0000  15 1

