# MOL2 file generated by ConQuest
# Please check atom types

@<TRIPOS>MOLECULE
KAKLEO
   106   120     2
SMALL
NO_CHARGES
****
Generated from CSD

@<TRIPOS>ATOM
      1 C1         0.2009    6.0168    3.6869 C.3       1 RES1    0.0000
      2 C2         0.0968    4.8023    4.5955 C.ar      1 RES1    0.0000
      3 C3        -0.7523    3.7287    4.4926 C.ar      1 RES1    0.0000
      4 H1        -1.3702    3.6773    3.7993 H         1 RES1    0.0000
      5 C4        -0.6699    2.7240    5.4427 C.ar      1 RES1    0.0000
      6 H2        -1.2442    1.9945    5.3905 H         1 RES1    0.0000
      7 C5         0.2542    2.7896    6.4663 C.ar      1 RES1    0.0000
      8 H3         0.3056    2.0989    7.0855 H         1 RES1    0.0000
      9 C6         1.0984    3.8680    6.5754 C.ar      1 RES1    0.0000
     10 H4         1.7182    3.9123    7.2674 H         1 RES1    0.0000
     11 C7         1.0152    4.8886    5.6447 C.ar      1 RES1    0.0000
     12 C8         1.7343    6.1631    5.5278 C.ar      1 RES1    0.0000
     13 C9         2.7161    6.7351    6.3279 C.ar      1 RES1    0.0000
     14 H5         3.0234    6.2968    7.0888 H         1 RES1    0.0000
     15 C10        3.2232    7.9654    5.9694 C.ar      1 RES1    0.0000
     16 H6         3.8911    8.3515    6.4880 H         1 RES1    0.0000
     17 C11        2.7592    8.6339    4.8598 C.ar      1 RES1    0.0000
     18 H7         3.1049    9.4710    4.6468 H         1 RES1    0.0000
     19 C12        1.7826    8.0682    4.0581 C.ar      1 RES1    0.0000
     20 H8         1.4722    8.5145    3.3025 H         1 RES1    0.0000
     21 C13        1.2810    6.8348    4.3984 C.ar      1 RES1    0.0000
     22 C14       -1.1011    6.7913    3.5009 C.ar      1 RES1    0.0000
     23 C15       -1.9610    7.3182    4.4936 C.ar      1 RES1    0.0000
     24 C16       -1.7608    7.1727    5.8899 C.ar      1 RES1    0.0000
     25 H9        -1.0272    6.6916    6.1990 H         1 RES1    0.0000
     26 C17       -2.6220    7.7225    6.7842 C.ar      1 RES1    0.0000
     27 H10       -2.4748    7.6125    7.6960 H         1 RES1    0.0000
     28 C18       -3.7248    8.4520    6.3422 C.ar      1 RES1    0.0000
     29 H11       -4.3055    8.8293    6.9621 H         1 RES1    0.0000
     30 C19       -3.9576    8.6165    5.0235 C.ar      1 RES1    0.0000
     31 H12       -4.6969    9.1078    4.7475 H         1 RES1    0.0000
     32 C20       -3.0947    8.0532    4.0487 C.ar      1 RES1    0.0000
     33 C21       -3.3219    8.2178    2.6670 C.ar      1 RES1    0.0000
     34 H13       -4.0526    8.7194    2.3867 H         1 RES1    0.0000
     35 C22       -2.5014    7.6608    1.7347 C.ar      1 RES1    0.0000
     36 H14       -2.6853    7.7518    0.8281 H         1 RES1    0.0000
     37 C23       -1.3752    6.9503    2.1649 C.ar      1 RES1    0.0000
     38 C24       -0.3334    6.2771    1.3778 C.ar      1 RES1    0.0000
     39 C25       -0.2047    6.1631   -0.0198 C.ar      1 RES1    0.0000
     40 H15       -0.8138    6.5737   -0.5910 H         1 RES1    0.0000
     41 C26        0.8319    5.4376   -0.5124 C.ar      1 RES1    0.0000
     42 H16        0.9293    5.3609   -1.4353 H         1 RES1    0.0000
     43 C27        1.7646    4.7992    0.3234 C.ar      1 RES1    0.0000
     44 C28        2.7850    3.9882   -0.2098 C.ar      1 RES1    0.0000
     45 H17        2.8685    3.9060   -1.1333 H         1 RES1    0.0000
     46 C29        3.6514    3.3245    0.5988 C.ar      1 RES1    0.0000
     47 H18        4.3026    2.7738    0.2273 H         1 RES1    0.0000
     48 C30        3.5674    3.4677    1.9847 C.ar      1 RES1    0.0000
     49 H19        4.1771    3.0278    2.5329 H         1 RES1    0.0000
     50 C31        2.5940    4.2501    2.5416 C.ar      1 RES1    0.0000
     51 H20        2.5535    4.3411    3.4648 H         1 RES1    0.0000
     52 C32        1.6520    4.9210    1.7340 C.ar      1 RES1    0.0000
     53 C33        0.5747    5.6924    2.2377 C.ar      1 RES1    0.0000
     54 C34        8.2693    2.0277    4.0130 C.3       2 RES2    0.0000
     55 C35        7.1858    2.8205    4.7540 C.ar      2 RES2    0.0000
     56 C36        6.6402    4.0397    4.4322 C.ar      2 RES2    0.0000
     57 H21        6.9249    4.5033    3.6791 H         2 RES2    0.0000
     58 C37        5.6565    4.5634    5.2541 C.ar      2 RES2    0.0000
     59 H22        5.2700    5.3823    5.0397 H         2 RES2    0.0000
     60 C38        5.2427    3.9004    6.3731 C.ar      2 RES2    0.0000
     61 H23        4.5858    4.2746    6.9167 H         2 RES2    0.0000
     62 C39        5.7870    2.6844    6.7043 C.ar      2 RES2    0.0000
     63 H24        5.5027    2.2350    7.4654 H         2 RES2    0.0000
     64 C40        6.7701    2.1306    5.8889 C.ar      2 RES2    0.0000
     65 C41        7.5154    0.8790    5.9811 C.ar      2 RES2    0.0000
     66 C42        7.4583   -0.1313    6.9118 C.ar      2 RES2    0.0000
     67 H25        6.8708   -0.0854    7.6311 H         2 RES2    0.0000
     68 C43        8.2959   -1.2144    6.7511 C.ar      2 RES2    0.0000
     69 H26        8.2638   -1.9122    7.3648 H         2 RES2    0.0000
     70 C44        9.1735   -1.2801    5.6993 C.ar      2 RES2    0.0000
     71 H27        9.7391   -2.0143    5.6210 H         2 RES2    0.0000
     72 C45        9.2333   -0.2737    4.7553 C.ar      2 RES2    0.0000
     73 H28        9.8254   -0.3244    4.0396 H         2 RES2    0.0000
     74 C46        8.3966    0.8030    4.8995 C.ar      2 RES2    0.0000
     75 C47        7.8948    1.7303    2.5614 C.ar      2 RES2    0.0000
     76 C48        6.8472    0.9257    2.0597 C.ar      2 RES2    0.0000
     77 C49        5.9275    0.2160    2.8647 C.ar      2 RES2    0.0000
     78 H29        5.9657    0.3022    3.7896 H         2 RES2    0.0000
     79 C50        4.9848   -0.5918    2.3039 C.ar      2 RES2    0.0000
     80 H30        4.3859   -1.0467    2.8511 H         2 RES2    0.0000
     81 C51        4.9049   -0.7469    0.9177 C.ar      2 RES2    0.0000
     82 H31        4.2694   -1.3181    0.5488 H         2 RES2    0.0000
     83 C52        5.7550   -0.0633    0.1140 C.ar      2 RES2    0.0000
     84 H32        5.6907   -0.1622   -0.8086 H         2 RES2    0.0000
     85 C53        6.7352    0.7935    0.6511 C.ar      2 RES2    0.0000
     86 C54        7.6368    1.4771   -0.1815 C.ar      2 RES2    0.0000
     87 H33        7.5432    1.3972   -1.1041 H         2 RES2    0.0000
     88 C55        8.6444    2.2548    0.3098 C.ar      2 RES2    0.0000
     89 H34        9.2291    2.6986   -0.2598 H         2 RES2    0.0000
     90 C56        8.7726    2.3664    1.7139 C.ar      2 RES2    0.0000
     91 C57        9.7897    3.0460    2.5030 C.ar      2 RES2    0.0000
     92 C58       10.8866    3.8142    2.0747 C.ar      2 RES2    0.0000
     93 H35       11.0330    3.9582    1.1690 H         2 RES2    0.0000
     94 C59       11.7308    4.3443    2.9988 C.ar      2 RES2    0.0000
     95 H36       12.4403    4.8759    2.7180 H         2 RES2    0.0000
     96 C60       11.5529    4.1053    4.3786 C.ar      2 RES2    0.0000
     97 C61       12.4540    4.6038    5.3346 C.ar      2 RES2    0.0000
     98 H37       13.1661    5.1299    5.0527 H         2 RES2    0.0000
     99 C62       12.3144    4.3395    6.6598 C.ar      2 RES2    0.0000
    100 H38       12.9278    4.6781    7.2706 H         2 RES2    0.0000
    101 C63       11.2395    3.5531    7.0979 C.ar      2 RES2    0.0000
    102 H39       11.1516    3.3537    8.0012 H         2 RES2    0.0000
    103 C64       10.3274    3.0816    6.2140 C.ar      2 RES2    0.0000
    104 H40        9.6079    2.5823    6.5270 H         2 RES2    0.0000
    105 C65       10.4422    3.3284    4.8329 C.ar      2 RES2    0.0000
    106 C66        9.5587    2.8347    3.8405 C.ar      2 RES2    0.0000
@<TRIPOS>BOND
     1    1    2 1
     2    2    3 ar
     3    3    4 1
     4    5    3 ar
     5    6    5 1
     6    7    5 ar
     7    8    7 1
     8    9    7 ar
     9   10    9 1
    10   11    2 ar
    11   12   11 1
    12   13   12 ar
    13   14   13 1
    14   15   13 ar
    15   16   15 1
    16   17   15 ar
    17   18   17 1
    18   19   17 ar
    19   20   19 1
    20   21    1 1
    21   22    1 1
    22   23   22 ar
    23   24   23 ar
    24   25   24 1
    25   26   24 ar
    26   27   26 1
    27   28   26 ar
    28   29   28 1
    29   30   28 ar
    30   31   30 1
    31   32   23 ar
    32   33   32 ar
    33   34   33 1
    34   35   33 ar
    35   36   35 1
    36   37   22 ar
    37   38   37 1
    38   39   38 ar
    39   40   39 1
    40   41   39 ar
    41   42   41 1
    42   43   41 ar
    43   44   43 ar
    44   45   44 1
    45   46   44 ar
    46   47   46 1
    47   48   46 ar
    48   49   48 1
    49   50   48 ar
    50   51   50 1
    51   52   43 ar
    52   53    1 1
    53   54   55 1
    54   55   56 ar
    55   56   57 1
    56   58   56 ar
    57   59   58 1
    58   60   58 ar
    59   61   60 1
    60   62   60 ar
    61   63   62 1
    62   64   55 ar
    63   65   64 1
    64   66   65 ar
    65   67   66 1
    66   68   66 ar
    67   69   68 1
    68   70   68 ar
    69   71   70 1
    70   72   70 ar
    71   73   72 1
    72   74   54 1
    73   75   54 1
    74   76   75 ar
    75   77   76 ar
    76   78   77 1
    77   79   77 ar
    78   80   79 1
    79   81   79 ar
    80   82   81 1
    81   83   81 ar
    82   84   83 1
    83   85   76 ar
    84   86   85 ar
    85   87   86 1
    86   88   86 ar
    87   89   88 1
    88   90   75 ar
    89   91   90 1
    90   92   91 ar
    91   93   92 1
    92   94   92 ar
    93   95   94 1
    94   96   94 ar
    95   97   96 ar
    96   98   97 1
    97   99   97 ar
    98  100   99 1
    99  101   99 ar
   100  102  101 1
   101  103  101 ar
   102  104  103 1
   103  105   96 ar
   104  106   54 1
   105    9   11 ar
   106   12   21 ar
   107   19   21 ar
   108   30   32 ar
   109   35   37 ar
   110   38   53 ar
   111   50   52 ar
   112   52   53 ar
   113   62   64 ar
   114   65   74 ar
   115   72   74 ar
   116   83   85 ar
   117   88   90 ar
   118   91  106 ar
   119  103  105 ar
   120  105  106 ar
@<TRIPOS>SUBSTRUCTURE
     1 RES1 1
     2 RES2 54

@<TRIPOS>CRYSIN
  17.0006    7.9116   33.0410  90.0000 100.6430  90.0000 231 1

