# MOL2 file generated by ConQuest
# Please check atom types

@<TRIPOS>MOLECULE
KALJEP
    50    55     1
SMALL
NO_CHARGES
****
Generated from CSD

@<TRIPOS>ATOM
      1 C1         1.2873    4.2762    0.9145 C.ar      1 RES1    0.0000
      2 C2         1.3692    5.6056    0.2813 C.ar      1 RES1    0.0000
      3 C3         0.5540    6.6368    0.7442 C.ar      1 RES1    0.0000
      4 C4        -3.7414    8.6879    3.8420 C.ar      1 RES1    0.0000
      5 C5        -2.3533    8.7112    4.1961 C.ar      1 RES1    0.0000
      6 C6         0.3566    4.0912    1.9501 C.ar      1 RES1    0.0000
      7 C7        -0.4459    5.1684    2.3738 C.ar      1 RES1    0.0000
      8 H1        -1.0559    5.0187    3.0608 H         1 RES1    0.0000
      9 C8        -4.6118    9.6514    4.3990 C.ar      1 RES1    0.0000
     10 C9        -1.8943    9.6569    5.1208 C.ar      1 RES1    0.0000
     11 C10       -0.3776    6.4177    1.8347 C.ar      1 RES1    0.0000
     12 C11       -2.7939   10.6033    5.7069 C.ar      1 RES1    0.0000
     13 C12       -1.4349    7.7290    3.6313 C.2       1 RES1    0.0000
     14 H2        -0.9460    7.2207    4.2376 H         1 RES1    0.0000
     15 C13        0.6800    7.9002    0.1535 C.ar      1 RES1    0.0000
     16 H3         0.1478    8.5987    0.4606 H         1 RES1    0.0000
     17 C14        0.2529    2.8117    2.5632 C.ar      1 RES1    0.0000
     18 H4        -0.3613    2.6776    3.2491 H         1 RES1    0.0000
     19 C15       -1.2225    7.4829    2.3413 C.2       1 RES1    0.0000
     20 H5        -1.6449    8.0327    1.7204 H         1 RES1    0.0000
     21 C16        2.0910    3.1980    0.5301 C.ar      1 RES1    0.0000
     22 H6         2.7151    3.3056   -0.1502 H         1 RES1    0.0000
     23 C17       -4.1367   10.5783    5.3192 C.ar      1 RES1    0.0000
     24 H7        -4.7266   11.1963    5.6856 H         1 RES1    0.0000
     25 C18        1.5637    8.1363   -0.8641 C.ar      1 RES1    0.0000
     26 H8         1.6265    8.9831   -1.2429 H         1 RES1    0.0000
     27 C19        2.2561    5.8597   -0.7655 C.ar      1 RES1    0.0000
     28 H9         2.7863    5.1675   -1.0905 H         1 RES1    0.0000
     29 C20       -6.0098    9.6519    4.0191 C.ar      1 RES1    0.0000
     30 H10       -6.5860   10.2945    4.3665 H         1 RES1    0.0000
     31 C21       -4.3072    7.7199    2.9644 C.ar      1 RES1    0.0000
     32 H11       -3.7630    7.0573    2.6035 H         1 RES1    0.0000
     33 C22       -0.5268    9.7445    5.4873 C.ar      1 RES1    0.0000
     34 H12        0.0844    9.1556    5.1062 H         1 RES1    0.0000
     35 C23        2.3664    7.1022   -1.3270 C.ar      1 RES1    0.0000
     36 H13        2.9744    7.2528   -2.0140 H         1 RES1    0.0000
     37 C24        1.0332    1.7952    2.1608 C.ar      1 RES1    0.0000
     38 H14        0.9471    0.9609    2.5621 H         1 RES1    0.0000
     39 C25        1.9638    1.9811    1.1544 C.ar      1 RES1    0.0000
     40 H15        2.5097    1.2737    0.8977 H         1 RES1    0.0000
     41 C26       -5.6201    7.7478    2.6439 C.ar      1 RES1    0.0000
     42 H16       -5.9637    7.1072    2.0644 H         1 RES1    0.0000
     43 C27       -2.2951   11.5307    6.6417 C.ar      1 RES1    0.0000
     44 H17       -2.8805   12.1337    7.0395 H         1 RES1    0.0000
     45 C28       -0.0929   10.6545    6.3704 C.ar      1 RES1    0.0000
     46 H18        0.8100   10.6863    6.5879 H         1 RES1    0.0000
     47 C29       -6.4719    8.7307    3.1740 C.ar      1 RES1    0.0000
     48 H19       -7.3698    8.7395    2.9319 H         1 RES1    0.0000
     49 C30       -0.9863   11.5637    6.9756 C.ar      1 RES1    0.0000
     50 H20       -0.6765   12.1810    7.5988 H         1 RES1    0.0000
@<TRIPOS>BOND
     1    1    2 ar
     2    2    3 ar
     3    3   11 ar
     4    4    5 ar
     5    5   10 ar
     6    6    1 ar
     7    7    6 ar
     8    8    7 1
     9    9    4 ar
    10   10   12 ar
    11   11    7 ar
    12   12   23 ar
    13   13    5 1
    14   14   13 1
    15   15    3 ar
    16   16   15 1
    17   17    6 ar
    18   18   17 1
    19   19   11 1
    20   20   19 1
    21   21    1 ar
    22   22   21 1
    23   23    9 ar
    24   24   23 1
    25   25   15 ar
    26   26   25 1
    27   27    2 ar
    28   28   27 1
    29   29    9 ar
    30   30   29 1
    31   31    4 ar
    32   32   31 1
    33   33   10 ar
    34   34   33 1
    35   35   25 ar
    36   36   35 1
    37   37   17 ar
    38   38   37 1
    39   39   21 ar
    40   40   39 1
    41   41   31 ar
    42   42   41 1
    43   43   12 ar
    44   44   43 1
    45   45   33 ar
    46   46   45 1
    47   47   29 ar
    48   48   47 1
    49   49   43 ar
    50   50   49 1
    51   13   19 2
    52   27   35 ar
    53   37   39 ar
    54   41   47 ar
    55   45   49 ar
@<TRIPOS>SUBSTRUCTURE
     1 RES1 1

@<TRIPOS>CRYSIN
   9.1646    9.6259   12.5310 102.5140 111.2530  96.8870   2 1

