# MOL2 file generated by ConQuest
# Please check atom types

@<TRIPOS>MOLECULE
KALLAN
    50    55     1
SMALL
NO_CHARGES
****
Generated from CSD

@<TRIPOS>ATOM
      1 C1         0.9481    1.6264    0.3876 C.ar      1 RES1    0.0000
      2 C2        -0.5117    0.8526    2.2510 C.ar      1 RES1    0.0000
      3 C3        -0.2615    1.7365    1.1246 C.ar      1 RES1    0.0000
      4 C4         0.2668   -0.9377    3.7128 C.ar      1 RES1    0.0000
      5 H1         0.9349   -1.5314    3.9706 H         1 RES1    0.0000
      6 C5         0.4936   -0.0672    2.6226 C.ar      1 RES1    0.0000
      7 C6        -1.7215    0.8391    2.9717 C.ar      1 RES1    0.0000
      8 H2        -2.3987    1.4307    2.7355 H         1 RES1    0.0000
      9 C7        -0.9891    3.5017   -0.3720 C.ar      1 RES1    0.0000
     10 H3        -1.6258    4.1329   -0.6182 H         1 RES1    0.0000
     11 C8        -1.1992    2.7067    0.7229 C.ar      1 RES1    0.0000
     12 H4        -1.9819    2.8098    1.2138 H         1 RES1    0.0000
     13 C9         1.1230    2.4479   -0.7416 C.ar      1 RES1    0.0000
     14 H5         1.9006    2.3657   -1.2459 H         1 RES1    0.0000
     15 C10        1.7150   -0.1138    1.8916 C.ar      1 RES1    0.0000
     16 H6         2.3788   -0.7005    2.1743 H         1 RES1    0.0000
     17 C11        1.9557    0.6621    0.7978 C.ar      1 RES1    0.0000
     18 C12        0.1799    3.3641   -1.1168 C.ar      1 RES1    0.0000
     19 H7         0.3180    3.8948   -1.8676 H         1 RES1    0.0000
     20 C13       -0.9162   -0.9219    4.3928 C.ar      1 RES1    0.0000
     21 H8        -1.0524   -1.5028    5.1059 H         1 RES1    0.0000
     22 C14       -1.9220   -0.0287    4.0132 C.ar      1 RES1    0.0000
     23 H9        -2.7317   -0.0229    4.4699 H         1 RES1    0.0000
     24 C15        3.2186    0.5473    0.0503 C.2       1 RES1    0.0000
     25 H10        3.5258    1.3082   -0.3876 H         1 RES1    0.0000
     26 C1B        6.2222   -1.6264   -0.3876 C.ar      1 RES1    0.0000
     27 C2B        7.6820   -0.8526   -2.2510 C.ar      1 RES1    0.0000
     28 C3B        7.4318   -1.7365   -1.1246 C.ar      1 RES1    0.0000
     29 C4B        6.9035    0.9377   -3.7128 C.ar      1 RES1    0.0000
     30 H1B        6.2354    1.5314   -3.9706 H         1 RES1    0.0000
     31 C5B        6.6767    0.0672   -2.6226 C.ar      1 RES1    0.0000
     32 C6B        8.8918   -0.8391   -2.9717 C.ar      1 RES1    0.0000
     33 H2B        9.5690   -1.4307   -2.7355 H         1 RES1    0.0000
     34 C7B        8.1594   -3.5017    0.3720 C.ar      1 RES1    0.0000
     35 H3B        8.7961   -4.1329    0.6182 H         1 RES1    0.0000
     36 C8B        8.3695   -2.7067   -0.7229 C.ar      1 RES1    0.0000
     37 H4B        9.1522   -2.8098   -1.2138 H         1 RES1    0.0000
     38 C9B        6.0473   -2.4479    0.7416 C.ar      1 RES1    0.0000
     39 H5B        5.2697   -2.3657    1.2459 H         1 RES1    0.0000
     40 C10B       5.4553    0.1138   -1.8916 C.ar      1 RES1    0.0000
     41 H6B        4.7915    0.7005   -2.1743 H         1 RES1    0.0000
     42 C11B       5.2146   -0.6621   -0.7978 C.ar      1 RES1    0.0000
     43 C12B       6.9904   -3.3641    1.1168 C.ar      1 RES1    0.0000
     44 H7B        6.8523   -3.8948    1.8676 H         1 RES1    0.0000
     45 C13B       8.0865    0.9219   -4.3928 C.ar      1 RES1    0.0000
     46 H8B        8.2227    1.5028   -5.1059 H         1 RES1    0.0000
     47 C14B       9.0923    0.0287   -4.0132 C.ar      1 RES1    0.0000
     48 H9B        9.9020    0.0229   -4.4699 H         1 RES1    0.0000
     49 C15B       3.9517   -0.5473   -0.0503 C.2       1 RES1    0.0000
     50 H10B       3.6445   -1.3082    0.3876 H         1 RES1    0.0000
@<TRIPOS>BOND
     1    1    3 ar
     2    2    3 ar
     3    3   11 ar
     4    4    5 1
     5    6    2 ar
     6    7    2 ar
     7    8    7 1
     8    9   10 1
     9   11    9 ar
    10   12   11 1
    11   13    1 ar
    12   14   13 1
    13   15    6 ar
    14   16   15 1
    15   17    1 ar
    16   18    9 ar
    17   19   18 1
    18   20    4 ar
    19   21   20 1
    20   22    7 ar
    21   23   22 1
    22   24   17 1
    23   25   24 1
    24   26   28 ar
    25   27   28 ar
    26   28   36 ar
    27   29   30 1
    28   31   27 ar
    29   32   27 ar
    30   33   32 1
    31   34   35 1
    32   36   34 ar
    33   37   36 1
    34   38   26 ar
    35   39   38 1
    36   40   31 ar
    37   41   40 1
    38   42   26 ar
    39   43   34 ar
    40   44   43 1
    41   45   29 ar
    42   46   45 1
    43   47   32 ar
    44   48   47 1
    45   49   24 2
    46   50   49 1
    47    4    6 ar
    48   13   18 ar
    49   15   17 ar
    50   20   22 ar
    51   29   31 ar
    52   38   43 ar
    53   40   42 ar
    54   42   49 1
    55   45   47 ar
@<TRIPOS>SUBSTRUCTURE
     1 RES1 1

@<TRIPOS>CRYSIN
   7.1703   11.4453   12.2814  90.0000 104.5390  90.0000 231 1

