# MOL2 file generated by ConQuest
# Please check atom types

@<TRIPOS>MOLECULE
KAMREV
   140   154     2
SMALL
NO_CHARGES
****
Generated from CSD

@<TRIPOS>ATOM
      1 C1         3.6229   12.4784    1.7544 C.3       1 RES1    0.0000
      2 C2         3.4697   13.4432    2.9802 C.3       1 RES1    0.0000
      3 C3         3.5083   12.6755    4.2767 C.ar      1 RES1    0.0000
      4 C4         4.6255   12.6895    5.0772 C.ar      1 RES1    0.0000
      5 C5         4.8721   11.6916    6.0551 C.ar      1 RES1    0.0000
      6 C6         6.0824   11.5828    6.7686 C.ar      1 RES1    0.0000
      7 C7         6.4374   10.4078    7.3831 C.ar      1 RES1    0.0000
      8 C8         5.5967    9.2684    7.3200 C.ar      1 RES1    0.0000
      9 C9         4.3290    9.4248    6.8371 C.ar      1 RES1    0.0000
     10 C10        3.9337   10.6271    6.1899 C.ar      1 RES1    0.0000
     11 C11        2.7015   10.7427    5.5014 C.ar      1 RES1    0.0000
     12 C12        2.4890   11.7267    4.5834 C.ar      1 RES1    0.0000
     13 C13        6.1503    7.8862    7.5745 C.3       1 RES1    0.0000
     14 C14        7.1925    7.4691    6.4640 C.3       1 RES1    0.0000
     15 C15        6.6887    7.9233    5.1110 C.ar      1 RES1    0.0000
     16 C16        7.1111    9.1231    4.5987 C.ar      1 RES1    0.0000
     17 C17        6.3892    9.8233    3.6045 C.ar      1 RES1    0.0000
     18 C18        6.8493   10.9838    2.9324 C.ar      1 RES1    0.0000
     19 C19        6.0506   11.7104    2.1068 C.ar      1 RES1    0.0000
     20 C20        4.6435   11.4197    2.0709 C.ar      1 RES1    0.0000
     21 C21        4.2319   10.1962    2.5517 C.ar      1 RES1    0.0000
     22 C22        5.1091    9.3385    3.2619 C.ar      1 RES1    0.0000
     23 C23        4.7813    8.0107    3.6437 C.ar      1 RES1    0.0000
     24 C24        5.5968    7.2665    4.4486 C.ar      1 RES1    0.0000
     25 C25        5.5040    5.7538    4.4127 C.3       1 RES1    0.0000
     26 C26        6.5448    5.1831    3.3935 C.3       1 RES1    0.0000
     27 C27        6.6281    6.0354    2.1579 C.ar      1 RES1    0.0000
     28 C28        7.7151    6.8627    1.9371 C.ar      1 RES1    0.0000
     29 C29        7.6644    7.9529    1.0322 C.ar      1 RES1    0.0000
     30 C30        8.6962    8.9174    0.9158 C.ar      1 RES1    0.0000
     31 C31        8.4585   10.1453    0.3622 C.ar      1 RES1    0.0000
     32 C32        7.1739   10.4790   -0.1381 C.ar      1 RES1    0.0000
     33 C33        6.2353    9.4906   -0.2404 C.ar      1 RES1    0.0000
     34 C34        6.4530    8.2027    0.3372 C.ar      1 RES1    0.0000
     35 C35        5.4139    7.2342    0.4166 C.ar      1 RES1    0.0000
     36 C36        5.5107    6.1917    1.2976 C.ar      1 RES1    0.0000
     37 C37        6.7742   11.9305   -0.2948 C.3       1 RES1    0.0000
     38 C38        6.6777   12.6477    1.0953 C.3       1 RES1    0.0000
     39 H1         3.8051   13.0531    0.9789 H         1 RES1    0.0000
     40 H2         2.7177   12.0721    1.5662 H         1 RES1    0.0000
     41 H3         2.5380   13.9702    2.8388 H         1 RES1    0.0000
     42 H4         4.1992   14.1888    2.9585 H         1 RES1    0.0000
     43 H5         5.3056   13.3191    4.9489 H         1 RES1    0.0000
     44 H6         6.7215   12.4009    6.6783 H         1 RES1    0.0000
     45 H7         7.3793   10.3722    7.8095 H         1 RES1    0.0000
     46 H8         3.6967    8.6374    6.8958 H         1 RES1    0.0000
     47 H9         1.9834    9.9516    5.6885 H         1 RES1    0.0000
     48 H10        1.6227   11.7296    3.9809 H         1 RES1    0.0000
     49 H11        6.5797    7.7829    8.4947 H         1 RES1    0.0000
     50 H12        5.3591    7.1383    7.5811 H         1 RES1    0.0000
     51 H13        8.0325    8.0235    6.6674 H         1 RES1    0.0000
     52 H14        7.3468    6.4222    6.4716 H         1 RES1    0.0000
     53 H15        7.9252    9.5499    5.0250 H         1 RES1    0.0000
     54 H16        7.8416   11.2072    3.0781 H         1 RES1    0.0000
     55 H17        3.2158    9.9412    2.4473 H         1 RES1    0.0000
     56 H18        3.9373    7.5389    3.2086 H         1 RES1    0.0000
     57 H19        4.4860    5.4765    4.1114 H         1 RES1    0.0000
     58 H20        5.7170    5.3932    5.3187 H         1 RES1    0.0000
     59 H21        6.2715    4.1498    3.1542 H         1 RES1    0.0000
     60 H22        7.4383    5.1458    3.8612 H         1 RES1    0.0000
     61 H23        8.4880    6.7273    2.6104 H         1 RES1    0.0000
     62 H24        9.5796    8.7142    1.3487 H         1 RES1    0.0000
     63 H25        9.2378   10.9236    0.3698 H         1 RES1    0.0000
     64 H26        5.3092    9.6439   -0.7287 H         1 RES1    0.0000
     65 H27        4.4900    7.4384   -0.2175 H         1 RES1    0.0000
     66 H28        4.6737    5.5753    1.4575 H         1 RES1    0.0000
     67 H29        5.8535   11.9656   -0.9463 H         1 RES1    0.0000
     68 H30        7.3518   12.4543   -0.9028 H         1 RES1    0.0000
     69 H31        6.1380   13.4760    0.9680 H         1 RES1    0.0000
     70 H32        7.5911   12.8057    1.4140 H         1 RES1    0.0000
     71 C39        8.1813   -3.2974    7.2852 C.3       2 RES2    0.0000
     72 C40        8.7110   -4.0660    8.5295 C.3       2 RES2    0.0000
     73 C41        8.2647   -3.4055    9.8195 C.ar      2 RES2    0.0000
     74 C42        9.1387   -2.6621   10.5819 C.ar      2 RES2    0.0000
     75 C43        8.6745   -1.7032   11.5217 C.ar      2 RES2    0.0000
     76 C44        9.5426   -0.7944   12.1765 C.ar      2 RES2    0.0000
     77 C45        9.0404    0.3530   12.7551 C.ar      2 RES2    0.0000
     78 C46        7.6574    0.6419   12.7279 C.ar      2 RES2    0.0000
     79 C47        6.8025   -0.3202   12.2885 C.ar      2 RES2    0.0000
     80 C48        7.2675   -1.5265   11.6794 C.ar      2 RES2    0.0000
     81 C49        6.3976   -2.4407   11.0464 C.ar      2 RES2    0.0000
     82 C50        6.8836   -3.3608   10.1480 C.ar      2 RES2    0.0000
     83 C51        7.1784    2.0639   12.9226 C.3       2 RES2    0.0000
     84 C52        7.6632    2.9947   11.7577 C.3       2 RES2    0.0000
     85 C53        7.5661    2.2643   10.4405 C.ar      2 RES2    0.0000
     86 C54        8.6674    1.6179    9.9283 C.ar      2 RES2    0.0000
     87 C55        8.5480    0.5888    8.9657 C.ar      2 RES2    0.0000
     88 C56        9.6490    0.0024    8.2815 C.ar      2 RES2    0.0000
     89 C57        9.5134   -1.1064    7.4940 C.ar      2 RES2    0.0000
     90 C58        8.2571   -1.8070    7.5245 C.ar      2 RES2    0.0000
     91 C59        7.1533   -1.1463    8.0140 C.ar      2 RES2    0.0000
     92 C60        7.2565    0.0999    8.6720 C.ar      2 RES2    0.0000
     93 C61        6.1541    0.8914    9.0483 C.ar      2 RES2    0.0000
     94 C62        6.2992    2.0257    9.8238 C.ar      2 RES2    0.0000
     95 C63        5.2247    3.0888    9.7901 C.3       2 RES2    0.0000
     96 C64        5.6329    4.1914    8.7373 C.3       2 RES2    0.0000
     97 C65        6.2331    3.5724    7.4973 C.ar      2 RES2    0.0000
     98 C66        7.5899    3.6466    7.2395 C.ar      2 RES2    0.0000
     99 C67        8.2360    2.7678    6.3313 C.ar      2 RES2    0.0000
    100 C68        9.6431    2.7089    6.1943 C.ar      2 RES2    0.0000
    101 C69       10.2445    1.6065    5.6461 C.ar      2 RES2    0.0000
    102 C70        9.4809    0.4954    5.2023 C.ar      2 RES2    0.0000
    103 C71        8.1168    0.6343    5.1186 C.ar      2 RES2    0.0000
    104 C72        7.4585    1.7669    5.6831 C.ar      2 RES2    0.0000
    105 C73        6.0400    1.8368    5.7940 C.ar      2 RES2    0.0000
    106 C74        5.4518    2.7153    6.6642 C.ar      2 RES2    0.0000
    107 C75       10.1244   -0.8622    5.0566 C.3       2 RES2    0.0000
    108 C76       10.5580   -1.4167    6.4521 C.3       2 RES2    0.0000
    109 H33        7.1792   -3.5783    7.0481 H         2 RES2    0.0000
    110 H34        8.6679   -3.5134    6.4825 H         2 RES2    0.0000
    111 H35        9.7484   -4.1636    8.5817 H         2 RES2    0.0000
    112 H36        8.3256   -5.0391    8.5382 H         2 RES2    0.0000
    113 H37       10.1307   -2.7365   10.4416 H         2 RES2    0.0000
    114 H38       10.5697   -0.9423   12.1166 H         2 RES2    0.0000
    115 H39        9.7707    1.1535   13.1282 H         2 RES2    0.0000
    116 H40        5.7977   -0.1147   12.3124 H         2 RES2    0.0000
    117 H41        5.2887   -2.3087   11.2139 H         2 RES2    0.0000
    118 H42        6.1329   -3.9983    9.5497 H         2 RES2    0.0000
    119 H43        7.5167    2.3586   13.8569 H         2 RES2    0.0000
    120 H44        6.1252    2.0454   12.9759 H         2 RES2    0.0000
    121 H45        7.0794    3.8713   11.7468 H         2 RES2    0.0000
    122 H46        8.6244    3.2016   11.9753 H         2 RES2    0.0000
    123 H47        9.6110    1.8646   10.3002 H         2 RES2    0.0000
    124 H48       10.5581    0.4800    8.3533 H         2 RES2    0.0000
    125 H49        6.2249   -1.6140    7.9509 H         2 RES2    0.0000
    126 H50        5.2149    0.7413    8.5926 H         2 RES2    0.0000
    127 H51        4.2217    2.6822    9.3540 H         2 RES2    0.0000
    128 H52        5.1209    3.4590   10.7897 H         2 RES2    0.0000
    129 H53        6.2907    4.8225    9.2017 H         2 RES2    0.0000
    130 H54        4.6977    4.7234    8.4947 H         2 RES2    0.0000
    131 H55        8.1747    4.2847    7.8530 H         2 RES2    0.0000
    132 H56       10.2009    3.4388    6.6130 H         2 RES2    0.0000
    133 H57       11.2906    1.4948    5.6776 H         2 RES2    0.0000
    134 H58        7.5402   -0.0947    4.7096 H         2 RES2    0.0000
    135 H59        5.4056    1.1516    5.1556 H         2 RES2    0.0000
    136 H60        4.3167    2.7303    6.8850 H         2 RES2    0.0000
    137 H61        9.3894   -1.4886    4.5573 H         2 RES2    0.0000
    138 H62       10.9301   -0.8429    4.4051 H         2 RES2    0.0000
    139 H63       11.4184   -1.0393    6.7544 H         2 RES2    0.0000
    140 H64       10.7556   -2.4363    6.4281 H         2 RES2    0.0000
@<TRIPOS>BOND
     1    1    2 1
     2    2    3 1
     3    3    4 ar
     4    4    5 ar
     5    5    6 ar
     6    6    7 ar
     7    7    8 ar
     8    8    9 ar
     9    9   10 ar
    10   10    5 ar
    11   11   10 ar
    12   12    3 ar
    13   13    8 1
    14   14   13 1
    15   15   14 1
    16   16   15 ar
    17   17   16 ar
    18   18   17 ar
    19   19   18 ar
    20   20    1 1
    21   21   20 ar
    22   22   17 ar
    23   23   22 ar
    24   24   15 ar
    25   25   24 1
    26   26   25 1
    27   27   26 1
    28   28   27 ar
    29   29   28 ar
    30   30   29 ar
    31   31   30 ar
    32   32   31 ar
    33   33   32 ar
    34   34   29 ar
    35   35   34 ar
    36   36   27 ar
    37   37   32 1
    38   38   19 1
    39   39    1 1
    40   40    1 1
    41   41    2 1
    42   42    2 1
    43   43    4 1
    44   44    6 1
    45   45    7 1
    46   46    9 1
    47   47   11 1
    48   48   12 1
    49   49   13 1
    50   50   13 1
    51   51   14 1
    52   52   14 1
    53   53   16 1
    54   54   18 1
    55   55   21 1
    56   56   23 1
    57   57   25 1
    58   58   25 1
    59   59   26 1
    60   60   26 1
    61   61   28 1
    62   62   30 1
    63   63   31 1
    64   64   33 1
    65   65   35 1
    66   66   36 1
    67   67   37 1
    68   68   37 1
    69   69   38 1
    70   70   38 1
    71   71   72 1
    72   72   73 1
    73   73   74 ar
    74   74   75 ar
    75   75   76 ar
    76   76   77 ar
    77   77   78 ar
    78   78   79 ar
    79   79   80 ar
    80   80   75 ar
    81   81   80 ar
    82   82   73 ar
    83   83   78 1
    84   84   83 1
    85   85   84 1
    86   86   85 ar
    87   87   86 ar
    88   88   87 ar
    89   89   88 ar
    90   90   71 1
    91   91   90 ar
    92   92   87 ar
    93   93   92 ar
    94   94   85 ar
    95   95   94 1
    96   96   95 1
    97   97   96 1
    98   98   97 ar
    99   99   98 ar
   100  100   99 ar
   101  101  100 ar
   102  102  101 ar
   103  103  102 ar
   104  104   99 ar
   105  105  104 ar
   106  106   97 ar
   107  107  102 1
   108  108   89 1
   109  109   71 1
   110  110   71 1
   111  111   72 1
   112  112   72 1
   113  113   74 1
   114  114   76 1
   115  115   77 1
   116  116   79 1
   117  117   81 1
   118  118   82 1
   119  119   83 1
   120  120   83 1
   121  121   84 1
   122  122   84 1
   123  123   86 1
   124  124   88 1
   125  125   91 1
   126  126   93 1
   127  127   95 1
   128  128   95 1
   129  129   96 1
   130  130   96 1
   131  131   98 1
   132  132  100 1
   133  133  101 1
   134  134  103 1
   135  135  105 1
   136  136  106 1
   137  137  107 1
   138  138  107 1
   139  139  108 1
   140  140  108 1
   141   11   12 ar
   142   19   20 ar
   143   21   22 ar
   144   23   24 ar
   145   33   34 ar
   146   35   36 ar
   147   37   38 1
   148   81   82 ar
   149   89   90 ar
   150   91   92 ar
   151   93   94 ar
   152  103  104 ar
   153  105  106 ar
   154  107  108 1
@<TRIPOS>SUBSTRUCTURE
     1 RES1 1
     2 RES2 71

@<TRIPOS>CRYSIN
  13.5150   18.7480   11.1430  90.3800 101.6200 110.3000   2 1

