# MOL2 file generated by ConQuest
# Please check atom types

@<TRIPOS>MOLECULE
KAQLAR
    45    49     1
SMALL
NO_CHARGES
****
Generated from CSD

@<TRIPOS>ATOM
      1 C1         0.3526    3.1025    3.7229 C.ar      1 RES1    0.0000
      2 C2         1.6468    3.7599    3.6970 C.ar      1 RES1    0.0000
      3 C3         2.6621    3.4200    4.5818 C.ar      1 RES1    0.0000
      4 H1         2.5100    2.7444    5.2312 H         1 RES1    0.0000
      5 C4         3.8977    4.0531    4.5323 C.ar      1 RES1    0.0000
      6 H2         4.5799    3.8094    5.1466 H         1 RES1    0.0000
      7 C5         4.1391    5.0344    3.5964 C.ar      1 RES1    0.0000
      8 H3         4.9865    5.4625    3.5820 H         1 RES1    0.0000
      9 C6         3.1669    5.4136    2.6689 C.ar      1 RES1    0.0000
     10 C7         3.3852    6.4274    1.6759 C.ar      1 RES1    0.0000
     11 H4         4.2335    6.8522    1.6256 H         1 RES1    0.0000
     12 C8         2.4126    6.7908    0.8109 C.ar      1 RES1    0.0000
     13 H5         2.5911    7.4696    0.1707 H         1 RES1    0.0000
     14 C9         1.1145    6.1758    0.8368 C.ar      1 RES1    0.0000
     15 C10        0.1064    6.5058   -0.0564 C.ar      1 RES1    0.0000
     16 H6         0.2583    7.1887   -0.6973 H         1 RES1    0.0000
     17 C11       -1.1160    5.8586   -0.0320 C.ar      1 RES1    0.0000
     18 H7        -1.7884    6.0915   -0.6608 H         1 RES1    0.0000
     19 C12       -1.3598    4.8712    0.9062 C.ar      1 RES1    0.0000
     20 H8        -2.2054    4.4384    0.9199 H         1 RES1    0.0000
     21 C13       -0.3830    4.5008    1.8359 C.ar      1 RES1    0.0000
     22 C14       -0.5976    3.4823    2.8175 C.ar      1 RES1    0.0000
     23 H9        -1.4426    3.0487    2.8419 H         1 RES1    0.0000
     24 C15        1.9022    4.7866    2.7200 C.ar      1 RES1    0.0000
     25 C16        0.8764    5.1506    1.8039 C.ar      1 RES1    0.0000
     26 C17        0.0635    2.0249    4.7167 C.ar      1 RES1    0.0000
     27 C18        0.2417    0.6849    4.3662 C.ar      1 RES1    0.0000
     28 C19       -0.0624   -0.3016    5.2967 C.ar      1 RES1    0.0000
     29 H10        0.0832   -1.2113    5.0650 H         1 RES1    0.0000
     30 C20       -0.5721   -0.0053    6.5534 C.ar      1 RES1    0.0000
     31 C21       -0.7323    1.3374    6.8789 C.ar      1 RES1    0.0000
     32 H11       -1.0757    1.5624    7.7355 H         1 RES1    0.0000
     33 C22       -0.4080    2.3611    5.9986 C.ar      1 RES1    0.0000
     34 C23        0.7621    0.2978    3.0035 C.3       1 RES1    0.0000
     35 H12        0.1282    0.5910    2.3161 H         1 RES1    0.0000
     36 H13        0.8666   -0.6759    2.9578 H         1 RES1    0.0000
     37 H14        1.6304    0.7256    2.8518 H         1 RES1    0.0000
     38 C24       -0.9288   -1.0983    7.5404 C.3       1 RES1    0.0000
     39 H15       -0.5235   -0.8982    8.4100 H         1 RES1    0.0000
     40 H16       -0.5910   -1.9574    7.2119 H         1 RES1    0.0000
     41 H17       -1.9033   -1.1440    7.6372 H         1 RES1    0.0000
     42 C25       -0.5422    3.7965    6.4391 C.3       1 RES1    0.0000
     43 H18       -1.0728    3.8386    7.2615 H         1 RES1    0.0000
     44 H19       -0.9870    4.3126    5.7357 H         1 RES1    0.0000
     45 H20        0.3482    4.1722    6.6060 H         1 RES1    0.0000
@<TRIPOS>BOND
     1    1    2 ar
     2    2    3 ar
     3    3    4 1
     4    5    3 ar
     5    6    5 1
     6    7    5 ar
     7    8    7 1
     8    9    7 ar
     9   10    9 ar
    10   11   10 1
    11   12   10 ar
    12   13   12 1
    13   14   12 ar
    14   15   14 ar
    15   16   15 1
    16   17   15 ar
    17   18   17 1
    18   19   17 ar
    19   20   19 1
    20   21   19 ar
    21   22    1 ar
    22   23   22 1
    23   24    2 ar
    24   25   14 ar
    25   26    1 1
    26   27   26 ar
    27   28   27 ar
    28   29   28 1
    29   30   28 ar
    30   31   30 ar
    31   32   31 1
    32   33   26 ar
    33   34   27 1
    34   35   34 1
    35   36   34 1
    36   37   34 1
    37   38   30 1
    38   39   38 1
    39   40   38 1
    40   41   38 1
    41   42   33 1
    42   43   42 1
    43   44   42 1
    44   45   42 1
    45    9   24 ar
    46   21   22 ar
    47   21   25 ar
    48   24   25 ar
    49   31   33 ar
@<TRIPOS>SUBSTRUCTURE
     1 RES1 1

@<TRIPOS>CRYSIN
   7.9100   29.2580    8.2080  90.0000 111.7970  90.0000  14 1

