# MOL2 file generated by ConQuest
# Please check atom types

@<TRIPOS>MOLECULE
KAQLEV
    48    54     1
SMALL
NO_CHARGES
****
Generated from CSD

@<TRIPOS>ATOM
      1 C1         3.0381    7.0187    3.0657 C.ar      1 RES1    0.0000
      2 C2         2.0907   10.2736    8.7079 C.ar      1 RES1    0.0000
      3 C3         2.6123   11.1299    7.7300 C.ar      1 RES1    0.0000
      4 H1         2.7656   12.0396    7.9526 H         1 RES1    0.0000
      5 C4         3.4011   11.5989    5.4078 C.ar      1 RES1    0.0000
      6 C5         2.1802    8.4790    7.0753 C.ar      1 RES1    0.0000
      7 H2         2.0227    7.5704    6.8510 H         1 RES1    0.0000
      8 C6         2.6135    7.9854    2.0678 C.ar      1 RES1    0.0000
      9 C7         3.8646   12.8990    5.7204 C.ar      1 RES1    0.0000
     10 H3         3.8327   13.1969    6.6214 H         1 RES1    0.0000
     11 C8         2.9128   10.6960    6.4456 C.ar      1 RES1    0.0000
     12 C9         1.8392    8.9254    8.3687 C.ar      1 RES1    0.0000
     13 C10        2.2591   10.2704    1.3673 C.ar      1 RES1    0.0000
     14 H4         2.2933   11.2034    1.5434 H         1 RES1    0.0000
     15 C11        3.0366    9.7994    3.7276 C.ar      1 RES1    0.0000
     16 C12        2.7376    9.3154    6.1172 C.ar      1 RES1    0.0000
     17 C13        3.4223   11.1761    4.0664 C.ar      1 RES1    0.0000
     18 C14        2.9798    8.8585    4.7451 C.ar      1 RES1    0.0000
     19 C15        3.8053    4.8027    3.6794 C.ar      1 RES1    0.0000
     20 H5         4.0054    3.9070    3.4322 H         1 RES1    0.0000
     21 C16        3.1790    7.4511    4.4088 C.ar      1 RES1    0.0000
     22 C17        3.6768    6.5171    5.3482 C.ar      1 RES1    0.0000
     23 H6         3.8038    6.7895    6.2490 H         1 RES1    0.0000
     24 C18        3.9679   12.0477    3.1124 C.ar      1 RES1    0.0000
     25 H7         4.0228   11.7620    2.2071 H         1 RES1    0.0000
     26 C19        3.3403    5.6909    2.7485 C.ar      1 RES1    0.0000
     27 H8         3.2186    5.3951    1.8541 H         1 RES1    0.0000
     28 C20        2.6918    9.3627    2.3673 C.ar      1 RES1    0.0000
     29 C21        1.7912    9.8355    0.1486 C.ar      1 RES1    0.0000
     30 H9         1.5074   10.4674   -0.5016 H         1 RES1    0.0000
     31 C22        2.1359    7.5794    0.8153 C.ar      1 RES1    0.0000
     32 H10        2.0901    6.6510    0.6174 H         1 RES1    0.0000
     33 C23        1.2423    8.0652    9.3245 C.ar      1 RES1    0.0000
     34 H11        1.0482    7.1646    9.0947 H         1 RES1    0.0000
     35 C24        4.3569   13.7359    4.7604 C.ar      1 RES1    0.0000
     36 H12        4.6493   14.6093    4.9930 H         1 RES1    0.0000
     37 C25        1.7771   10.7134   10.0308 C.ar      1 RES1    0.0000
     38 H13        1.9596   11.6106   10.2832 H         1 RES1    0.0000
     39 C26        1.2187    9.8580   10.9349 C.ar      1 RES1    0.0000
     40 H14        1.0147   10.1646   11.8112 H         1 RES1    0.0000
     41 C27        1.7310    8.4854   -0.1349 C.ar      1 RES1    0.0000
     42 H15        1.4132    8.1857   -0.9782 H         1 RES1    0.0000
     43 C28        3.9811    5.2267    4.9917 C.ar      1 RES1    0.0000
     44 H16        4.3130    4.6210    5.6432 H         1 RES1    0.0000
     45 C29        4.4275   13.3044    3.4419 C.ar      1 RES1    0.0000
     46 H17        4.7900   13.8720    2.7724 H         1 RES1    0.0000
     47 C30        0.9444    8.5283   10.5776 C.ar      1 RES1    0.0000
     48 H18        0.5478    7.9431   11.2131 H         1 RES1    0.0000
@<TRIPOS>BOND
     1    1    8 ar
     2    2    3 ar
     3    3    4 1
     4    5    9 ar
     5    6    7 1
     6    8   28 ar
     7    9   10 1
     8   11    3 ar
     9   12    2 ar
    10   13   14 1
    11   15   17 ar
    12   16    6 ar
    13   17    5 ar
    14   18   15 ar
    15   19   20 1
    16   21    1 ar
    17   22   21 ar
    18   23   22 1
    19   24   17 ar
    20   25   24 1
    21   26    1 ar
    22   27   26 1
    23   28   13 ar
    24   29   13 ar
    25   30   29 1
    26   31    8 ar
    27   32   31 1
    28   33   12 ar
    29   34   33 1
    30   35    9 ar
    31   36   35 1
    32   37    2 ar
    33   38   37 1
    34   39   37 ar
    35   40   39 1
    36   41   29 ar
    37   42   41 1
    38   43   19 ar
    39   44   43 1
    40   45   24 ar
    41   46   45 1
    42   47   33 ar
    43   48   47 1
    44    5   11 ar
    45    6   12 ar
    46   11   16 ar
    47   15   28 ar
    48   16   18 ar
    49   18   21 ar
    50   19   26 ar
    51   22   43 ar
    52   31   41 ar
    53   35   45 ar
    54   39   47 ar
@<TRIPOS>SUBSTRUCTURE
     1 RES1 1

@<TRIPOS>CRYSIN
   3.9020   12.1530   19.4000  85.5470  85.1340  78.2350   2 1

