# MOL2 file generated by ConQuest
# Please check atom types

@<TRIPOS>MOLECULE
KAYHUQ
    48    54     1
SMALL
NO_CHARGES
****
Generated from CSD

@<TRIPOS>ATOM
      1 C1        21.4881   -1.3397    6.8343 C.2       1 RES1    0.0000
      2 C2        21.5738   -2.5356    6.0932 C.2       1 RES1    0.0000
      3 C3        20.5760   -3.3193    5.5638 C.2       1 RES1    0.0000
      4 C4        19.1835   -3.1100    5.5604 C.2       1 RES1    0.0000
      5 C5        18.4816   -2.0515    6.1189 C.2       1 RES1    0.0000
      6 C6        18.9704   -0.9599    6.8584 C.2       1 RES1    0.0000
      7 C7        18.1405    0.0293    7.3788 C.2       1 RES1    0.0000
      8 C8        18.9452    0.9536    8.0747 C.ar      1 RES1    0.0000
      9 C9        18.5295    2.1374    8.7485 C.ar      1 RES1    0.0000
     10 C10       17.2280    2.6476    8.9001 C.2       1 RES1    0.0000
     11 C11       17.2973    3.8301    9.6227 C.2       1 RES1    0.0000
     12 C12       16.1724    4.5878    9.9787 C.2       1 RES1    0.0000
     13 C13       16.0962    5.7742   10.6912 C.2       1 RES1    0.0000
     14 C14       17.1438    6.5337   11.2172 C.2       1 RES1    0.0000
     15 C15       18.5012    6.2862   11.1633 C.2       1 RES1    0.0000
     16 C16       19.2158    5.2074   10.5963 C.2       1 RES1    0.0000
     17 C17       18.7388    4.0903    9.9290 C.2       1 RES1    0.0000
     18 C18       19.4792    2.9968    9.3713 C.ar      1 RES1    0.0000
     19 C19       20.8881    2.6317    9.3555 C.ar      1 RES1    0.0000
     20 C20       21.8745    3.4332    9.9329 C.ar      1 RES1    0.0000
     21 C21       23.2371    3.0852    9.9542 C.ar      1 RES1    0.0000
     22 C22       24.2233    3.9408   10.5280 C.ar      1 RES1    0.0000
     23 C23       25.5381    3.5611   10.5603 C.ar      1 RES1    0.0000
     24 C24       25.9266    2.3079   10.0212 C.ar      1 RES1    0.0000
     25 C25       25.0041    1.4606    9.4792 C.ar      1 RES1    0.0000
     26 C26       23.6283    1.8314    9.4170 C.ar      1 RES1    0.0000
     27 C27       22.6410    1.0134    8.8274 C.ar      1 RES1    0.0000
     28 C28       21.3069    1.3791    8.7302 C.ar      1 RES1    0.0000
     29 C29       20.3083    0.5732    8.0335 C.ar      1 RES1    0.0000
     30 C30       20.3718   -0.6323    7.2381 C.2       1 RES1    0.0000
     31 H1        22.3870   -0.9924    7.0888 H         1 RES1    0.0000
     32 H2        22.5474   -2.8499    5.8844 H         1 RES1    0.0000
     33 H3        20.8428   -4.1794    5.1247 H         1 RES1    0.0000
     34 H4        18.6690   -3.8168    5.0826 H         1 RES1    0.0000
     35 H5        17.4457   -2.0611    5.9796 H         1 RES1    0.0000
     36 H6        17.0618    0.0891    7.2947 H         1 RES1    0.0000
     37 H7        16.3910    2.2010    8.5146 H         1 RES1    0.0000
     38 H8        15.2513    4.1539    9.6628 H         1 RES1    0.0000
     39 H9        15.1428    6.1514   10.8204 H         1 RES1    0.0000
     40 H10       16.8919    7.3918   11.6987 H         1 RES1    0.0000
     41 H11       19.1118    7.0229   11.6019 H         1 RES1    0.0000
     42 H12       20.2351    5.2926   10.6425 H         1 RES1    0.0000
     43 H13       21.6995    4.3957   10.3586 H         1 RES1    0.0000
     44 H14       23.9354    4.8282   10.8438 H         1 RES1    0.0000
     45 H15       26.2069    4.2112   10.9545 H         1 RES1    0.0000
     46 H16       26.9341    2.0483   10.0560 H         1 RES1    0.0000
     47 H17       25.2950    0.5471    9.1168 H         1 RES1    0.0000
     48 H18       22.9302    0.0700    8.5365 H         1 RES1    0.0000
@<TRIPOS>BOND
     1    1    2 1
     2    2    3 2
     3    3    4 1
     4    4    5 2
     5    5    6 1
     6    6    7 2
     7    7    8 1
     8    8    9 ar
     9    9   10 1
    10   10   11 2
    11   11   12 1
    12   12   13 2
    13   13   14 1
    14   14   15 2
    15   15   16 1
    16   16   17 2
    17   17   11 1
    18   18    9 ar
    19   19   18 ar
    20   20   19 ar
    21   21   20 ar
    22   22   21 ar
    23   23   22 ar
    24   24   23 ar
    25   25   24 ar
    26   26   21 ar
    27   27   26 ar
    28   28   19 ar
    29   29    8 ar
    30   30    1 2
    31   31    1 1
    32   32    2 1
    33   33    3 1
    34   34    4 1
    35   35    5 1
    36   36    7 1
    37   37   10 1
    38   38   12 1
    39   39   13 1
    40   40   14 1
    41   41   15 1
    42   42   16 1
    43   43   20 1
    44   44   22 1
    45   45   23 1
    46   46   24 1
    47   47   25 1
    48   48   27 1
    49    6   30 1
    50   17   18 1
    51   25   26 ar
    52   27   28 ar
    53   28   29 ar
    54   29   30 1
@<TRIPOS>SUBSTRUCTURE
     1 RES1 1

@<TRIPOS>CRYSIN
  37.6300    6.3613   16.7240  90.0000 111.1230  90.0000  15 1

