# MOL2 file generated by ConQuest
# Please check atom types

@<TRIPOS>MOLECULE
KAYHOK
    48    54     1
SMALL
NO_CHARGES
****
Generated from CSD

@<TRIPOS>ATOM
      1 C1        20.2733    4.9750    0.9059 C.ar      1 RES1    0.0000
      2 C2        20.8751    5.8057    1.7704 C.ar      1 RES1    0.0000
      3 C3        22.1723    5.5174    2.2857 C.ar      1 RES1    0.0000
      4 C4        22.8283    6.4690    3.1105 C.ar      1 RES1    0.0000
      5 C5        24.1275    6.3317    3.4645 C.ar      1 RES1    0.0000
      6 C6        24.8509    5.2266    2.9531 C.ar      1 RES1    0.0000
      7 C7        26.2673    4.9989    2.9531 C.2       1 RES1    0.0000
      8 C8        27.2030    5.7832    3.5650 C.2       1 RES1    0.0000
      9 C9        28.6047    5.6413    3.5869 C.2       1 RES1    0.0000
     10 C10       29.3674    4.6962    2.9648 C.2       1 RES1    0.0000
     11 C11       28.9838    3.6061    2.1485 C.2       1 RES1    0.0000
     12 C12       27.7224    3.2147    1.7736 C.2       1 RES1    0.0000
     13 C13       26.4850    3.7874    2.1088 C.2       1 RES1    0.0000
     14 C14       25.2410    3.3510    1.6894 C.2       1 RES1    0.0000
     15 C15       24.2122    4.2097    2.2008 C.ar      1 RES1    0.0000
     16 C16       22.8087    4.2897    1.9271 C.ar      1 RES1    0.0000
     17 C17       22.0338    3.2897    1.2232 C.ar      1 RES1    0.0000
     18 C18       22.3152    1.8833    1.2006 C.ar      1 RES1    0.0000
     19 C19       23.2284    1.0768    1.9552 C.2       1 RES1    0.0000
     20 C20       23.0119   -0.2595    1.6862 C.2       1 RES1    0.0000
     21 C21       23.6618   -1.3415    2.2881 C.2       1 RES1    0.0000
     22 C22       23.5027   -2.6846    2.0628 C.2       1 RES1    0.0000
     23 C23       22.6377   -3.3297    1.1686 C.2       1 RES1    0.0000
     24 C24       21.6965   -2.8127    0.3368 C.2       1 RES1    0.0000
     25 C25       21.3507   -1.4601    0.1349 C.2       1 RES1    0.0000
     26 C26       21.9014   -0.3421    0.6946 C.2       1 RES1    0.0000
     27 C27       21.4952    1.0084    0.4467 C.ar      1 RES1    0.0000
     28 C28       20.3965    1.4841   -0.2962 C.ar      1 RES1    0.0000
     29 C29       20.0600    2.7906   -0.1879 C.ar      1 RES1    0.0000
     30 C30       20.8009    3.6887    0.6237 C.ar      1 RES1    0.0000
     31 H1        19.3820    5.1428    0.4989 H         1 RES1    0.0000
     32 H2        20.4946    6.6861    2.0503 H         1 RES1    0.0000
     33 H3        22.2699    7.3094    3.3756 H         1 RES1    0.0000
     34 H4        24.5416    7.0092    4.0382 H         1 RES1    0.0000
     35 H5        26.8081    6.5682    4.1084 H         1 RES1    0.0000
     36 H6        29.1063    6.2984    4.1162 H         1 RES1    0.0000
     37 H7        30.3188    4.7539    3.1339 H         1 RES1    0.0000
     38 H8        29.6819    3.0130    1.8086 H         1 RES1    0.0000
     39 H9        27.6828    2.3833    1.1538 H         1 RES1    0.0000
     40 H10       25.1358    2.5391    1.1148 H         1 RES1    0.0000
     41 H11       23.9114    1.4495    2.6428 H         1 RES1    0.0000
     42 H12       24.3602   -1.0656    3.0014 H         1 RES1    0.0000
     43 H13       24.0799   -3.3158    2.6194 H         1 RES1    0.0000
     44 H14       22.7065   -4.2863    1.1148 H         1 RES1    0.0000
     45 H15       21.1857   -3.3994   -0.2261 H         1 RES1    0.0000
     46 H16       20.6053   -1.2467   -0.4989 H         1 RES1    0.0000
     47 H17       19.8449    0.8565   -0.8419 H         1 RES1    0.0000
     48 H18       19.2301    3.1574   -0.6081 H         1 RES1    0.0000
@<TRIPOS>BOND
     1    1    2 ar
     2    2    3 ar
     3    3    4 ar
     4    4    5 ar
     5    5    6 ar
     6    6    7 1
     7    7    8 2
     8    8    9 1
     9    9   10 2
    10   10   11 1
    11   11   12 2
    12   12   13 1
    13   13    7 1
    14   14   13 2
    15   15    6 ar
    16   16    3 ar
    17   17   16 ar
    18   18   17 ar
    19   19   18 1
    20   20   19 2
    21   21   20 1
    22   22   21 2
    23   23   22 1
    24   24   23 2
    25   25   24 1
    26   26   20 1
    27   27   18 ar
    28   28   27 ar
    29   29   28 ar
    30   30    1 ar
    31   31    1 1
    32   32    2 1
    33   33    4 1
    34   34    5 1
    35   35    8 1
    36   36    9 1
    37   37   10 1
    38   38   11 1
    39   39   12 1
    40   40   14 1
    41   41   19 1
    42   42   21 1
    43   43   22 1
    44   44   23 1
    45   45   24 1
    46   46   25 1
    47   47   28 1
    48   48   29 1
    49   14   15 1
    50   15   16 ar
    51   17   30 ar
    52   25   26 2
    53   26   27 1
    54   29   30 ar
@<TRIPOS>SUBSTRUCTURE
     1 RES1 1

@<TRIPOS>CRYSIN
  38.0759   12.6702    7.9552  90.0000 101.4880  90.0000  15 1

