# MOL2 file generated by ConQuest
# Please check atom types

@<TRIPOS>MOLECULE
KEDJOS
    30    32     1
SMALL
NO_CHARGES
****
Generated from CSD

@<TRIPOS>ATOM
      1 C1        11.1362    0.0627    4.0351 C.ar      1 RES1    0.0000
      2 C2        12.0912    0.9708    3.6519 C.ar      1 RES1    0.0000
      3 C3        11.8131    1.9198    2.6908 C.ar      1 RES1    0.0000
      4 C4        10.5773    1.9471    2.1131 C.ar      1 RES1    0.0000
      5 C5         7.9341    1.9689    0.8163 C.ar      1 RES1    0.0000
      6 C6         6.6946    1.9853    0.2352 C.ar      1 RES1    0.0000
      7 C7         5.7346    1.0799    0.6524 C.ar      1 RES1    0.0000
      8 C8         6.0146    0.1909    1.6382 C.ar      1 RES1    0.0000
      9 C9         7.5749   -0.8345    3.3025 C.ar      1 RES1    0.0000
     10 C10        8.8065   -0.8890    3.8678 C.ar      1 RES1    0.0000
     11 C11        9.8355    0.0654    3.4551 C.ar      1 RES1    0.0000
     12 C12        9.5733    1.0308    2.4602 C.ar      1 RES1    0.0000
     13 C13        8.2689    1.0417    1.8406 C.ar      1 RES1    0.0000
     14 C14        7.2829    0.1309    2.2601 C.ar      1 RES1    0.0000
     15 C15        6.4686   -1.7616    3.7366 C.3       1 RES1    0.0000
     16 C16        9.1537   -1.8871    4.9294 C.3       1 RES1    0.0000
     17 H1        11.3137   -0.6654    4.6581 H         1 RES1    0.0000
     18 H2        12.9537    0.9272    4.1154 H         1 RES1    0.0000
     19 H3        12.4719    2.5907    2.4308 H         1 RES1    0.0000
     20 H4        10.4252    2.6506    1.4585 H         1 RES1    0.0000
     21 H5         8.5980    2.6288    0.5540 H         1 RES1    0.0000
     22 H6         6.5135    2.5743   -0.5201 H         1 RES1    0.0000
     23 H7         4.8610    1.0308    0.2148 H         1 RES1    0.0000
     24 H8         5.3491   -0.4690    1.9107 H         1 RES1    0.0000
     25 H9         6.2243   -2.4434    3.0866 H         1 RES1    0.0000
     26 H10        6.6300   -2.2089    4.5337 H         1 RES1    0.0000
     27 H11        5.6325   -1.3253    3.9458 H         1 RES1    0.0000
     28 H12        9.9947   -2.4379    4.7259 H         1 RES1    0.0000
     29 H13        8.4658   -2.4270    5.1895 H         1 RES1    0.0000
     30 H14        9.3900   -1.4944    5.7435 H         1 RES1    0.0000
@<TRIPOS>BOND
     1    1    2 ar
     2    2    3 ar
     3    3    4 ar
     4    4   12 ar
     5    5    6 ar
     6    6    7 ar
     7    7    8 ar
     8    8   14 ar
     9    9   10 ar
    10   10   11 ar
    11   11    1 ar
    12   12   11 ar
    13   13    5 ar
    14   14    9 ar
    15   15    9 1
    16   16   10 1
    17   17    1 1
    18   18    2 1
    19   19    3 1
    20   20    4 1
    21   21    5 1
    22   22    6 1
    23   23    7 1
    24   24    8 1
    25   25   15 1
    26   26   15 1
    27   27   15 1
    28   28   16 1
    29   29   16 1
    30   30   16 1
    31   12   13 ar
    32   13   14 ar
@<TRIPOS>SUBSTRUCTURE
     1 RES1 1

@<TRIPOS>CRYSIN
   9.1030    5.4540   11.6660  90.0000 104.2700  90.0000   4 1

