# MOL2 file generated by ConQuest
# Please check atom types

@<TRIPOS>MOLECULE
KEDQUI
    70    81     1
SMALL
NO_CHARGES
****
Generated from CSD

@<TRIPOS>ATOM
      1 C1        -2.9189    0.1099    4.7173 C.ar      1 RES1    0.0000
      2 C2        -2.0060   -0.1750    3.6154 C.ar      1 RES1    0.0000
      3 C3        -2.4687   -0.7316    2.4100 C.ar      1 RES1    0.0000
      4 H1        -3.3806   -0.8665    2.2855 H         1 RES1    0.0000
      5 C4        -1.5862   -1.0793    1.4142 C.ar      1 RES1    0.0000
      6 H2        -1.9085   -1.4722    0.6352 H         1 RES1    0.0000
      7 C5        -0.2380   -0.8555    1.5516 C.ar      1 RES1    0.0000
      8 H3         0.3382   -1.0664    0.8520 H         1 RES1    0.0000
      9 C6         0.2734   -0.3165    2.7233 C.ar      1 RES1    0.0000
     10 C7        -0.6022   -0.0452    3.7856 C.ar      1 RES1    0.0000
     11 C8        -0.0973    0.3668    5.0817 C.ar      1 RES1    0.0000
     12 C9        -0.9677    0.4046    6.1955 C.ar      1 RES1    0.0000
     13 C10       -0.4606    0.8641    7.4145 C.ar      1 RES1    0.0000
     14 H4        -1.0262    0.9195    8.1527 H         1 RES1    0.0000
     15 C11        0.8577    1.2360    7.5432 C.ar      1 RES1    0.0000
     16 H5         1.1715    1.5564    8.3587 H         1 RES1    0.0000
     17 C12        1.7099    1.1370    6.4809 C.ar      1 RES1    0.0000
     18 H6         2.6052    1.3630    6.5990 H         1 RES1    0.0000
     19 C13        1.2783    0.7067    5.2212 C.ar      1 RES1    0.0000
     20 C14        2.1929    0.5811    4.0924 C.ar      1 RES1    0.0000
     21 C15        1.7029    0.0019    2.8628 C.ar      1 RES1    0.0000
     22 C16        2.5877   -0.1641    1.8155 C.ar      1 RES1    0.0000
     23 H7         2.2750   -0.5519    1.0301 H         1 RES1    0.0000
     24 C17        3.9345    0.2226    1.8756 C.ar      1 RES1    0.0000
     25 C18        4.4037    0.8138    3.0860 C.ar      1 RES1    0.0000
     26 C19        3.5164    0.9697    4.1525 C.ar      1 RES1    0.0000
     27 H8         3.8293    1.3529    4.9401 H         1 RES1    0.0000
     28 C20        5.7661    1.2243    3.1418 C.ar      1 RES1    0.0000
     29 H9         6.0952    1.6035    3.9250 H         1 RES1    0.0000
     30 C21        6.5934    1.0754    2.0816 C.ar      1 RES1    0.0000
     31 H10        7.4789    1.3502    2.1439 H         1 RES1    0.0000
     32 C22        6.1258    0.5110    0.8906 C.ar      1 RES1    0.0000
     33 H11        6.6980    0.4229    0.1610 H         1 RES1    0.0000
     34 C23        4.8353    0.0900    0.7940 C.ar      1 RES1    0.0000
     35 H12        4.5387   -0.2923    0.0000 H         1 RES1    0.0000
     36 C1A       -2.3959    0.1099    6.0127 C.ar      1 RES1    0.0000
     37 C2A       -3.3087   -0.1750    7.1147 C.ar      1 RES1    0.0000
     38 C3A       -2.8460   -0.7316    8.3201 C.ar      1 RES1    0.0000
     39 H1A       -1.9341   -0.8665    8.4445 H         1 RES1    0.0000
     40 C4A       -3.7286   -1.0793    9.3158 C.ar      1 RES1    0.0000
     41 H2A       -3.4063   -1.4722   10.0948 H         1 RES1    0.0000
     42 C5A       -5.0768   -0.8555    9.1785 C.ar      1 RES1    0.0000
     43 H3A       -5.6530   -1.0664    9.8781 H         1 RES1    0.0000
     44 C6A       -5.5881   -0.3165    8.0067 C.ar      1 RES1    0.0000
     45 C7A       -4.7125   -0.0452    6.9445 C.ar      1 RES1    0.0000
     46 C8A       -5.2175    0.3668    5.6483 C.ar      1 RES1    0.0000
     47 C9A       -4.3470    0.4046    4.5345 C.ar      1 RES1    0.0000
     48 C10A      -4.8542    0.8641    3.3156 C.ar      1 RES1    0.0000
     49 H4A       -4.2886    0.9195    2.5774 H         1 RES1    0.0000
     50 C11A      -6.1724    1.2360    3.1868 C.ar      1 RES1    0.0000
     51 H5A       -6.4862    1.5564    2.3713 H         1 RES1    0.0000
     52 C12A      -7.0247    1.1370    4.2491 C.ar      1 RES1    0.0000
     53 H6A       -7.9200    1.3630    4.1311 H         1 RES1    0.0000
     54 C13A      -6.5930    0.7067    5.5088 C.ar      1 RES1    0.0000
     55 C14A      -7.5077    0.5811    6.6376 C.ar      1 RES1    0.0000
     56 C15A      -7.0177    0.0019    7.8673 C.ar      1 RES1    0.0000
     57 C16A      -7.9024   -0.1641    8.9145 C.ar      1 RES1    0.0000
     58 H7A       -7.5897   -0.5519    9.6999 H         1 RES1    0.0000
     59 C17A      -9.2493    0.2226    8.8544 C.ar      1 RES1    0.0000
     60 C18A      -9.7185    0.8138    7.6441 C.ar      1 RES1    0.0000
     61 C19A      -8.8312    0.9697    6.5775 C.ar      1 RES1    0.0000
     62 H8A       -9.1441    1.3529    5.7899 H         1 RES1    0.0000
     63 C20A     -11.0809    1.2243    7.5883 C.ar      1 RES1    0.0000
     64 H9A      -11.4100    1.6035    6.8050 H         1 RES1    0.0000
     65 C21A     -11.9081    1.0754    8.6484 C.ar      1 RES1    0.0000
     66 H10A     -12.7937    1.3502    8.5862 H         1 RES1    0.0000
     67 C22A     -11.4405    0.5110    9.8394 C.ar      1 RES1    0.0000
     68 H11A     -12.0128    0.4229   10.5691 H         1 RES1    0.0000
     69 C23A     -10.1501    0.0900    9.9360 C.ar      1 RES1    0.0000
     70 H12A      -9.8535   -0.2923   10.7300 H         1 RES1    0.0000
@<TRIPOS>BOND
     1    1    2 ar
     2    2    3 ar
     3    3    4 1
     4    5    3 ar
     5    6    5 1
     6    7    5 ar
     7    8    7 1
     8    9    7 ar
     9   10    2 ar
    10   11   10 ar
    11   12   11 ar
    12   13   12 ar
    13   14   13 1
    14   15   13 ar
    15   16   15 1
    16   17   15 ar
    17   18   17 1
    18   19   11 ar
    19   20   19 ar
    20   21    9 ar
    21   22   21 ar
    22   23   22 1
    23   24   22 ar
    24   25   24 ar
    25   26   20 ar
    26   27   26 1
    27   28   25 ar
    28   29   28 1
    29   30   28 ar
    30   31   30 1
    31   32   30 ar
    32   33   32 1
    33   34   24 ar
    34   35   34 1
    35   36    1 ar
    36   37   36 ar
    37   38   37 ar
    38   39   38 1
    39   40   38 ar
    40   41   40 1
    41   42   40 ar
    42   43   42 1
    43   44   42 ar
    44   45   37 ar
    45   46   45 ar
    46   47    1 ar
    47   48   47 ar
    48   49   48 1
    49   50   48 ar
    50   51   50 1
    51   52   50 ar
    52   53   52 1
    53   54   46 ar
    54   55   54 ar
    55   56   44 ar
    56   57   56 ar
    57   58   57 1
    58   59   57 ar
    59   60   59 ar
    60   61   55 ar
    61   62   61 1
    62   63   60 ar
    63   64   63 1
    64   65   63 ar
    65   66   65 1
    66   67   65 ar
    67   68   67 1
    68   69   59 ar
    69   70   69 1
    70    9   10 ar
    71   12   36 ar
    72   17   19 ar
    73   20   21 ar
    74   25   26 ar
    75   32   34 ar
    76   44   45 ar
    77   46   47 ar
    78   52   54 ar
    79   55   56 ar
    80   60   61 ar
    81   67   69 ar
@<TRIPOS>SUBSTRUCTURE
     1 RES1 1

@<TRIPOS>CRYSIN
  31.9402    3.8977   23.9483  90.0000 116.3500  90.0000  15 1

