# MOL2 file generated by ConQuest
# Please check atom types

@<TRIPOS>MOLECULE
KEGHEJ01
    22    25     1
SMALL
NO_CHARGES
****
Generated from CSD

@<TRIPOS>ATOM
      1 C1         0.6730    2.2710    2.8230 C.ar      1 RES1    0.0000
      2 C2         1.1786    1.1444    3.6602 C.ar      1 RES1    0.0000
      3 C3         2.3618    0.5759    4.0816 C.ar      1 RES1    0.0000
      4 C4         0.0000    0.5451    4.1087 C.ar      1 RES1    0.0000
      5 H1         1.2401    2.9318    2.3587 H         1 RES1    0.0000
      6 H2         3.2512    0.9117    3.8016 H         1 RES1    0.0000
      7 C1K       -0.6730    2.2710    2.8230 C.ar      1 RES1    0.0000
      8 C1H       -0.6730   -2.2710    6.2090 C.ar      1 RES1    0.0000
      9 C1C        0.6730   -2.2710    6.2090 C.ar      1 RES1    0.0000
     10 C2K       -1.1786    1.1444    3.6602 C.ar      1 RES1    0.0000
     11 C2H       -1.1786   -1.1444    5.3718 C.ar      1 RES1    0.0000
     12 C2C        1.1786   -1.1444    5.3718 C.ar      1 RES1    0.0000
     13 C3K       -2.3618    0.5759    4.0816 C.ar      1 RES1    0.0000
     14 C3H       -2.3618   -0.5759    4.9504 C.ar      1 RES1    0.0000
     15 C3C        2.3618   -0.5759    4.9504 C.ar      1 RES1    0.0000
     16 C4H        0.0000   -0.5451    4.9233 C.ar      1 RES1    0.0000
     17 H1C        1.2401   -2.9318    6.6733 H         1 RES1    0.0000
     18 H1H       -1.2401   -2.9318    6.6733 H         1 RES1    0.0000
     19 H1K       -1.2401    2.9318    2.3587 H         1 RES1    0.0000
     20 H2C        3.2512   -0.9117    5.2304 H         1 RES1    0.0000
     21 H2H       -3.2512   -0.9117    5.2304 H         1 RES1    0.0000
     22 H2K       -3.2512    0.9117    3.8016 H         1 RES1    0.0000
@<TRIPOS>BOND
     1    1    2 ar
     2    2    3 ar
     3    3    6 1
     4    4    2 ar
     5    5    1 1
     6    7    1 ar
     7    8    9 ar
     8    9   12 ar
     9   10    4 ar
    10   11    8 ar
    11   12   15 ar
    12   13   10 ar
    13   14   11 ar
    14   15    3 ar
    15   16    4 ar
    16   17    9 1
    17   18    8 1
    18   19    7 1
    19   20   15 1
    20   21   14 1
    21   22   13 1
    22    7   10 ar
    23   11   16 ar
    24   12   16 ar
    25   13   14 ar
@<TRIPOS>SUBSTRUCTURE
     1 RES1 1

@<TRIPOS>CRYSIN
  10.8730    9.1150    9.0320  90.0000  90.0000  90.0000  64 1

