# MOL2 file generated by ConQuest
# Please check atom types

@<TRIPOS>MOLECULE
KEGHEJ
    22    25     1
SMALL
NO_CHARGES
****
Generated from CSD

@<TRIPOS>ATOM
      1 C1         4.9115    2.8225    4.8127 C.ar      1 RES1    0.0000
      2 C2         3.8807    2.8234    5.6783 C.ar      1 RES1    0.0000
      3 C3         4.2169    3.6625    6.8674 C.ar      1 RES1    0.0000
      4 C4         3.6752    4.0816    8.0627 C.ar      1 RES1    0.0000
      5 C5         4.4154    4.9504    8.9450 C.ar      1 RES1    0.0000
      6 C6         6.0219    3.6580    5.3514 C.ar      1 RES1    0.0000
      7 C7         5.5039    4.1087    6.5691 C.ar      1 RES1    0.0000
      8 H1         4.8981    2.4043    3.9521 H         1 RES1    0.0000
      9 H2         3.0077    2.3131    5.5575 H         1 RES1    0.0000
     10 H3         2.7728    3.7754    8.3799 H         1 RES1    0.0000
     11 H4         3.9536    5.2042    9.7694 H         1 RES1    0.0000
     12 C6B        5.6879    5.3740    8.6209 C.ar      1 RES1    0.0000
     13 C5B        7.2944    4.0816    5.0272 C.ar      1 RES1    0.0000
     14 C7B        6.2058    4.9233    7.4032 C.ar      1 RES1    0.0000
     15 C1B        6.7982    6.2095    9.1595 C.ar      1 RES1    0.0000
     16 C4B        8.0345    4.9504    5.9096 C.ar      1 RES1    0.0000
     17 H4B        7.7561    3.8278    4.2029 H         1 RES1    0.0000
     18 C3B        7.4929    5.3695    7.1049 C.ar      1 RES1    0.0000
     19 C2B        7.8290    6.2086    8.2939 C.ar      1 RES1    0.0000
     20 H1B        6.8116    6.6277   10.0202 H         1 RES1    0.0000
     21 H3B        8.9369    5.2566    5.5924 H         1 RES1    0.0000
     22 H2B        8.7020    6.7189    8.4148 H         1 RES1    0.0000
@<TRIPOS>BOND
     1    1    2 ar
     2    2    3 ar
     3    3    4 ar
     4    4    5 ar
     5    5   11 1
     6    6    1 ar
     7    7    3 ar
     8    8    1 1
     9    9    2 1
    10   10    4 1
    11   12    5 ar
    12   13    6 ar
    13   14    7 ar
    14   15   12 ar
    15   16   13 ar
    16   17   13 1
    17   18   14 ar
    18   19   15 ar
    19   20   15 1
    20   21   16 1
    21   22   19 1
    22    6    7 ar
    23   12   14 ar
    24   16   18 ar
    25   18   19 ar
@<TRIPOS>SUBSTRUCTURE
     1 RES1 1

@<TRIPOS>CRYSIN
   7.0930    9.0320    7.0950  90.0000 100.0500  90.0000 231 1

