# MOL2 file generated by ConQuest
# Please check atom types

@<TRIPOS>MOLECULE
KEGQOF
   160   172     2
SMALL
NO_CHARGES
****
Generated from CSD

@<TRIPOS>ATOM
      1 C1         4.4825    0.3930    1.0281 C.ar      1 RES1    0.0000
      2 C2         4.4090    0.9823   -0.2701 C.ar      1 RES1    0.0000
      3 C3         5.3459    0.6051   -1.3086 C.ar      1 RES1    0.0000
      4 C4         5.2391    1.1986   -2.5511 C.ar      1 RES1    0.0000
      5 H1         5.8646    0.9573   -3.2237 H         1 RES1    0.0000
      6 C5         4.2289    2.1626   -2.8717 C.ar      1 RES1    0.0000
      7 C6         4.1817    2.7625   -4.1490 C.ar      1 RES1    0.0000
      8 H2         4.8389    2.5227   -4.7919 H         1 RES1    0.0000
      9 C7         3.2140    3.6865   -4.4975 C.ar      1 RES1    0.0000
     10 C8         2.2652    4.0252   -3.5251 C.ar      1 RES1    0.0000
     11 H3         1.5934    4.6620   -3.7395 H         1 RES1    0.0000
     12 C9         2.2732    3.4592   -2.2496 C.ar      1 RES1    0.0000
     13 H4         1.6054    3.7019   -1.6188 H         1 RES1    0.0000
     14 C10        3.2728    2.5252   -1.8941 C.ar      1 RES1    0.0000
     15 C11        3.3734    1.9250   -0.5611 C.ar      1 RES1    0.0000
     16 C12        2.4646    2.2672    0.4653 C.ar      1 RES1    0.0000
     17 H5         1.7757    2.8976    0.2858 H         1 RES1    0.0000
     18 C13        2.5588    1.7069    1.7164 C.ar      1 RES1    0.0000
     19 H6         1.9386    1.9567    2.3907 H         1 RES1    0.0000
     20 C14        3.5566    0.7717    2.0074 C.ar      1 RES1    0.0000
     21 H7         3.6068    0.3900    2.8769 H         1 RES1    0.0000
     22 C15        3.1995    4.3327   -5.8619 C.3       1 RES1    0.0000
     23 H8         3.2834    3.6196   -6.5449 H         1 RES1    0.0000
     24 H9         2.3190    4.7664   -5.9908 H         1 RES1    0.0000
     25 C16        4.2746    5.3553   -6.1093 C.3       1 RES1    0.0000
     26 H10        5.1553    4.9578   -5.8950 H         1 RES1    0.0000
     27 H11        4.2763    5.5967   -7.0694 H         1 RES1    0.0000
     28 C17        4.0906    6.5727   -5.3077 C.3       1 RES1    0.0000
     29 H12        4.1588    6.3380   -4.3493 H         1 RES1    0.0000
     30 H13        3.1785    6.9246   -5.4663 H         1 RES1    0.0000
     31 C18        5.1411    7.7169   -5.6284 C.3       1 RES1    0.0000
     32 H14        5.1150    8.3880   -4.9000 H         1 RES1    0.0000
     33 H15        6.0493    7.3230   -5.6406 H         1 RES1    0.0000
     34 C19        4.9039    8.4127   -6.9283 C.3       1 RES1    0.0000
     35 H16        4.0064    8.8286   -6.9056 H         1 RES1    0.0000
     36 H17        4.9027    7.7373   -7.6532 H         1 RES1    0.0000
     37 C20        5.9552    9.5089   -7.2716 C.3       1 RES1    0.0000
     38 H18        6.0346   10.1320   -6.5188 H         1 RES1    0.0000
     39 H19        5.6687    9.9989   -8.0714 H         1 RES1    0.0000
     40 H20        6.8244    9.0893   -7.4406 H         1 RES1    0.0000
     41 C21        1.4770    7.1349   -0.9201 C.ar      2 RES2    0.0000
     42 C22        1.5618    6.5401    0.3642 C.ar      2 RES2    0.0000
     43 C23        2.5719    6.9629    1.3086 C.ar      2 RES2    0.0000
     44 C24        2.6408    6.3443    2.5406 C.ar      2 RES2    0.0000
     45 H21        3.3294    6.6021    3.1418 H         2 RES2    0.0000
     46 C25        1.7168    5.3259    2.9501 C.ar      2 RES2    0.0000
     47 C26        1.8578    4.6895    4.2065 C.ar      2 RES2    0.0000
     48 H22        2.5665    4.9521    4.7815 H         2 RES2    0.0000
     49 C27        0.9915    3.6966    4.6125 C.ar      2 RES2    0.0000
     50 C28       -0.0691    3.3526    3.7482 C.ar      2 RES2    0.0000
     51 H23       -0.6936    2.6899    4.0183 H         2 RES2    0.0000
     52 C29       -0.2152    3.9538    2.5354 C.ar      2 RES2    0.0000
     53 H24       -0.9445    3.7004    1.9813 H         2 RES2    0.0000
     54 C30        0.6841    4.9418    2.0753 C.ar      2 RES2    0.0000
     55 C31        0.6095    5.5491    0.7475 C.ar      2 RES2    0.0000
     56 C32       -0.3704    5.1579   -0.1795 C.ar      2 RES2    0.0000
     57 H25       -1.0012    4.4908    0.0645 H         2 RES2    0.0000
     58 C33       -0.4371    5.7204   -1.4324 C.ar      2 RES2    0.0000
     59 H26       -1.1119    5.4475   -2.0422 H         2 RES2    0.0000
     60 C34        0.4871    6.6884   -1.7983 C.ar      2 RES2    0.0000
     61 H27        0.4455    7.0583   -2.6730 H         2 RES2    0.0000
     62 C35        1.2546    2.9240    5.8984 C.3       2 RES2    0.0000
     63 H28        0.3910    2.6672    6.3079 H         2 RES2    0.0000
     64 H29        1.7336    3.5087    6.5380 H         2 RES2    0.0000
     65 C36        2.0892    1.6639    5.6406 C.3       2 RES2    0.0000
     66 H30        1.5677    1.0500    5.0655 H         2 RES2    0.0000
     67 H31        2.9057    1.9184    5.1439 H         2 RES2    0.0000
     68 C37        2.4954    0.9264    6.8917 C.3       2 RES2    0.0000
     69 H32        1.6814    0.5718    7.3291 H         2 RES2    0.0000
     70 H33        2.9153    1.5691    7.5172 H         2 RES2    0.0000
     71 C38        3.4697   -0.2333    6.6495 C.3       2 RES2    0.0000
     72 H34        3.0358   -0.8942    6.0535 H         2 RES2    0.0000
     73 H35        4.2677    0.1149    6.1790 H         2 RES2    0.0000
     74 C39        3.9175   -0.9339    7.9076 C.3       2 RES2    0.0000
     75 H36        3.1301   -1.3460    8.3449 H         2 RES2    0.0000
     76 H37        4.2948   -0.2654    8.5331 H         2 RES2    0.0000
     77 C40        4.9607   -2.0126    7.6462 C.3       2 RES2    0.0000
     78 H38        4.5887   -2.6879    7.0398 H         2 RES2    0.0000
     79 H39        5.2118   -2.4377    8.4931 H         2 RES2    0.0000
     80 H40        5.7537   -1.6090    7.2367 H         2 RES2    0.0000
     81 C1A        6.4071   -0.3930   -1.0281 C.ar      1 RES1    0.0000
     82 C2A        6.4806   -0.9823    0.2701 C.ar      1 RES1    0.0000
     83 C3A        5.5437   -0.6051    1.3086 C.ar      1 RES1    0.0000
     84 C4A        5.6505   -1.1986    2.5511 C.ar      1 RES1    0.0000
     85 H1A        5.0250   -0.9573    3.2237 H         1 RES1    0.0000
     86 C5A        6.6607   -2.1626    2.8717 C.ar      1 RES1    0.0000
     87 C6A        6.7079   -2.7625    4.1490 C.ar      1 RES1    0.0000
     88 H2A        6.0507   -2.5227    4.7919 H         1 RES1    0.0000
     89 C7A        7.6756   -3.6865    4.4975 C.ar      1 RES1    0.0000
     90 C8A        8.6244   -4.0252    3.5251 C.ar      1 RES1    0.0000
     91 H3A        9.2962   -4.6620    3.7395 H         1 RES1    0.0000
     92 C9A        8.6164   -3.4592    2.2496 C.ar      1 RES1    0.0000
     93 H4A        9.2842   -3.7019    1.6188 H         1 RES1    0.0000
     94 C10A       7.6168   -2.5252    1.8941 C.ar      1 RES1    0.0000
     95 C11A       7.5162   -1.9250    0.5611 C.ar      1 RES1    0.0000
     96 C12A       8.4250   -2.2672   -0.4653 C.ar      1 RES1    0.0000
     97 H5A        9.1139   -2.8976   -0.2858 H         1 RES1    0.0000
     98 C13A       8.3308   -1.7069   -1.7164 C.ar      1 RES1    0.0000
     99 H6A        8.9510   -1.9567   -2.3907 H         1 RES1    0.0000
    100 C14A       7.3330   -0.7717   -2.0074 C.ar      1 RES1    0.0000
    101 H7A        7.2828   -0.3900   -2.8769 H         1 RES1    0.0000
    102 C15A       7.6901   -4.3327    5.8619 C.3       1 RES1    0.0000
    103 H8A        7.6062   -3.6196    6.5449 H         1 RES1    0.0000
    104 H9A        8.5706   -4.7664    5.9908 H         1 RES1    0.0000
    105 C16A       6.6150   -5.3553    6.1093 C.3       1 RES1    0.0000
    106 H10A       5.7343   -4.9578    5.8950 H         1 RES1    0.0000
    107 H11A       6.6133   -5.5967    7.0694 H         1 RES1    0.0000
    108 C17A       6.7990   -6.5727    5.3077 C.3       1 RES1    0.0000
    109 H12A       6.7308   -6.3380    4.3493 H         1 RES1    0.0000
    110 H13A       7.7111   -6.9246    5.4663 H         1 RES1    0.0000
    111 C18A       5.7485   -7.7169    5.6284 C.3       1 RES1    0.0000
    112 H14A       5.7746   -8.3880    4.9000 H         1 RES1    0.0000
    113 H15A       4.8403   -7.3230    5.6406 H         1 RES1    0.0000
    114 C19A       5.9857   -8.4127    6.9283 C.3       1 RES1    0.0000
    115 H16A       6.8832   -8.8286    6.9056 H         1 RES1    0.0000
    116 H17A       5.9869   -7.7373    7.6532 H         1 RES1    0.0000
    117 C20A       4.9344   -9.5089    7.2716 C.3       1 RES1    0.0000
    118 H18A       4.8550  -10.1320    6.5188 H         1 RES1    0.0000
    119 H19A       5.2209   -9.9989    8.0714 H         1 RES1    0.0000
    120 H20A       4.0652   -9.0893    7.4406 H         1 RES1    0.0000
    121 C21A       3.5451    8.0072    0.9201 C.ar      2 RES2    0.0000
    122 C22A       3.4603    8.6021   -0.3642 C.ar      2 RES2    0.0000
    123 C23A       2.4502    8.1792   -1.3086 C.ar      2 RES2    0.0000
    124 C24A       2.3813    8.7978   -2.5406 C.ar      2 RES2    0.0000
    125 H21A       1.6927    8.5400   -3.1418 H         2 RES2    0.0000
    126 C25A       3.3053    9.8162   -2.9501 C.ar      2 RES2    0.0000
    127 C26A       3.1643   10.4526   -4.2065 C.ar      2 RES2    0.0000
    128 H22A       2.4556   10.1900   -4.7815 H         2 RES2    0.0000
    129 C27A       4.0306   11.4455   -4.6125 C.ar      2 RES2    0.0000
    130 C28A       5.0912   11.7895   -3.7482 C.ar      2 RES2    0.0000
    131 H23A       5.7157   12.4522   -4.0183 H         2 RES2    0.0000
    132 C29A       5.2373   11.1883   -2.5354 C.ar      2 RES2    0.0000
    133 H24A       5.9666   11.4417   -1.9813 H         2 RES2    0.0000
    134 C30A       4.3380   10.2003   -2.0753 C.ar      2 RES2    0.0000
    135 C31A       4.4127    9.5930   -0.7475 C.ar      2 RES2    0.0000
    136 C32A       5.3925    9.9842    0.1795 C.ar      2 RES2    0.0000
    137 H25A       6.0233   10.6513   -0.0645 H         2 RES2    0.0000
    138 C33A       5.4592    9.4217    1.4324 C.ar      2 RES2    0.0000
    139 H26A       6.1340    9.6946    2.0422 H         2 RES2    0.0000
    140 C34A       4.5350    8.4537    1.7983 C.ar      2 RES2    0.0000
    141 H27A       4.5766    8.0838    2.6730 H         2 RES2    0.0000
    142 C35A       3.7675   12.2181   -5.8984 C.3       2 RES2    0.0000
    143 H28A       4.6311   12.4749   -6.3079 H         2 RES2    0.0000
    144 H29A       3.2886   11.6334   -6.5380 H         2 RES2    0.0000
    145 C36A       2.9329   13.4782   -5.6406 C.3       2 RES2    0.0000
    146 H30A       3.4544   14.0921   -5.0655 H         2 RES2    0.0000
    147 H31A       2.1164   13.2237   -5.1439 H         2 RES2    0.0000
    148 C37A       2.5267   14.2157   -6.8917 C.3       2 RES2    0.0000
    149 H32A       3.3407   14.5703   -7.3291 H         2 RES2    0.0000
    150 H33A       2.1068   13.5730   -7.5172 H         2 RES2    0.0000
    151 C38A       1.5524   15.3754   -6.6495 C.3       2 RES2    0.0000
    152 H34A       1.9863   16.0363   -6.0535 H         2 RES2    0.0000
    153 H35A       0.7544   15.0272   -6.1790 H         2 RES2    0.0000
    154 C39A       1.1046   16.0760   -7.9076 C.3       2 RES2    0.0000
    155 H36A       1.8920   16.4881   -8.3449 H         2 RES2    0.0000
    156 H37A       0.7273   15.4075   -8.5331 H         2 RES2    0.0000
    157 C40A       0.0614   17.1547   -7.6462 C.3       2 RES2    0.0000
    158 H38A       0.4334   17.8300   -7.0398 H         2 RES2    0.0000
    159 H39A      -0.1897   17.5798   -8.4931 H         2 RES2    0.0000
    160 H40A      -0.7316   16.7511   -7.2367 H         2 RES2    0.0000
@<TRIPOS>BOND
     1    1    2 ar
     2    2    3 ar
     3    3    4 ar
     4    4    5 1
     5    6    4 ar
     6    7    6 ar
     7    8    7 1
     8    9    7 ar
     9   10    9 ar
    10   11   10 1
    11   12   10 ar
    12   13   12 1
    13   14    6 ar
    14   15    2 ar
    15   16   15 ar
    16   17   16 1
    17   18   16 ar
    18   19   18 1
    19   20    1 ar
    20   21   20 1
    21   22    9 1
    22   23   22 1
    23   24   22 1
    24   25   22 1
    25   26   25 1
    26   27   25 1
    27   28   25 1
    28   29   28 1
    29   30   28 1
    30   31   28 1
    31   32   31 1
    32   33   31 1
    33   34   31 1
    34   35   34 1
    35   36   34 1
    36   37   34 1
    37   38   37 1
    38   39   37 1
    39   40   37 1
    40   41   42 ar
    41   42   43 ar
    42   43   44 ar
    43   44   45 1
    44   46   44 ar
    45   47   46 ar
    46   48   47 1
    47   49   47 ar
    48   50   49 ar
    49   51   50 1
    50   52   50 ar
    51   53   52 1
    52   54   46 ar
    53   55   42 ar
    54   56   55 ar
    55   57   56 1
    56   58   56 ar
    57   59   58 1
    58   60   41 ar
    59   61   60 1
    60   62   49 1
    61   63   62 1
    62   64   62 1
    63   65   62 1
    64   66   65 1
    65   67   65 1
    66   68   65 1
    67   69   68 1
    68   70   68 1
    69   71   68 1
    70   72   71 1
    71   73   71 1
    72   74   71 1
    73   75   74 1
    74   76   74 1
    75   77   74 1
    76   78   77 1
    77   79   77 1
    78   80   77 1
    79   81    3 ar
    80   82   81 ar
    81   83    1 ar
    82   84   83 ar
    83   85   84 1
    84   86   84 ar
    85   87   86 ar
    86   88   87 1
    87   89   87 ar
    88   90   89 ar
    89   91   90 1
    90   92   90 ar
    91   93   92 1
    92   94   86 ar
    93   95   82 ar
    94   96   95 ar
    95   97   96 1
    96   98   96 ar
    97   99   98 1
    98  100   81 ar
    99  101  100 1
   100  102   89 1
   101  103  102 1
   102  104  102 1
   103  105  102 1
   104  106  105 1
   105  107  105 1
   106  108  105 1
   107  109  108 1
   108  110  108 1
   109  111  108 1
   110  112  111 1
   111  113  111 1
   112  114  111 1
   113  115  114 1
   114  116  114 1
   115  117  114 1
   116  118  117 1
   117  119  117 1
   118  120  117 1
   119  121   43 ar
   120  122  121 ar
   121  123   41 ar
   122  124  123 ar
   123  125  124 1
   124  126  124 ar
   125  127  126 ar
   126  128  127 1
   127  129  127 ar
   128  130  129 ar
   129  131  130 1
   130  132  130 ar
   131  133  132 1
   132  134  126 ar
   133  135  122 ar
   134  136  135 ar
   135  137  136 1
   136  138  136 ar
   137  139  138 1
   138  140  121 ar
   139  141  140 1
   140  142  129 1
   141  143  142 1
   142  144  142 1
   143  145  142 1
   144  146  145 1
   145  147  145 1
   146  148  145 1
   147  149  148 1
   148  150  148 1
   149  151  148 1
   150  152  151 1
   151  153  151 1
   152  154  151 1
   153  155  154 1
   154  156  154 1
   155  157  154 1
   156  158  157 1
   157  159  157 1
   158  160  157 1
   159   12   14 ar
   160   14   15 ar
   161   18   20 ar
   162   52   54 ar
   163   54   55 ar
   164   58   60 ar
   165   82   83 ar
   166   92   94 ar
   167   94   95 ar
   168   98  100 ar
   169  122  123 ar
   170  132  134 ar
   171  134  135 ar
   172  138  140 ar
@<TRIPOS>SUBSTRUCTURE
     1 RES1 1
     2 RES2 41

@<TRIPOS>CRYSIN
   5.4448   15.1480   18.8470 108.9480 100.9660  91.5990   2 1

