# MOL2 file generated by ConQuest
# Please check atom types

@<TRIPOS>MOLECULE
KEGQIZ
    80    86     1
SMALL
NO_CHARGES
****
Generated from CSD

@<TRIPOS>ATOM
      1 C1        10.9682    8.8177   -0.0443 C.ar      1 RES1    0.0000
      2 H1        10.4993    9.5533    0.3315 H         1 RES1    0.0000
      3 C2        11.9181    9.0476   -1.0171 C.ar      1 RES1    0.0000
      4 H2        12.0720    9.9388   -1.3096 H         1 RES1    0.0000
      5 C3        12.6678    8.0015   -1.5906 C.ar      1 RES1    0.0000
      6 C4        12.4153    6.7241   -1.1487 C.ar      1 RES1    0.0000
      7 H3        12.9144    6.0039   -1.5172 H         1 RES1    0.0000
      8 C5        11.4328    6.4444   -0.1603 C.ar      1 RES1    0.0000
      9 C6        11.1641    5.1146    0.2473 C.ar      1 RES1    0.0000
     10 H4        11.6648    4.4084   -0.1443 H         1 RES1    0.0000
     11 C7        10.2000    4.8012    1.1937 C.ar      1 RES1    0.0000
     12 C8         9.9199    3.4041    1.5687 C.ar      1 RES1    0.0000
     13 C9        10.5778    2.3263    0.9397 C.ar      1 RES1    0.0000
     14 H5        11.2155    2.5087    0.2594 H         1 RES1    0.0000
     15 C10       10.3214    1.0152    1.2827 C.ar      1 RES1    0.0000
     16 H6        10.7735    0.3087    0.8389 H         1 RES1    0.0000
     17 C11        9.3957    0.7359    2.2825 C.ar      1 RES1    0.0000
     18 H7         9.2191   -0.1639    2.5307 H         1 RES1    0.0000
     19 C12        8.7393    1.7617    2.9087 C.ar      1 RES1    0.0000
     20 H8         8.1056    1.5568    3.5860 H         1 RES1    0.0000
     21 C13        8.9718    3.1094    2.5803 C.ar      1 RES1    0.0000
     22 C14        8.2301    4.2133    3.2298 C.ar      1 RES1    0.0000
     23 C15        7.3069    3.9729    4.2264 C.ar      1 RES1    0.0000
     24 H9         7.1409    3.0735    4.4844 H         1 RES1    0.0000
     25 C16        6.5961    5.0093    4.8835 C.ar      1 RES1    0.0000
     26 C17        5.6684    4.7053    5.9161 C.ar      1 RES1    0.0000
     27 H10        5.5158    3.7953    6.1446 H         1 RES1    0.0000
     28 C18        4.9862    5.6860    6.5932 C.ar      1 RES1    0.0000
     29 C19        5.2570    7.0318    6.2395 C.ar      1 RES1    0.0000
     30 H11        4.8179    7.7285    6.7127 H         1 RES1    0.0000
     31 C20        6.1347    7.3602    5.2348 C.ar      1 RES1    0.0000
     32 H12        6.2816    8.2737    5.0222 H         1 RES1    0.0000
     33 C21        6.8221    6.3583    4.5147 C.ar      1 RES1    0.0000
     34 C22        7.7558    6.6330    3.4403 C.ar      1 RES1    0.0000
     35 C23        7.9931    7.9553    2.9873 C.ar      1 RES1    0.0000
     36 H13        7.4987    8.6713    3.3697 H         1 RES1    0.0000
     37 C24        8.9152    8.2307    2.0133 C.ar      1 RES1    0.0000
     38 H14        9.0429    9.1311    1.7373 H         1 RES1    0.0000
     39 C25        9.6844    7.2038    1.4053 C.ar      1 RES1    0.0000
     40 C26       10.6781    7.5104    0.4043 C.ar      1 RES1    0.0000
     41 C27        9.4477    5.8713    1.8010 C.ar      1 RES1    0.0000
     42 C28        8.4753    5.5748    2.8235 C.ar      1 RES1    0.0000
     43 C29       13.6870    8.2558   -2.6834 C.3       1 RES1    0.0000
     44 H15       13.4163    7.7379   -3.4823 H         1 RES1    0.0000
     45 H16       14.5578    7.8954   -2.3814 H         1 RES1    0.0000
     46 C30       13.8967    9.7024   -3.1068 C.3       1 RES1    0.0000
     47 H17       14.1720   10.2332   -2.3169 H         1 RES1    0.0000
     48 H18       13.0373   10.0710   -3.4329 H         1 RES1    0.0000
     49 C31       14.9481    9.8578   -4.1995 C.3       1 RES1    0.0000
     50 H19       14.6599    9.3420   -4.9944 H         1 RES1    0.0000
     51 H20       15.7988    9.4657   -3.8796 H         1 RES1    0.0000
     52 C32       15.2015   11.3053   -4.6186 C.3       1 RES1    0.0000
     53 H21       14.3560   11.6939   -4.9564 H         1 RES1    0.0000
     54 H22       15.4763   11.8268   -3.8239 H         1 RES1    0.0000
     55 C33       16.2742   11.4405   -5.6959 C.3       1 RES1    0.0000
     56 H23       16.0229   10.8816   -6.4736 H         1 RES1    0.0000
     57 H24       17.1319   11.0963   -5.3411 H         1 RES1    0.0000
     58 C34       16.4733   12.8819   -6.1636 C.3       1 RES1    0.0000
     59 H25       15.6356   13.2219   -6.5419 H         1 RES1    0.0000
     60 H26       17.1755   12.9100   -6.8469 H         1 RES1    0.0000
     61 H27       16.7366   13.4393   -5.4006 H         1 RES1    0.0000
     62 C35        3.9801    5.4066    7.6879 C.3       1 RES1    0.0000
     63 H28        3.1193    5.8210    7.4302 H         1 RES1    0.0000
     64 H29        4.2884    5.8570    8.5133 H         1 RES1    0.0000
     65 C36        3.7211    3.9398    8.0150 C.3       1 RES1    0.0000
     66 H30        3.4186    3.4755    7.1948 H         1 RES1    0.0000
     67 H31        4.5706    3.5189    8.3046 H         1 RES1    0.0000
     68 C37        2.6780    3.7504    9.1059 C.3       1 RES1    0.0000
     69 H32        2.9926    4.1973    9.9318 H         1 RES1    0.0000
     70 H33        1.8374    4.1900    8.8259 H         1 RES1    0.0000
     71 C38        2.3929    2.2916    9.4125 C.3       1 RES1    0.0000
     72 H34        3.2370    1.8575    9.6952 H         1 RES1    0.0000
     73 H35        2.0929    1.8462    8.5804 H         1 RES1    0.0000
     74 C39        1.3422    2.0631   10.4934 C.3       1 RES1    0.0000
     75 H36        1.6398    2.4955   11.3326 H         1 RES1    0.0000
     76 H37        0.4931    2.4900   10.2165 H         1 RES1    0.0000
     77 C40        1.0965    0.5811   10.7518 C.3       1 RES1    0.0000
     78 H38        0.7983    0.1503    9.9242 H         1 RES1    0.0000
     79 H39        0.4064    0.4788   11.4401 H         1 RES1    0.0000
     80 H40        1.9279    0.1615   11.0580 H         1 RES1    0.0000
@<TRIPOS>BOND
     1    1    2 1
     2    3    1 ar
     3    4    3 1
     4    5    3 ar
     5    6    5 ar
     6    7    6 1
     7    8    6 ar
     8    9    8 ar
     9   10    9 1
    10   11    9 ar
    11   12   11 ar
    12   13   12 ar
    13   14   13 1
    14   15   13 ar
    15   16   15 1
    16   17   15 ar
    17   18   17 1
    18   19   17 ar
    19   20   19 1
    20   21   12 ar
    21   22   21 ar
    22   23   22 ar
    23   24   23 1
    24   25   23 ar
    25   26   25 ar
    26   27   26 1
    27   28   26 ar
    28   29   28 ar
    29   30   29 1
    30   31   29 ar
    31   32   31 1
    32   33   25 ar
    33   34   33 ar
    34   35   34 ar
    35   36   35 1
    36   37   35 ar
    37   38   37 1
    38   39   37 ar
    39   40    1 ar
    40   41   11 ar
    41   42   22 ar
    42   43    5 1
    43   44   43 1
    44   45   43 1
    45   46   43 1
    46   47   46 1
    47   48   46 1
    48   49   46 1
    49   50   49 1
    50   51   49 1
    51   52   49 1
    52   53   52 1
    53   54   52 1
    54   55   52 1
    55   56   55 1
    56   57   55 1
    57   58   55 1
    58   59   58 1
    59   60   58 1
    60   61   58 1
    61   62   28 1
    62   63   62 1
    63   64   62 1
    64   65   62 1
    65   66   65 1
    66   67   65 1
    67   68   65 1
    68   69   68 1
    69   70   68 1
    70   71   68 1
    71   72   71 1
    72   73   71 1
    73   74   71 1
    74   75   74 1
    75   76   74 1
    76   77   74 1
    77   78   77 1
    78   79   77 1
    79   80   77 1
    80    8   40 ar
    81   19   21 ar
    82   31   33 ar
    83   34   42 ar
    84   39   40 ar
    85   39   41 ar
    86   41   42 ar
@<TRIPOS>SUBSTRUCTURE
     1 RES1 1

@<TRIPOS>CRYSIN
   9.7034   11.4834   12.9123  91.7850 100.9490  98.5230   2 1

