# MOL2 file generated by ConQuest
# Please check atom types

@<TRIPOS>MOLECULE
KEKBEK
    76    88     1
SMALL
NO_CHARGES
****
Generated from CSD

@<TRIPOS>ATOM
      1 C1         1.8374    1.9786    7.5801 C.ar      1 RES1    0.0000
      2 C2         2.2121    0.7579    7.0590 C.ar      1 RES1    0.0000
      3 H1         2.8754    0.2539    7.4753 H         1 RES1    0.0000
      4 C3         1.5983    0.2864    5.9180 C.ar      1 RES1    0.0000
      5 H2         1.8512   -0.5353    5.5646 H         1 RES1    0.0000
      6 C4         0.6180    1.0231    5.2980 C.ar      1 RES1    0.0000
      7 H3         0.2077    0.6866    4.5343 H         1 RES1    0.0000
      8 C5         0.2345    2.2500    5.7862 C.ar      1 RES1    0.0000
      9 H4        -0.4100    2.7565    5.3489 H         1 RES1    0.0000
     10 C6         0.8368    2.7165    6.9557 C.ar      1 RES1    0.0000
     11 C7         0.5650    4.0122    7.6835 C.3       1 RES1    0.0000
     12 H5        -0.3882    4.1523    7.7988 H         1 RES1    0.0000
     13 H6         0.9382    4.7664    7.1998 H         1 RES1    0.0000
     14 C8         1.2677    3.8296    9.0521 C.3       1 RES1    0.0000
     15 C9         0.3430    3.2143   10.1378 C.3       1 RES1    0.0000
     16 H7         0.0170    3.8959   10.7458 H         1 RES1    0.0000
     17 H8        -0.4151    2.7628    9.7335 H         1 RES1    0.0000
     18 C10        2.0860    5.0341    9.4705 C.ar      1 RES1    0.0000
     19 C11        2.3594    2.7115    8.7961 C.3       1 RES1    0.0000
     20 C12        2.3485    1.9186   10.0869 C.ar      1 RES1    0.0000
     21 C13        1.2337    2.2363   10.8506 C.ar      1 RES1    0.0000
     22 C14        1.0485    1.6547   12.0950 C.ar      1 RES1    0.0000
     23 H9         0.2901    1.8473   12.5981 H         1 RES1    0.0000
     24 C15        2.0081    0.7817   12.5802 C.ar      1 RES1    0.0000
     25 H10        1.8992    0.3977   13.4202 H         1 RES1    0.0000
     26 C16        3.1178    0.4790   11.8359 C.ar      1 RES1    0.0000
     27 H11        3.7536   -0.1076   12.1773 H         1 RES1    0.0000
     28 C17        3.3024    1.0406   10.5706 C.ar      1 RES1    0.0000
     29 H12        4.0519    0.8280   10.0629 H         1 RES1    0.0000
     30 C18        3.4544    4.7927    9.0903 C.ar      1 RES1    0.0000
     31 C19        3.6461    3.4782    8.6119 C.ar      1 RES1    0.0000
     32 C20        4.8769    3.0980    8.1671 C.ar      1 RES1    0.0000
     33 H13        5.0089    2.2488    7.8108 H         1 RES1    0.0000
     34 C21        5.9482    4.0072    8.2540 C.ar      1 RES1    0.0000
     35 H14        6.7893    3.7508    7.9530 H         1 RES1    0.0000
     36 C22        5.7740    5.2654    8.7736 C.ar      1 RES1    0.0000
     37 H15        6.5059    5.8358    8.8410 H         1 RES1    0.0000
     38 C23        4.5122    5.7082    9.2035 C.ar      1 RES1    0.0000
     39 C24        4.1907    7.0027    9.7777 C.ar      1 RES1    0.0000
     40 C25        5.0902    8.0395   10.0450 C.ar      1 RES1    0.0000
     41 H16        5.9887    7.9419    9.8263 H         1 RES1    0.0000
     42 C26        4.6494    9.2077   10.6320 C.ar      1 RES1    0.0000
     43 H17        5.2649    9.8780   10.8221 H         1 RES1    0.0000
     44 C27        3.3046    9.4153   10.9509 C.ar      1 RES1    0.0000
     45 H18        3.0266   10.2170   11.3313 H         1 RES1    0.0000
     46 C28        2.4090    8.4185   10.6949 C.ar      1 RES1    0.0000
     47 C29        2.8535    7.2053   10.1504 C.ar      1 RES1    0.0000
     48 C30        1.7839    6.2447   10.0128 C.ar      1 RES1    0.0000
     49 C31        0.5263    6.8438   10.6230 C.3       1 RES1    0.0000
     50 C32        0.8892    8.3772   10.8251 C.3       1 RES1    0.0000
     51 C33       -0.6996    6.8588    9.6886 C.3       1 RES1    0.0000
     52 H19       -0.6381    6.1522    9.0282 H         1 RES1    0.0000
     53 H20       -1.5207    6.7450   10.1947 H         1 RES1    0.0000
     54 C34        0.2158    6.3060   12.0546 C.3       1 RES1    0.0000
     55 H21       -0.5623    5.7257   12.0456 H         1 RES1    0.0000
     56 H22        0.9711    5.8145   12.4110 H         1 RES1    0.0000
     57 C35        0.3308    8.6999   12.1908 C.ar      1 RES1    0.0000
     58 C36       -0.0500    7.5492   12.8677 C.ar      1 RES1    0.0000
     59 C37       -0.5799    7.6293   14.1435 C.ar      1 RES1    0.0000
     60 H23       -0.8393    6.8613   14.6002 H         1 RES1    0.0000
     61 C38       -0.7149    8.8687   14.7215 C.ar      1 RES1    0.0000
     62 H24       -1.0545    8.9350   15.5841 H         1 RES1    0.0000
     63 C39       -0.3527   10.0206   14.0432 C.ar      1 RES1    0.0000
     64 H25       -0.4602   10.8498   14.4490 H         1 RES1    0.0000
     65 C40        0.1675    9.9443   12.7644 C.ar      1 RES1    0.0000
     66 H26        0.4010   10.7160   12.3016 H         1 RES1    0.0000
     67 C41        0.1864    9.0713    9.6976 C.ar      1 RES1    0.0000
     68 C42       -0.6638    8.2146    9.0282 C.ar      1 RES1    0.0000
     69 C43       -1.3660    8.6523    7.9276 C.ar      1 RES1    0.0000
     70 H27       -1.9321    8.0745    7.4693 H         1 RES1    0.0000
     71 C44       -1.2169    9.9718    7.5098 C.ar      1 RES1    0.0000
     72 H28       -1.6863   10.2758    6.7670 H         1 RES1    0.0000
     73 C45       -0.3875   10.8261    8.1851 C.ar      1 RES1    0.0000
     74 H29       -0.3077   11.7078    7.9021 H         1 RES1    0.0000
     75 C46        0.3299   10.3921    9.2783 C.ar      1 RES1    0.0000
     76 H30        0.8998   10.9724    9.7290 H         1 RES1    0.0000
@<TRIPOS>BOND
     1    1    2 ar
     2    2    3 1
     3    4    2 ar
     4    5    4 1
     5    6    4 ar
     6    7    6 1
     7    8    6 ar
     8    9    8 1
     9   10    1 ar
    10   11   10 1
    11   12   11 1
    12   13   11 1
    13   14   11 1
    14   15   14 1
    15   16   15 1
    16   17   15 1
    17   18   14 1
    18   19    1 1
    19   20   19 1
    20   21   15 1
    21   22   21 ar
    22   23   22 1
    23   24   22 ar
    24   25   24 1
    25   26   24 ar
    26   27   26 1
    27   28   20 ar
    28   29   28 1
    29   30   18 ar
    30   31   19 1
    31   32   31 ar
    32   33   32 1
    33   34   32 ar
    34   35   34 1
    35   36   34 ar
    36   37   36 1
    37   38   30 ar
    38   39   38 ar
    39   40   39 ar
    40   41   40 1
    41   42   40 ar
    42   43   42 1
    43   44   42 ar
    44   45   44 1
    45   46   44 ar
    46   47   39 ar
    47   48   18 ar
    48   49   48 1
    49   50   46 1
    50   51   49 1
    51   52   51 1
    52   53   51 1
    53   54   49 1
    54   55   54 1
    55   56   54 1
    56   57   50 1
    57   58   54 1
    58   59   58 ar
    59   60   59 1
    60   61   59 ar
    61   62   61 1
    62   63   61 ar
    63   64   63 1
    64   65   57 ar
    65   66   65 1
    66   67   50 1
    67   68   51 1
    68   69   68 ar
    69   70   69 1
    70   71   69 ar
    71   72   71 1
    72   73   71 ar
    73   74   73 1
    74   75   67 ar
    75   76   75 1
    76    8   10 ar
    77   14   19 1
    78   20   21 ar
    79   26   28 ar
    80   30   31 ar
    81   36   38 ar
    82   46   47 ar
    83   47   48 ar
    84   49   50 1
    85   57   58 ar
    86   63   65 ar
    87   67   68 ar
    88   73   75 ar
@<TRIPOS>SUBSTRUCTURE
     1 RES1 1

@<TRIPOS>CRYSIN
  16.1050   12.5070   16.8440  90.0000 117.2500  90.0000 231 1

