# MOL2 file generated by ConQuest
# Please check atom types

@<TRIPOS>MOLECULE
KEKQUP
   128   142     2
SMALL
NO_CHARGES
****
Generated from CSD

@<TRIPOS>ATOM
      1 C1         1.2738   -3.2068    1.2051 C.3       1 RES1    0.0000
      2 H1         1.9475   -3.8565    1.4952 H         1 RES1    0.0000
      3 H2         1.2370   -3.1891    0.2260 H         1 RES1    0.0000
      4 H3         0.3973   -3.4646    1.5602 H         1 RES1    0.0000
      5 C2         1.6427   -1.8324    1.7213 C.ar      1 RES1    0.0000
      6 C3         2.3853   -1.5891    2.9138 C.ar      1 RES1    0.0000
      7 C4         2.5831   -2.6047    3.9721 C.ar      1 RES1    0.0000
      8 C5         1.6939   -3.6875    4.1328 C.ar      1 RES1    0.0000
      9 H4         0.9608   -3.7772    3.5359 H         1 RES1    0.0000
     10 C6         1.8633   -4.6185    5.1338 C.ar      1 RES1    0.0000
     11 H5         1.2531   -5.3417    5.2166 H         1 RES1    0.0000
     12 C7         2.9256   -4.5020    6.0239 C.ar      1 RES1    0.0000
     13 H6         3.0714   -5.1674    6.6862 H         1 RES1    0.0000
     14 C8         3.7635   -3.4152    5.9365 C.ar      1 RES1    0.0000
     15 H7         4.4702   -3.3229    6.5651 H         1 RES1    0.0000
     16 C9         3.6007   -2.4352    4.9376 C.ar      1 RES1    0.0000
     17 C10        4.4525   -1.2398    4.8811 C.ar      1 RES1    0.0000
     18 C11        5.6094   -1.1263    5.6705 C.ar      1 RES1    0.0000
     19 H8         5.8254   -1.8225    6.2798 H         1 RES1    0.0000
     20 C12        6.4360   -0.0323    5.5814 C.ar      1 RES1    0.0000
     21 H9         7.1990    0.0340    6.1432 H         1 RES1    0.0000
     22 C13        6.1547    0.9750    4.6709 C.ar      1 RES1    0.0000
     23 H10        6.7453    1.7134    4.5783 H         1 RES1    0.0000
     24 C14        5.0186    0.8996    3.9040 C.ar      1 RES1    0.0000
     25 H11        4.8316    1.5962    3.2857 H         1 RES1    0.0000
     26 C15        4.1204   -0.1843    4.0088 C.ar      1 RES1    0.0000
     27 C16        2.9519   -0.3026    3.1164 C.ar      1 RES1    0.0000
     28 C17        2.4581    0.7990    2.3705 C.ar      1 RES1    0.0000
     29 C18        1.6217    0.5503    1.2911 C.ar      1 RES1    0.0000
     30 H12        1.2610    1.2769    0.7967 H         1 RES1    0.0000
     31 C19        1.3100   -0.7475    0.9306 C.ar      1 RES1    0.0000
     32 H13        0.8530   -0.8991    0.1120 H         1 RES1    0.0000
     33 C20        2.6290    2.2203    2.8052 C.ar      1 RES1    0.0000
     34 C21        2.2036    2.4942    4.1019 C.ar      1 RES1    0.0000
     35 H14        1.8604    1.7896    4.6389 H         1 RES1    0.0000
     36 C22        2.2715    3.7677    4.6203 C.ar      1 RES1    0.0000
     37 H15        2.0976    3.8992    5.5450 H         1 RES1    0.0000
     38 C23        2.5849    4.8601    3.8348 C.ar      1 RES1    0.0000
     39 C24        2.7390    6.1984    4.5233 C.3       1 RES1    0.0000
     40 H16        1.8737    6.6583    4.5408 H         1 RES1    0.0000
     41 H17        3.3893    6.7445    4.0344 H         1 RES1    0.0000
     42 H18        3.0534    6.0593    5.4411 H         1 RES1    0.0000
     43 C25        2.8597    4.6297    2.4534 C.ar      1 RES1    0.0000
     44 C26        3.0600    3.2980    1.9874 C.ar      1 RES1    0.0000
     45 C27        3.8390    3.1171    0.7411 C.ar      1 RES1    0.0000
     46 C28        4.4023    1.8754    0.3843 C.ar      1 RES1    0.0000
     47 H19        4.2208    1.1150    0.9240 H         1 RES1    0.0000
     48 C29        5.2095    1.7308   -0.7245 C.ar      1 RES1    0.0000
     49 H20        5.5641    0.8779   -0.9463 H         1 RES1    0.0000
     50 C30        5.5029    2.8348   -1.5178 C.ar      1 RES1    0.0000
     51 H21        6.0515    2.7392   -2.2877 H         1 RES1    0.0000
     52 C31        4.9960    4.0608   -1.1792 C.ar      1 RES1    0.0000
     53 H22        5.2117    4.8139   -1.7164 H         1 RES1    0.0000
     54 C32        4.1620    4.2371   -0.0575 C.ar      1 RES1    0.0000
     55 C33        3.6058    5.5537    0.2573 C.ar      1 RES1    0.0000
     56 C34        3.7033    6.6437   -0.6243 C.ar      1 RES1    0.0000
     57 H23        4.2105    6.5509   -1.4223 H         1 RES1    0.0000
     58 C35        3.0817    7.8408   -0.3594 C.ar      1 RES1    0.0000
     59 H24        3.1794    8.5732   -0.9565 H         1 RES1    0.0000
     60 C36        2.3103    7.9711    0.7885 C.ar      1 RES1    0.0000
     61 H25        1.8278    8.7736    0.9483 H         1 RES1    0.0000
     62 C37        2.2456    6.9394    1.6917 C.ar      1 RES1    0.0000
     63 H26        1.7263    7.0477    2.4799 H         1 RES1    0.0000
     64 C38        2.9262    5.7268    1.4831 C.ar      1 RES1    0.0000
     65 C39        2.6421    2.5012   12.4791 C.3       2 RES2    0.0000
     66 H27        3.0537    2.5980   13.3632 H         2 RES2    0.0000
     67 H28        3.1097    1.8021   11.9760 H         2 RES2    0.0000
     68 H29        1.6996    2.2541   12.5828 H         2 RES2    0.0000
     69 C40        2.7406    3.8145   11.7295 C.ar      2 RES2    0.0000
     70 C41        2.9674    3.9310   10.3299 C.ar      2 RES2    0.0000
     71 C42        2.7309    2.8079    9.4084 C.ar      2 RES2    0.0000
     72 C43        1.7989    1.7993    9.7082 C.ar      2 RES2    0.0000
     73 H30        1.2973    1.8538   10.5130 H         2 RES2    0.0000
     74 C44        1.5979    0.7344    8.8598 C.ar      2 RES2    0.0000
     75 H31        0.9670    0.0609    9.0853 H         2 RES2    0.0000
     76 C45        2.3173    0.6428    7.6727 C.ar      2 RES2    0.0000
     77 H32        2.2173   -0.1167    7.1110 H         2 RES2    0.0000
     78 C46        3.1750    1.6602    7.3164 C.ar      2 RES2    0.0000
     79 H33        3.6430    1.6093    6.4912 H         2 RES2    0.0000
     80 C47        3.3701    2.7765    8.1571 C.ar      2 RES2    0.0000
     81 C48        4.2116    3.9026    7.7580 C.ar      2 RES2    0.0000
     82 C49        5.0497    3.8167    6.6323 C.ar      2 RES2    0.0000
     83 H34        5.0763    3.0063    6.1375 H         2 RES2    0.0000
     84 C50        5.8327    4.8723    6.2275 C.ar      2 RES2    0.0000
     85 H35        6.3913    4.7898    5.4638 H         2 RES2    0.0000
     86 C51        5.7971    6.0647    6.9484 C.ar      2 RES2    0.0000
     87 H36        6.3257    6.8039    6.6710 H         2 RES2    0.0000
     88 C52        4.9969    6.1694    8.0621 C.ar      2 RES2    0.0000
     89 H37        4.9971    6.9830    8.5526 H         2 RES2    0.0000
     90 C53        4.1751    5.1087    8.5005 C.ar      2 RES2    0.0000
     91 C54        3.4390    5.1552    9.7837 C.ar      2 RES2    0.0000
     92 C55        3.3190    6.3352   10.5710 C.ar      2 RES2    0.0000
     93 C56        2.9320    6.2154   11.8978 C.ar      2 RES2    0.0000
     94 H38        2.7981    7.0006   12.4155 H         2 RES2    0.0000
     95 C57        2.7367    4.9779   12.4832 C.ar      2 RES2    0.0000
     96 H39        2.5971    4.9239   13.4213 H         2 RES2    0.0000
     97 C58        3.4470    7.7364   10.0629 C.ar      2 RES2    0.0000
     98 C59        2.6078    8.1290    9.0439 C.ar      2 RES2    0.0000
     99 H40        2.0524    7.4853    8.6201 H         2 RES2    0.0000
    100 C60        2.5621    9.4530    8.6275 C.ar      2 RES2    0.0000
    101 H41        2.0656    9.6803    7.8501 H         2 RES2    0.0000
    102 C61        3.2302   10.4525    9.3277 C.ar      2 RES2    0.0000
    103 C62        3.1585   11.8453    8.7410 C.3       2 RES2    0.0000
    104 H42        2.3722   12.3094    9.0966 H         2 RES2    0.0000
    105 H43        3.0891   11.7854    7.7653 H         2 RES2    0.0000
    106 H44        3.9680   12.3428    8.9810 H         2 RES2    0.0000
    107 C63        3.9910   10.0899   10.4755 C.ar      2 RES2    0.0000
    108 C64        4.4781   11.0587   11.4787 C.ar      2 RES2    0.0000
    109 C65        3.8878   12.3295   11.6199 C.ar      2 RES2    0.0000
    110 H45        3.1978   12.5882   11.0198 H         2 RES2    0.0000
    111 C66        4.2840   13.2088   12.6068 C.ar      2 RES2    0.0000
    112 H46        3.8662   14.0589   12.6794 H         2 RES2    0.0000
    113 C67        5.2926   12.8546   13.4949 C.ar      2 RES2    0.0000
    114 H47        5.5933   13.4741   14.1492 H         2 RES2    0.0000
    115 C68        5.8525   11.5996   13.4195 C.ar      2 RES2    0.0000
    116 H48        6.5239   11.3512   14.0438 H         2 RES2    0.0000
    117 C69        5.4486   10.6732   12.4325 C.ar      2 RES2    0.0000
    118 C70        6.0049    9.3208   12.3863 C.ar      2 RES2    0.0000
    119 C71        7.1408    8.9586   13.1388 C.ar      2 RES2    0.0000
    120 H49        7.5314    9.5970   13.7241 H         2 RES2    0.0000
    121 C72        7.6974    7.7084   13.0473 C.ar      2 RES2    0.0000
    122 H50        8.4478    7.4789   13.5821 H         2 RES2    0.0000
    123 C73        7.1522    6.7749   12.1634 C.ar      2 RES2    0.0000
    124 H51        7.5565    5.9210   12.0634 H         2 RES2    0.0000
    125 C74        6.0311    7.0949   11.4394 C.ar      2 RES2    0.0000
    126 H52        5.6687    6.4506   10.8427 H         2 RES2    0.0000
    127 C75        5.4007    8.3510   11.5543 C.ar      2 RES2    0.0000
    128 C76        4.2482    8.7130   10.7140 C.ar      2 RES2    0.0000
@<TRIPOS>BOND
     1    1    2 1
     2    3    1 1
     3    4    1 1
     4    5    1 1
     5    6    5 ar
     6    7    6 ar
     7    8    7 ar
     8    9    8 1
     9   10    8 ar
    10   11   10 1
    11   12   10 ar
    12   13   12 1
    13   14   12 ar
    14   15   14 1
    15   16    7 ar
    16   17   16 ar
    17   18   17 ar
    18   19   18 1
    19   20   18 ar
    20   21   20 1
    21   22   20 ar
    22   23   22 1
    23   24   22 ar
    24   25   24 1
    25   26   17 ar
    26   27    6 ar
    27   28   27 ar
    28   29   28 ar
    29   30   29 1
    30   31    5 ar
    31   32   31 1
    32   33   28 1
    33   34   33 ar
    34   35   34 1
    35   36   34 ar
    36   37   36 1
    37   38   36 ar
    38   39   38 1
    39   40   39 1
    40   41   39 1
    41   42   39 1
    42   43   38 ar
    43   44   33 ar
    44   45   44 ar
    45   46   45 ar
    46   47   46 1
    47   48   46 ar
    48   49   48 1
    49   50   48 ar
    50   51   50 1
    51   52   50 ar
    52   53   52 1
    53   54   45 ar
    54   55   54 ar
    55   56   55 ar
    56   57   56 1
    57   58   56 ar
    58   59   58 1
    59   60   58 ar
    60   61   60 1
    61   62   60 ar
    62   63   62 1
    63   64   43 ar
    64   65   66 1
    65   67   65 1
    66   68   65 1
    67   69   65 1
    68   70   69 ar
    69   71   70 ar
    70   72   71 ar
    71   73   72 1
    72   74   72 ar
    73   75   74 1
    74   76   74 ar
    75   77   76 1
    76   78   76 ar
    77   79   78 1
    78   80   71 ar
    79   81   80 ar
    80   82   81 ar
    81   83   82 1
    82   84   82 ar
    83   85   84 1
    84   86   84 ar
    85   87   86 1
    86   88   86 ar
    87   89   88 1
    88   90   81 ar
    89   91   70 ar
    90   92   91 ar
    91   93   92 ar
    92   94   93 1
    93   95   69 ar
    94   96   95 1
    95   97   92 1
    96   98   97 ar
    97   99   98 1
    98  100   98 ar
    99  101  100 1
   100  102  100 ar
   101  103  102 1
   102  104  103 1
   103  105  103 1
   104  106  103 1
   105  107  102 ar
   106  108  107 ar
   107  109  108 ar
   108  110  109 1
   109  111  109 ar
   110  112  111 1
   111  113  111 ar
   112  114  113 1
   113  115  113 ar
   114  116  115 1
   115  117  108 ar
   116  118  117 ar
   117  119  118 ar
   118  120  119 1
   119  121  119 ar
   120  122  121 1
   121  123  121 ar
   122  124  123 1
   123  125  123 ar
   124  126  125 1
   125  127  118 ar
   126  128   97 ar
   127   14   16 ar
   128   24   26 ar
   129   26   27 ar
   130   29   31 ar
   131   43   44 ar
   132   52   54 ar
   133   55   64 ar
   134   62   64 ar
   135   78   80 ar
   136   88   90 ar
   137   90   91 ar
   138   93   95 ar
   139  107  128 ar
   140  115  117 ar
   141  125  127 ar
   142  127  128 ar
@<TRIPOS>SUBSTRUCTURE
     1 RES1 1
     2 RES2 65

@<TRIPOS>CRYSIN
  11.0483   14.7310   15.5652  88.2278  87.5929  82.8448   2 1

