# MOL2 file generated by ConQuest
# Please check atom types

@<TRIPOS>MOLECULE
KENXAD
    57    64     1
SMALL
NO_CHARGES
****
Generated from CSD

@<TRIPOS>ATOM
      1 C1         3.3188    2.6845   -0.4741 C.3       1 RES1    0.0000
      2 C2         2.6724    3.5465    0.6241 C.ar      1 RES1    0.0000
      3 C3         3.3977    4.5464    1.2590 C.ar      1 RES1    0.0000
      4 H1         4.2997    4.6523    1.0617 H         1 RES1    0.0000
      5 C4         2.8027    5.3860    2.1782 C.ar      1 RES1    0.0000
      6 H2         3.3035    6.0464    2.5985 H         1 RES1    0.0000
      7 C5         1.4570    5.2419    2.4719 C.ar      1 RES1    0.0000
      8 H3         1.0517    5.8018    3.0945 H         1 RES1    0.0000
      9 C6         0.7251    4.2697    1.8426 C.ar      1 RES1    0.0000
     10 H4        -0.1801    4.1753    2.0328 H         1 RES1    0.0000
     11 C7         1.3280    3.4264    0.9223 C.ar      1 RES1    0.0000
     12 H5         0.8218    2.7707    0.4995 H         1 RES1    0.0000
     13 C8         3.0969    3.4448   -1.7927 C.ar      1 RES1    0.0000
     14 C9         3.4368    4.7471   -2.1084 C.ar      1 RES1    0.0000
     15 H6         3.8849    5.2812   -1.4933 H         1 RES1    0.0000
     16 C10        3.0988    5.2462   -3.3592 C.ar      1 RES1    0.0000
     17 H7         3.3198    6.1224   -3.5801 H         1 RES1    0.0000
     18 C11        2.4394    4.4592   -4.2785 C.ar      1 RES1    0.0000
     19 H8         2.2237    4.8095   -5.1134 H         1 RES1    0.0000
     20 C12        2.0954    3.1612   -3.9769 C.ar      1 RES1    0.0000
     21 H9         1.6553    2.6301   -4.6000 H         1 RES1    0.0000
     22 C13        2.4200    2.6607   -2.7203 C.ar      1 RES1    0.0000
     23 C14        2.1177    1.3696   -2.1065 C.ar      1 RES1    0.0000
     24 C15        1.4572    0.2690   -2.6375 C.ar      1 RES1    0.0000
     25 H10        1.1607    0.2769   -3.5192 H         1 RES1    0.0000
     26 C16        1.2488   -0.8255   -1.8436 C.ar      1 RES1    0.0000
     27 H11        0.8077   -1.5671   -2.1895 H         1 RES1    0.0000
     28 C17        1.6879   -0.8403   -0.5329 C.ar      1 RES1    0.0000
     29 H12        1.5312   -1.5880   -0.0035 H         1 RES1    0.0000
     30 C18        2.3600    0.2499   -0.0014 C.ar      1 RES1    0.0000
     31 H13        2.6611    0.2297    0.8789 H         1 RES1    0.0000
     32 C19        2.5808    1.3691   -0.7877 C.ar      1 RES1    0.0000
     33 C20        4.8236    2.3903   -0.2148 C.ar      1 RES1    0.0000
     34 C21        5.7321    2.5814   -1.2418 C.ar      1 RES1    0.0000
     35 H14        5.4238    2.9096   -2.0555 H         1 RES1    0.0000
     36 C22        7.0802    2.3034   -1.1040 C.ar      1 RES1    0.0000
     37 H15        7.6540    2.4493   -1.8205 H         1 RES1    0.0000
     38 C23        7.5867    1.8106    0.0855 C.ar      1 RES1    0.0000
     39 C24        8.9843    1.5060    0.2586 C.ar      1 RES1    0.0000
     40 H16        9.5748    1.6562   -0.4438 H         1 RES1    0.0000
     41 C25        9.4497    1.0106    1.4122 C.ar      1 RES1    0.0000
     42 H17       10.3607    0.8412    1.4985 H         1 RES1    0.0000
     43 C26        8.5825    0.7364    2.5115 C.ar      1 RES1    0.0000
     44 C27        7.1938    1.0050    2.3677 C.ar      1 RES1    0.0000
     45 C28        6.6922    1.5746    1.1536 C.ar      1 RES1    0.0000
     46 C29        5.2982    1.8612    1.0131 C.ar      1 RES1    0.0000
     47 C30        4.4615    1.5649    2.1487 C.ar      1 RES1    0.0000
     48 H18        3.5572    1.7750    2.1042 H         1 RES1    0.0000
     49 C31        4.9390    0.9961    3.2720 C.ar      1 RES1    0.0000
     50 H19        4.3504    0.8036    3.9665 H         1 RES1    0.0000
     51 C32        6.3165    0.6819    3.4257 C.ar      1 RES1    0.0000
     52 C33        6.8195    0.0856    4.5897 C.ar      1 RES1    0.0000
     53 H20        6.2388   -0.1529    5.2753 H         1 RES1    0.0000
     54 C34        8.1701   -0.1502    4.7239 C.ar      1 RES1    0.0000
     55 H21        8.4960   -0.5293    5.5085 H         1 RES1    0.0000
     56 C35        9.0388    0.1712    3.7091 C.ar      1 RES1    0.0000
     57 H22        9.9480    0.0096    3.8185 H         1 RES1    0.0000
@<TRIPOS>BOND
     1    1    2 1
     2    2    3 ar
     3    3    4 1
     4    5    3 ar
     5    6    5 1
     6    7    5 ar
     7    8    7 1
     8    9    7 ar
     9   10    9 1
    10   11    2 ar
    11   12   11 1
    12   13    1 1
    13   14   13 ar
    14   15   14 1
    15   16   14 ar
    16   17   16 1
    17   18   16 ar
    18   19   18 1
    19   20   18 ar
    20   21   20 1
    21   22   13 ar
    22   23   22 1
    23   24   23 ar
    24   25   24 1
    25   26   24 ar
    26   27   26 1
    27   28   26 ar
    28   29   28 1
    29   30   28 ar
    30   31   30 1
    31   32    1 1
    32   33    1 1
    33   34   33 ar
    34   35   34 1
    35   36   34 ar
    36   37   36 1
    37   38   36 ar
    38   39   38 ar
    39   40   39 1
    40   41   39 ar
    41   42   41 1
    42   43   41 ar
    43   44   43 ar
    44   45   38 ar
    45   46   33 ar
    46   47   46 ar
    47   48   47 1
    48   49   47 ar
    49   50   49 1
    50   51   44 ar
    51   52   51 ar
    52   53   52 1
    53   54   52 ar
    54   55   54 1
    55   56   43 ar
    56   57   56 1
    57    9   11 ar
    58   20   22 ar
    59   23   32 ar
    60   30   32 ar
    61   44   45 ar
    62   45   46 ar
    63   49   51 ar
    64   54   56 ar
@<TRIPOS>SUBSTRUCTURE
     1 RES1 1

@<TRIPOS>CRYSIN
  14.9220    8.7350   17.4500  90.0000  94.1430  90.0000  14 1

