# MOL2 file generated by ConQuest
# Please check atom types

@<TRIPOS>MOLECULE
KEQKUN01
    59    66     1
SMALL
NO_CHARGES
****
Generated from CSD

@<TRIPOS>ATOM
      1 C1        10.8389    8.1821    1.3975 C.ar      1 RES1    0.0000
      2 C2        10.0671    7.5958    2.4074 C.ar      1 RES1    0.0000
      3 C3        10.0343    6.1515    2.1778 C.ar      1 RES1    0.0000
      4 C4         9.4324    5.1260    2.8896 C.ar      1 RES1    0.0000
      5 C5         9.6119    3.8152    2.4573 C.ar      1 RES1    0.0000
      6 C6        10.3809    3.5043    1.3408 C.ar      1 RES1    0.0000
      7 C7        10.9630    4.5579    0.6209 C.ar      1 RES1    0.0000
      8 C8        10.7959    5.8606    1.0362 C.ar      1 RES1    0.0000
      9 C9        11.3174    7.1309    0.4666 C.3       1 RES1    0.0000
     10 C10       11.4172    7.3685   -1.0271 C.3       1 RES1    0.0000
     11 C11       12.6535    7.2176   -0.2355 C.3       1 RES1    0.0000
     12 C12       11.0673    9.5452    1.3930 C.ar      1 RES1    0.0000
     13 C13       10.5350   10.3505    2.3992 C.ar      1 RES1    0.0000
     14 C14        9.7476    9.7526    3.3845 C.ar      1 RES1    0.0000
     15 C15        9.5060    8.3842    3.3920 C.ar      1 RES1    0.0000
     16 C16       10.7434   11.8242    2.3798 C.ar      1 RES1    0.0000
     17 C17        9.6603   12.6540    2.4797 C.ar      1 RES1    0.0000
     18 C18        9.7861   14.0491    2.3656 C.ar      1 RES1    0.0000
     19 C19       10.9999   14.5971    2.1428 C.ar      1 RES1    0.0000
     20 C20       12.1669   13.7965    2.0906 C.ar      1 RES1    0.0000
     21 C21       13.4539   14.3637    1.9177 C.ar      1 RES1    0.0000
     22 C22       14.5603   13.5968    1.9483 C.ar      1 RES1    0.0000
     23 C23       14.4593   12.2239    2.1443 C.ar      1 RES1    0.0000
     24 C24       13.2400   11.6452    2.2680 C.ar      1 RES1    0.0000
     25 C25       12.0440   12.3988    2.2233 C.ar      1 RES1    0.0000
     26 C26       10.5376    2.0880    0.9085 C.ar      1 RES1    0.0000
     27 C27        9.4330    1.3392    0.6410 C.ar      1 RES1    0.0000
     28 C28        9.5185    0.0108    0.2109 C.ar      1 RES1    0.0000
     29 C29       10.7205   -0.5533    0.0328 C.ar      1 RES1    0.0000
     30 C30       11.9045    0.1544    0.2959 C.ar      1 RES1    0.0000
     31 C31       13.1816   -0.4152    0.1222 C.ar      1 RES1    0.0000
     32 C32       14.3066    0.2584    0.4047 C.ar      1 RES1    0.0000
     33 C33       14.2419    1.5621    0.8966 C.ar      1 RES1    0.0000
     34 C34       13.0272    2.1721    1.0718 C.ar      1 RES1    0.0000
     35 C35       11.8226    1.4986    0.7565 C.ar      1 RES1    0.0000
     36 H1         8.9257    5.3217    3.6446 H         1 RES1    0.0000
     37 H2         9.2103    3.1274    2.9381 H         1 RES1    0.0000
     38 H3        11.4682    4.3740   -0.1379 H         1 RES1    0.0000
     39 H4        11.1489    6.6740   -1.6501 H         1 RES1    0.0000
     40 H5        11.1766    8.2359   -1.3878 H         1 RES1    0.0000
     41 H6        13.2262    7.9844   -0.0775 H         1 RES1    0.0000
     42 H7        13.1985    6.4225   -0.3399 H         1 RES1    0.0000
     43 H8        11.5931    9.9272    0.7289 H         1 RES1    0.0000
     44 H9         9.3700   10.2953    4.0389 H         1 RES1    0.0000
     45 H10        8.9951    7.9971    4.0650 H         1 RES1    0.0000
     46 H11        8.8215   12.2782    2.6258 H         1 RES1    0.0000
     47 H12        9.0350   14.5891    2.4521 H         1 RES1    0.0000
     48 H13       11.0690   15.5168    2.0265 H         1 RES1    0.0000
     49 H14       13.5404   15.2744    1.7552 H         1 RES1    0.0000
     50 H15       15.3974   13.9932    1.8596 H         1 RES1    0.0000
     51 H16       15.2290   11.7041    2.1726 H         1 RES1    0.0000
     52 H17       13.1794   10.7254    2.3873 H         1 RES1    0.0000
     53 H18        8.5977    1.7132    0.8042 H         1 RES1    0.0000
     54 H19        8.7556   -0.4811    0.0104 H         1 RES1    0.0000
     55 H20       10.7775   -1.4197   -0.3011 H         1 RES1    0.0000
     56 H21       13.2575   -1.2758   -0.2229 H         1 RES1    0.0000
     57 H22       15.1353   -0.1440    0.2765 H         1 RES1    0.0000
     58 H23       15.0294    2.0029    1.1210 H         1 RES1    0.0000
     59 H24       12.9954    3.0399    1.4034 H         1 RES1    0.0000
@<TRIPOS>BOND
     1    1    2 ar
     2    2    3 1
     3    3    4 ar
     4    4    5 ar
     5    5    6 ar
     6    6    7 ar
     7    7    8 ar
     8    8    3 ar
     9    9    1 1
    10   10    9 1
    11   11    9 1
    12   12    1 ar
    13   13   12 ar
    14   14   13 ar
    15   15    2 ar
    16   16   13 1
    17   17   16 ar
    18   18   17 ar
    19   19   18 ar
    20   20   19 ar
    21   21   20 ar
    22   22   21 ar
    23   23   22 ar
    24   24   23 ar
    25   25   16 ar
    26   26    6 1
    27   27   26 ar
    28   28   27 ar
    29   29   28 ar
    30   30   29 ar
    31   31   30 ar
    32   32   31 ar
    33   33   32 ar
    34   34   33 ar
    35   35   26 ar
    36   36    4 1
    37   37    5 1
    38   38    7 1
    39   39   10 1
    40   40   10 1
    41   41   11 1
    42   42   11 1
    43   43   12 1
    44   44   14 1
    45   45   15 1
    46   46   17 1
    47   47   18 1
    48   48   19 1
    49   49   21 1
    50   50   22 1
    51   51   23 1
    52   52   24 1
    53   53   27 1
    54   54   28 1
    55   55   29 1
    56   56   31 1
    57   57   32 1
    58   58   33 1
    59   59   34 1
    60    8    9 1
    61   10   11 1
    62   14   15 ar
    63   20   25 ar
    64   24   25 ar
    65   30   35 ar
    66   34   35 ar
@<TRIPOS>SUBSTRUCTURE
     1 RES1 1

@<TRIPOS>CRYSIN
  17.3550   18.2250    7.4532  90.0000  90.0000  90.0000  29 1

