# MOL2 file generated by ConQuest
# Please check atom types

@<TRIPOS>MOLECULE
KEVDUL
    70    75     1
SMALL
NO_CHARGES
****
Generated from CSD

@<TRIPOS>ATOM
      1 C1         6.6268    2.1811    7.6483 C.3       1 RES1    0.0000
      2 C2         7.5061    1.6333    6.5676 C.ar      1 RES1    0.0000
      3 C3         8.5429    0.7015    6.7187 C.ar      1 RES1    0.0000
      4 C4         9.1328    0.1731    5.6133 C.ar      1 RES1    0.0000
      5 C5         8.6056    0.4367    4.3258 C.ar      1 RES1    0.0000
      6 C6         9.0742   -0.2774    3.1993 C.ar      1 RES1    0.0000
      7 C7         8.4487   -0.1905    1.9961 C.ar      1 RES1    0.0000
      8 C8         7.3085    0.6265    1.8608 C.ar      1 RES1    0.0000
      9 C9         6.8733    1.3846    2.9071 C.ar      1 RES1    0.0000
     10 C10        7.5189    1.3449    4.1642 C.ar      1 RES1    0.0000
     11 C11        7.0887    2.0827    5.3181 C.ar      1 RES1    0.0000
     12 C12        6.0620    3.1136    5.4763 C.2       1 RES1    0.0000
     13 C13        5.8975    3.3584    6.9906 C.3       1 RES1    0.0000
     14 C14        6.4946    4.7411    7.4546 C.3       1 RES1    0.0000
     15 C15        8.0045    4.7836    7.2559 C.3       1 RES1    0.0000
     16 C16        5.8852    5.9277    6.7231 C.3       1 RES1    0.0000
     17 C17        6.1984    4.9159    8.9396 C.3       1 RES1    0.0000
     18 C18        3.4379    5.1985    3.8618 C.3       1 RES1    0.0000
     19 C19        4.4769    5.0947    2.7937 C.ar      1 RES1    0.0000
     20 C20        4.4268    5.6984    1.5273 C.ar      1 RES1    0.0000
     21 C21        5.5073    5.6466    0.7166 C.ar      1 RES1    0.0000
     22 C22        6.7357    5.0852    1.1690 C.ar      1 RES1    0.0000
     23 C23        7.8923    5.1312    0.3617 C.ar      1 RES1    0.0000
     24 C24        9.0943    4.6750    0.8114 C.ar      1 RES1    0.0000
     25 C25        9.1961    4.1931    2.1270 C.ar      1 RES1    0.0000
     26 C26        8.0935    4.1122    2.9300 C.ar      1 RES1    0.0000
     27 C27        6.8101    4.4914    2.4753 C.ar      1 RES1    0.0000
     28 C28        5.5886    4.3833    3.2371 C.ar      1 RES1    0.0000
     29 C29        5.2968    3.8048    4.5606 C.2       1 RES1    0.0000
     30 C30        3.8167    4.1252    4.8790 C.3       1 RES1    0.0000
     31 C31        2.8825    2.8598    4.7595 C.3       1 RES1    0.0000
     32 C32        1.4721    3.2936    5.2104 C.3       1 RES1    0.0000
     33 C33        2.8241    2.3329    3.3216 C.3       1 RES1    0.0000
     34 C34        3.3174    1.7064    5.6620 C.3       1 RES1    0.0000
     35 H1         5.9450    1.4119    7.9937 H         1 RES1    0.0000
     36 H2         7.1132    2.4114    8.4595 H         1 RES1    0.0000
     37 H3         8.8519    0.4344    7.5804 H         1 RES1    0.0000
     38 H4         9.8764   -0.4397    5.6995 H         1 RES1    0.0000
     39 H5         9.7886   -0.9177    3.3128 H         1 RES1    0.0000
     40 H6         8.7177   -0.7672    1.2463 H         1 RES1    0.0000
     41 H7         6.8163    0.6368    1.0276 H         1 RES1    0.0000
     42 H8         6.0897    1.9114    2.7953 H         1 RES1    0.0000
     43 H9         4.9327    3.3752    7.2617 H         1 RES1    0.0000
     44 H10        8.3778    5.6896    7.5397 H         1 RES1    0.0000
     45 H11        8.4596    4.0820    7.7875 H         1 RES1    0.0000
     46 H12        8.2350    4.6984    6.3278 H         1 RES1    0.0000
     47 H13        6.0678    5.8146    5.7364 H         1 RES1    0.0000
     48 H14        6.2694    6.7318    7.1015 H         1 RES1    0.0000
     49 H15        4.8688    5.9496    6.8435 H         1 RES1    0.0000
     50 H16        6.4696    5.7763    9.2517 H         1 RES1    0.0000
     51 H17        6.6841    4.1541    9.4586 H         1 RES1    0.0000
     52 H18        5.2464    4.8466    9.0962 H         1 RES1    0.0000
     53 H19        2.5146    5.0845    3.4839 H         1 RES1    0.0000
     54 H20        3.5231    6.1387    4.2405 H         1 RES1    0.0000
     55 H21        3.5772    6.1542    1.2723 H         1 RES1    0.0000
     56 H22        5.5142    6.0191   -0.1768 H         1 RES1    0.0000
     57 H23        7.7894    5.4793   -0.5041 H         1 RES1    0.0000
     58 H24        9.9317    4.6758    0.3029 H         1 RES1    0.0000
     59 H25       10.0603    3.8992    2.4798 H         1 RES1    0.0000
     60 H26        8.2073    3.7991    3.8489 H         1 RES1    0.0000
     61 H27        3.6939    4.4303    5.8097 H         1 RES1    0.0000
     62 H28        1.1101    4.0599    4.6310 H         1 RES1    0.0000
     63 H29        1.4909    3.6187    6.1803 H         1 RES1    0.0000
     64 H30        0.8705    2.5723    5.1095 H         1 RES1    0.0000
     65 H31        3.7431    1.9620    3.0267 H         1 RES1    0.0000
     66 H32        2.5530    3.0629    2.6077 H         1 RES1    0.0000
     67 H33        2.1914    1.5750    3.2681 H         1 RES1    0.0000
     68 H34        4.2009    1.3400    5.4263 H         1 RES1    0.0000
     69 H35        3.3313    1.9725    6.6314 H         1 RES1    0.0000
     70 H36        2.6297    1.0119    5.5864 H         1 RES1    0.0000
@<TRIPOS>BOND
     1    1    2 1
     2    2    3 ar
     3    3    4 ar
     4    4    5 ar
     5    5    6 ar
     6    6    7 ar
     7    7    8 ar
     8    8    9 ar
     9    9   10 ar
    10   10    5 ar
    11   11    2 ar
    12   12   11 1
    13   13    1 1
    14   14   13 1
    15   15   14 1
    16   16   14 1
    17   17   14 1
    18   18   19 1
    19   19   20 ar
    20   20   21 ar
    21   21   22 ar
    22   22   23 ar
    23   23   24 ar
    24   24   25 ar
    25   25   26 ar
    26   26   27 ar
    27   27   22 ar
    28   28   19 ar
    29   29   12 2
    30   30   18 1
    31   31   30 1
    32   32   31 1
    33   33   31 1
    34   34   31 1
    35   35    1 1
    36   36    1 1
    37   37    3 1
    38   38    4 1
    39   39    6 1
    40   40    7 1
    41   41    8 1
    42   42    9 1
    43   43   13 1
    44   44   15 1
    45   45   15 1
    46   46   15 1
    47   47   16 1
    48   48   16 1
    49   49   16 1
    50   50   17 1
    51   51   17 1
    52   52   17 1
    53   53   18 1
    54   54   18 1
    55   55   20 1
    56   56   21 1
    57   57   23 1
    58   58   24 1
    59   59   25 1
    60   60   26 1
    61   61   30 1
    62   62   32 1
    63   63   32 1
    64   64   32 1
    65   65   33 1
    66   66   33 1
    67   67   33 1
    68   68   34 1
    69   69   34 1
    70   70   34 1
    71   10   11 ar
    72   12   13 1
    73   27   28 ar
    74   28   29 1
    75   29   30 1
@<TRIPOS>SUBSTRUCTURE
     1 RES1 1

@<TRIPOS>CRYSIN
   9.7582   14.4454   17.9150  90.0000  90.0000  90.0000  19 1

