# MOL2 file generated by ConQuest
# Please check atom types

@<TRIPOS>MOLECULE
KEYDIB
    64    67     1
SMALL
NO_CHARGES
****
Generated from CSD

@<TRIPOS>ATOM
      1 C1         3.5097   -2.7276    5.1368 C.3       1 RES1    0.0000
      2 C2         2.6033   -1.7814    4.3301 C.3       1 RES1    0.0000
      3 C3         3.3707   -0.5197    3.7517 C.3       1 RES1    0.0000
      4 C4         3.5303    0.5851    4.7925 C.ar      1 RES1    0.0000
      5 C5         4.4110    0.4298    5.8457 C.ar      1 RES1    0.0000
      6 C6         4.5371    1.3859    6.8661 C.ar      1 RES1    0.0000
      7 C7         3.7878    2.5185    6.8524 C.ar      1 RES1    0.0000
      8 C8         2.9046    2.7620    5.7719 C.ar      1 RES1    0.0000
      9 C9         2.1347    3.9599    5.7128 C.ar      1 RES1    0.0000
     10 C10        1.2927    4.2067    4.6868 C.ar      1 RES1    0.0000
     11 C11        1.1588    3.2751    3.6517 C.ar      1 RES1    0.0000
     12 C12        1.8720    2.1099    3.6699 C.ar      1 RES1    0.0000
     13 C13        2.7656    1.7961    4.7255 C.ar      1 RES1    0.0000
     14 C14        4.7534   -0.7796    3.0246 C.3       1 RES1    0.0000
     15 C15        5.2092    0.5230    2.3622 C.ar      1 RES1    0.0000
     16 C16        6.0049    1.4464    3.0382 C.ar      1 RES1    0.0000
     17 C17        6.3706    2.6361    2.4337 C.ar      1 RES1    0.0000
     18 C18        5.9663    2.9287    1.1544 C.ar      1 RES1    0.0000
     19 C19        5.1989    2.0086    0.4522 C.ar      1 RES1    0.0000
     20 C20        4.8050    0.8041    1.0476 C.ar      1 RES1    0.0000
     21 C21        4.0247   -0.2223    0.2920 C.2       1 RES1    0.0000
     22 C22        4.3106   -1.6016    0.7363 C.2       1 RES1    0.0000
     23 C23        4.6865   -1.8582    1.9759 C.2       1 RES1    0.0000
     24 C24        3.1518    0.1079   -0.6715 C.2       1 RES1    0.0000
     25 C25        2.2377   -0.7747   -1.5089 C.3       1 RES1    0.0000
     26 C26        3.0411   -1.6866   -2.4508 C.3       1 RES1    0.0000
     27 C27        1.3287   -1.6261   -0.6135 C.3       1 RES1    0.0000
     28 C28        1.3493    0.1324   -2.3769 C.3       1 RES1    0.0000
     29 C29        1.4652   -1.2878    5.2379 C.3       1 RES1    0.0000
     30 C30        1.9364   -2.5871    3.2098 C.3       1 RES1    0.0000
     31 H1         4.2385   -3.0186    4.5857 H         1 RES1    0.0000
     32 H2         3.0076   -3.5007    5.4254 H         1 RES1    0.0000
     33 H3         3.8522   -2.2700    5.9082 H         1 RES1    0.0000
     34 H4         2.7990   -0.1569    3.0359 H         1 RES1    0.0000
     35 H5         4.9672   -0.3579    5.8628 H         1 RES1    0.0000
     36 H6         5.1577    1.2404    7.5830 H         1 RES1    0.0000
     37 H7         3.8651    3.1477    7.5762 H         1 RES1    0.0000
     38 H8         2.1862    4.5891    6.4638 H         1 RES1    0.0000
     39 H9         0.7880    5.0271    4.6607 H         1 RES1    0.0000
     40 H10        0.5459    3.4598    2.9280 H         1 RES1    0.0000
     41 H11        1.7613    1.4938    2.9337 H         1 RES1    0.0000
     42 H12        5.3715   -1.0361    3.6915 H         1 RES1    0.0000
     43 H13        6.3036    1.2502    3.9528 H         1 RES1    0.0000
     44 H14        6.9062    3.2637    2.9473 H         1 RES1    0.0000
     45 H15        6.2238    3.7638    0.7476 H         1 RES1    0.0000
     46 H16        4.9466    2.2079   -0.4579 H         1 RES1    0.0000
     47 H17        4.2256   -2.3289    0.1113 H         1 RES1    0.0000
     48 H18        4.9208   -2.7636    2.2213 H         1 RES1    0.0000
     49 H19        3.1054    1.0509   -0.8533 H         1 RES1    0.0000
     50 H20        3.5998   -2.2717   -1.9452 H         1 RES1    0.0000
     51 H21        3.5793   -1.1522   -3.0427 H         1 RES1    0.0000
     52 H22        2.4334   -2.2194   -2.9893 H         1 RES1    0.0000
     53 H23        0.7493   -2.1834   -1.1510 H         1 RES1    0.0000
     54 H24        0.7751   -1.0574   -0.0614 H         1 RES1    0.0000
     55 H25        1.8566   -2.1900   -0.0420 H         1 RES1    0.0000
     56 H26        0.8137    0.7044   -1.8179 H         1 RES1    0.0000
     57 H27        0.7545   -0.4102   -2.9189 H         1 RES1    0.0000
     58 H28        1.8901    0.6684   -2.9575 H         1 RES1    0.0000
     59 H29        1.8283   -0.8122    5.9957 H         1 RES1    0.0000
     60 H30        0.9528   -2.0396    5.5753 H         1 RES1    0.0000
     61 H31        0.8781   -0.7060    4.7550 H         1 RES1    0.0000
     62 H32        2.6008   -2.8943    2.5894 H         1 RES1    0.0000
     63 H33        1.3055   -2.0233    2.7360 H         1 RES1    0.0000
     64 H34        1.4626   -3.3421    3.5699 H         1 RES1    0.0000
@<TRIPOS>BOND
     1    1    2 1
     2    2    3 1
     3    3    4 1
     4    4    5 ar
     5    5    6 ar
     6    6    7 ar
     7    7    8 ar
     8    8    9 ar
     9    9   10 ar
    10   10   11 ar
    11   11   12 ar
    12   12   13 ar
    13   13    4 ar
    14   14    3 1
    15   15   14 1
    16   16   15 ar
    17   17   16 ar
    18   18   17 ar
    19   19   18 ar
    20   20   15 ar
    21   21   20 1
    22   22   21 1
    23   23   14 1
    24   24   21 2
    25   25   24 1
    26   26   25 1
    27   27   25 1
    28   28   25 1
    29   29    2 1
    30   30    2 1
    31   31    1 1
    32   32    1 1
    33   33    1 1
    34   34    3 1
    35   35    5 1
    36   36    6 1
    37   37    7 1
    38   38    9 1
    39   39   10 1
    40   40   11 1
    41   41   12 1
    42   42   14 1
    43   43   16 1
    44   44   17 1
    45   45   18 1
    46   46   19 1
    47   47   22 1
    48   48   23 1
    49   49   24 1
    50   50   26 1
    51   51   26 1
    52   52   26 1
    53   53   27 1
    54   54   27 1
    55   55   27 1
    56   56   28 1
    57   57   28 1
    58   58   28 1
    59   59   29 1
    60   60   29 1
    61   61   29 1
    62   62   30 1
    63   63   30 1
    64   64   30 1
    65    8   13 ar
    66   19   20 ar
    67   22   23 2
@<TRIPOS>SUBSTRUCTURE
     1 RES1 1

@<TRIPOS>CRYSIN
  25.7500   16.3430   11.3620  90.0000  90.0000  90.0000  61 1

