# MOL2 file generated by ConQuest
# Please check atom types

@<TRIPOS>MOLECULE
KEYGIF
    70    75     1
SMALL
NO_CHARGES
****
Generated from CSD

@<TRIPOS>ATOM
      1 C1         2.6948    9.3247    3.8451 C.2       1 RES1    0.0000
      2 C2         2.1916   10.0262    2.5676 C.3       1 RES1    0.0000
      3 C3         3.2646   11.1347    2.4016 C.3       1 RES1    0.0000
      4 C4         3.6486   11.4501    3.8222 C.ar      1 RES1    0.0000
      5 C5         4.2302   12.6378    4.3028 C.ar      1 RES1    0.0000
      6 C6         4.3366   12.8291    5.6545 C.ar      1 RES1    0.0000
      7 C7         3.8265   11.8693    6.5685 C.ar      1 RES1    0.0000
      8 C8         3.8003   12.1278    7.9656 C.ar      1 RES1    0.0000
      9 C9         3.2189   11.2575    8.8346 C.ar      1 RES1    0.0000
     10 C10        2.6291   10.0701    8.3573 C.ar      1 RES1    0.0000
     11 C11        2.6660    9.7620    7.0226 C.ar      1 RES1    0.0000
     12 C12        3.2674   10.6426    6.0836 C.ar      1 RES1    0.0000
     13 C13        3.2499   10.4341    4.6710 C.ar      1 RES1    0.0000
     14 C14        0.7302   10.5805    2.6564 C.3       1 RES1    0.0000
     15 C15        0.5122   11.5386    3.8389 C.3       1 RES1    0.0000
     16 C16        0.3878   11.3088    1.3478 C.3       1 RES1    0.0000
     17 C17       -0.2549    9.4155    2.8010 C.3       1 RES1    0.0000
     18 C18        2.7720    7.9831    4.0002 C.2       1 RES1    0.0000
     19 C19        2.1035    6.9714    3.0605 C.3       1 RES1    0.0000
     20 C20        1.4712    5.9921    4.0842 C.3       1 RES1    0.0000
     21 C21        2.4412    6.0378    5.2367 C.ar      1 RES1    0.0000
     22 C22        2.6310    5.0718    6.2449 C.ar      1 RES1    0.0000
     23 C23        3.6824    5.2090    7.1085 C.ar      1 RES1    0.0000
     24 C24        4.6034    6.2806    6.9842 C.ar      1 RES1    0.0000
     25 C25        5.7699    6.3604    7.7985 C.ar      1 RES1    0.0000
     26 C26        6.7078    7.3322    7.5999 C.ar      1 RES1    0.0000
     27 C27        6.5252    8.2920    6.5830 C.ar      1 RES1    0.0000
     28 C28        5.3968    8.2710    5.8046 C.ar      1 RES1    0.0000
     29 C29        4.4011    7.2799    5.9814 C.ar      1 RES1    0.0000
     30 C30        3.2470    7.1587    5.1443 C.ar      1 RES1    0.0000
     31 C31        3.0670    6.2674    2.0414 C.3       1 RES1    0.0000
     32 C32        3.7894    7.3063    1.1767 C.3       1 RES1    0.0000
     33 C33        2.2090    5.3986    1.1086 C.3       1 RES1    0.0000
     34 C34        4.1372    5.3920    2.7024 C.3       1 RES1    0.0000
     35 H1         2.2701    8.9598    6.7080 H         1 RES1    0.0000
     36 H2         2.1974    9.4072    1.7794 H         1 RES1    0.0000
     37 H3         2.9250   11.9535    1.9352 H         1 RES1    0.0000
     38 H4         4.0310   10.7786    1.8736 H         1 RES1    0.0000
     39 H5         4.5330   13.3191    3.6892 H         1 RES1    0.0000
     40 H6         4.7222   13.6575    6.0122 H         1 RES1    0.0000
     41 H7         4.2274   12.9709    8.2736 H         1 RES1    0.0000
     42 H8         3.1869   11.4769    9.8029 H         1 RES1    0.0000
     43 H9         2.1901    9.4694    8.9766 H         1 RES1    0.0000
     44 H10       -0.4147   11.8699    3.8088 H         1 RES1    0.0000
     45 H11        1.1205   12.3503    3.8016 H         1 RES1    0.0000
     46 H12        0.6548   11.0665    4.7112 H         1 RES1    0.0000
     47 H13        0.6039   10.7202    0.5508 H         1 RES1    0.0000
     48 H14        0.8877   12.1578    1.2358 H         1 RES1    0.0000
     49 H15       -0.5894   11.5236    1.3300 H         1 RES1    0.0000
     50 H16       -0.0218    8.8567    3.6240 H         1 RES1    0.0000
     51 H17       -0.2256    8.8061    1.9896 H         1 RES1    0.0000
     52 H18       -1.1787    9.7651    2.9028 H         1 RES1    0.0000
     53 H19        1.3970    7.4036    2.5006 H         1 RES1    0.0000
     54 H20        1.3243    5.0654    3.7436 H         1 RES1    0.0000
     55 H21        0.5748    6.3123    4.3742 H         1 RES1    0.0000
     56 H22        2.0446    4.2951    6.2949 H         1 RES1    0.0000
     57 H23        3.8709    4.5421    7.7952 H         1 RES1    0.0000
     58 H24        5.8864    5.6879    8.4910 H         1 RES1    0.0000
     59 H25        7.4944    7.3452    8.1757 H         1 RES1    0.0000
     60 H26        7.2106    8.9734    6.4254 H         1 RES1    0.0000
     61 H27        5.2606    8.9481    5.0990 H         1 RES1    0.0000
     62 H28        4.4166    6.8511    0.5436 H         1 RES1    0.0000
     63 H29        4.2929    7.9424    1.7540 H         1 RES1    0.0000
     64 H30        3.1287    7.8257    0.6052 H         1 RES1    0.0000
     65 H31        1.5062    5.9524    0.6596 H         1 RES1    0.0000
     66 H32        1.7172    4.6997    1.6127 H         1 RES1    0.0000
     67 H33        2.7722    4.9351    0.4059 H         1 RES1    0.0000
     68 H34        4.6858    4.9312    1.9823 H         1 RES1    0.0000
     69 H35        3.7472    4.6978    3.3015 H         1 RES1    0.0000
     70 H36        4.7949    5.9505    3.2399 H         1 RES1    0.0000
@<TRIPOS>BOND
     1    1    2 1
     2    2    3 1
     3    3    4 1
     4    4    5 ar
     5    5    6 ar
     6    6    7 ar
     7    7    8 ar
     8    8    9 ar
     9    9   10 ar
    10   10   11 ar
    11   11   12 ar
    12   12    7 ar
    13   13    1 1
    14   14    2 1
    15   15   14 1
    16   16   14 1
    17   17   14 1
    18   18    1 2
    19   19   18 1
    20   20   19 1
    21   21   20 1
    22   22   21 ar
    23   23   22 ar
    24   24   23 ar
    25   25   24 ar
    26   26   25 ar
    27   27   26 ar
    28   28   27 ar
    29   29   24 ar
    30   30   18 1
    31   31   19 1
    32   32   31 1
    33   33   31 1
    34   34   31 1
    35   35   11 1
    36   36    2 1
    37   37    3 1
    38   38    3 1
    39   39    5 1
    40   40    6 1
    41   41    8 1
    42   42    9 1
    43   43   10 1
    44   44   15 1
    45   45   15 1
    46   46   15 1
    47   47   16 1
    48   48   16 1
    49   49   16 1
    50   50   17 1
    51   51   17 1
    52   52   17 1
    53   53   19 1
    54   54   20 1
    55   55   20 1
    56   56   22 1
    57   57   23 1
    58   58   25 1
    59   59   26 1
    60   60   27 1
    61   61   28 1
    62   62   32 1
    63   63   32 1
    64   64   32 1
    65   65   33 1
    66   66   33 1
    67   67   33 1
    68   68   34 1
    69   69   34 1
    70   70   34 1
    71    4   13 ar
    72   12   13 ar
    73   21   30 ar
    74   28   29 ar
    75   29   30 ar
@<TRIPOS>SUBSTRUCTURE
     1 RES1 1

@<TRIPOS>CRYSIN
   7.2761   19.4524   36.2400  90.0000  90.0000  90.0000  61 1

