# MOL2 file generated by ConQuest
# Please check atom types

@<TRIPOS>MOLECULE
KEYTIS
   100   112     1
SMALL
NO_CHARGES
****
Generated from CSD

@<TRIPOS>ATOM
      1 C1         5.8798    3.9690   18.0759 C.ar      1 RES1    0.0000
      2 C2         8.0788    6.6017   21.3952 C.ar      1 RES1    0.0000
      3 C3         8.1634    4.6022   19.6843 C.1       1 RES1    0.0000
      4 C4         7.0550    2.0521   17.1310 C.ar      1 RES1    0.0000
      5 C5        12.6665    7.6674   19.8170 C.ar      1 RES1    0.0000
      6 C6         9.2827    7.3931   21.4563 C.ar      1 RES1    0.0000
      7 C7        11.5325    7.9072   20.6865 C.ar      1 RES1    0.0000
      8 C8        10.5184    9.2385   22.4624 C.ar      1 RES1    0.0000
      9 C9         5.9077    1.7311   16.3984 C.ar      1 RES1    0.0000
     10 C10        8.0480    5.5059   20.4736 C.1       1 RES1    0.0000
     11 C11        6.9137    6.2824   15.6252 C.ar      1 RES1    0.0000
     12 C12        4.7462    3.6791   17.3116 C.ar      1 RES1    0.0000
     13 C13        3.6143    5.7256   18.0884 C.1       1 RES1    0.0000
     14 C14        9.5313    3.6859   14.8562 C.ar      1 RES1    0.0000
     15 C15        9.1529    8.9030   17.7902 C.ar      1 RES1    0.0000
     16 C16        3.6021    2.2313   15.6873 C.ar      1 RES1    0.0000
     17 C17       10.3744    7.1398   20.6230 C.ar      1 RES1    0.0000
     18 C18        8.2161    3.5145   18.7550 C.ar      1 RES1    0.0000
     19 C19        8.5427    9.6543   18.8610 C.ar      1 RES1    0.0000
     20 C20        7.5661    5.1088   15.0904 C.ar      1 RES1    0.0000
     21 C21        8.3741    7.9392   17.0650 C.1       1 RES1    0.0000
     22 C22        3.8367    6.7053   18.7532 C.1       1 RES1    0.0000
     23 C23        7.0885    7.9626   23.1409 C.ar      1 RES1    0.0000
     24 C24        9.3900    1.6631   17.7011 C.ar      1 RES1    0.0000
     25 C25        5.5903    6.5211   15.3322 C.ar      1 RES1    0.0000
     26 C26        9.3501    8.4713   22.4073 C.ar      1 RES1    0.0000
     27 C27        8.8988    4.8038   15.3899 C.ar      1 RES1    0.0000
     28 C28        2.5089    3.0377   15.7231 C.ar      1 RES1    0.0000
     29 C29        4.6306    8.7166   20.1800 C.1       1 RES1    0.0000
     30 C30        8.2685    1.2921   17.0210 C.ar      1 RES1    0.0000
     31 C31        4.7609    2.5204   16.4639 C.ar      1 RES1    0.0000
     32 C32        9.3018   10.6726   19.5182 C.ar      1 RES1    0.0000
     33 C33        4.8587    5.6392   14.4960 C.ar      1 RES1    0.0000
     34 C34       12.5630    6.6516   18.8174 C.1       1 RES1    0.0000
     35 C35        7.0251    3.1913   18.0051 C.ar      1 RES1    0.0000
     36 C36        5.3407    9.7488   20.8470 C.ar      1 RES1    0.0000
     37 C37        4.2101    7.7870   19.5150 C.1       1 RES1    0.0000
     38 C38        8.2221    8.7222   23.2439 C.ar      1 RES1    0.0000
     39 C39        3.5792    4.5202   17.3138 C.ar      1 RES1    0.0000
     40 C40        6.8273    4.2353   14.2197 C.ar      1 RES1    0.0000
     41 C41       11.9912    4.9412   16.9759 C.1       1 RES1    0.0000
     42 C42       11.5913    4.1744   16.1327 C.1       1 RES1    0.0000
     43 C43        7.0134    6.8952   22.2129 C.ar      1 RES1    0.0000
     44 C44        7.2418    9.3795   19.2893 C.ar      1 RES1    0.0000
     45 C45       11.6104    8.9818   21.6259 C.ar      1 RES1    0.0000
     46 C46       10.4691    9.1453   17.4590 C.ar      1 RES1    0.0000
     47 C47        8.8090    2.8324   13.9597 C.ar      1 RES1    0.0000
     48 C48        7.6744    7.1946   16.4378 C.1       1 RES1    0.0000
     49 C49        9.4754    1.6830   13.4234 C.ar      1 RES1    0.0000
     50 C50       10.7713    1.4029   13.7451 C.ar      1 RES1    0.0000
     51 C51       11.4942    2.2337   14.6384 C.ar      1 RES1    0.0000
     52 C52       10.9038    3.3483   15.1902 C.ar      1 RES1    0.0000
     53 C53        2.4820    4.1990   16.5393 C.ar      1 RES1    0.0000
     54 C54       10.6500   10.9008   19.1063 C.ar      1 RES1    0.0000
     55 C55        9.3686    2.7818   18.5722 C.ar      1 RES1    0.0000
     56 C56       12.7916    9.7793   21.6665 C.ar      1 RES1    0.0000
     57 C57       13.8485    9.5158   20.8482 C.ar      1 RES1    0.0000
     58 C58       12.3476    5.8341   17.9609 C.1       1 RES1    0.0000
     59 C59        6.6673   10.0658   20.3652 C.ar      1 RES1    0.0000
     60 C60       11.2142   10.1525   18.1177 C.ar      1 RES1    0.0000
     61 C61        6.8519   11.7256   22.1805 C.ar      1 RES1    0.0000
     62 C62        7.4730    3.1215   13.6743 C.ar      1 RES1    0.0000
     63 C63        5.4505    4.5370   13.9522 C.ar      1 RES1    0.0000
     64 C64        8.7234   11.3710   20.5832 C.ar      1 RES1    0.0000
     65 C65        4.8381   10.3980   21.9537 C.ar      1 RES1    0.0000
     66 C66       13.7925    8.4456   19.9192 C.ar      1 RES1    0.0000
     67 C67        7.4294   11.0789   21.0358 C.ar      1 RES1    0.0000
     68 C68        5.6104   11.3803   22.6265 C.ar      1 RES1    0.0000
     69 H1         1.6403    4.8577   16.5844 H         1 RES1    0.0000
     70 H2         1.6585    2.8228   15.1727 H         1 RES1    0.0000
     71 H3         3.6418    1.4296   15.0621 H         1 RES1    0.0000
     72 H4         3.8556    5.8462   14.2939 H         1 RES1    0.0000
     73 H5         4.9587    3.8859   13.3286 H         1 RES1    0.0000
     74 H6         5.1347    7.3156   15.7076 H         1 RES1    0.0000
     75 H7         5.2247   11.8715   23.4900 H         1 RES1    0.0000
     76 H8         3.8999   10.1500   22.2915 H         1 RES1    0.0000
     77 H9         9.2628   12.1419   21.0829 H         1 RES1    0.0000
     78 H10        7.4178   12.4852   22.6132 H         1 RES1    0.0000
     79 H11       11.1417   11.6161   19.6290 H         1 RES1    0.0000
     80 H12       12.8342   10.5680   22.3377 H         1 RES1    0.0000
     81 H13       14.6714   10.0721   20.8778 H         1 RES1    0.0000
     82 H14       14.5944    8.3240   19.3052 H         1 RES1    0.0000
     83 H15        5.9014    0.8972   15.7800 H         1 RES1    0.0000
     84 H16        8.2536    0.4445   16.3752 H         1 RES1    0.0000
     85 H17       10.3033    1.0813   17.5919 H         1 RES1    0.0000
     86 H18       10.2173    3.0550   19.0498 H         1 RES1    0.0000
     87 H19        9.4206    5.4316   16.0072 H         1 RES1    0.0000
     88 H20        8.9695    1.0847   12.7555 H         1 RES1    0.0000
     89 H21       11.2552    0.5639   13.4071 H         1 RES1    0.0000
     90 H22       12.4678    2.0217   14.8851 H         1 RES1    0.0000
     91 H23        6.9902    2.5276   13.0330 H         1 RES1    0.0000
     92 H24        6.7163    8.6308   18.8065 H         1 RES1    0.0000
     93 H25        5.8258    4.8047   18.6778 H         1 RES1    0.0000
     94 H26        6.1596    6.2890   22.1588 H         1 RES1    0.0000
     95 H27        6.2482    8.1300   23.7555 H         1 RES1    0.0000
     96 H28        8.2497    9.4850   23.9103 H         1 RES1    0.0000
     97 H29       10.5654    9.9991   23.1341 H         1 RES1    0.0000
     98 H30       10.2968    6.3802   19.9487 H         1 RES1    0.0000
     99 H31       10.8705    8.5728   16.7312 H         1 RES1    0.0000
    100 H32       12.2122   10.2329   17.8312 H         1 RES1    0.0000
@<TRIPOS>BOND
     1    1   12 ar
     2    2    6 ar
     3    3   10 3
     4    4    9 ar
     5    5    7 ar
     6    6   17 ar
     7    7   17 ar
     8    8   26 ar
     9    9   31 ar
    10   10    2 1
    11   11   20 ar
    12   12   31 ar
    13   13   22 3
    14   14   27 ar
    15   15   19 ar
    16   16   28 ar
    17   17   98 1
    18   18    3 1
    19   19   32 ar
    20   20   27 ar
    21   21   15 1
    22   22   37 1
    23   23   38 ar
    24   24   30 ar
    25   25   11 ar
    26   26    6 ar
    27   27   87 1
    28   28   53 ar
    29   29   36 1
    30   30    4 ar
    31   31   16 ar
    32   32   54 ar
    33   33   25 ar
    34   34    5 1
    35   35    1 ar
    36   36   59 ar
    37   37   29 3
    38   38   26 ar
    39   39   12 ar
    40   40   20 ar
    41   41   42 3
    42   42   52 1
    43   43    2 ar
    44   44   19 ar
    45   45    7 ar
    46   46   15 ar
    47   47   14 ar
    48   48   11 1
    49   49   47 ar
    50   50   49 ar
    51   51   50 ar
    52   52   14 ar
    53   53   39 ar
    54   54   60 ar
    55   55   18 ar
    56   56   45 ar
    57   57   56 ar
    58   58   34 3
    59   59   44 ar
    60   60   46 ar
    61   61   67 ar
    62   62   40 ar
    63   63   33 ar
    64   64   32 ar
    65   65   36 ar
    66   66    5 ar
    67   67   59 ar
    68   68   61 ar
    69   69   53 1
    70   70   28 1
    71   71   16 1
    72   72   33 1
    73   73   63 1
    74   74   25 1
    75   75   68 1
    76   76   65 1
    77   77   64 1
    78   78   61 1
    79   79   54 1
    80   80   56 1
    81   81   57 1
    82   82   66 1
    83   83    9 1
    84   84   30 1
    85   85   24 1
    86   86   55 1
    87   88   49 1
    88   89   50 1
    89   90   51 1
    90   91   62 1
    91   92   44 1
    92   93    1 1
    93   94   43 1
    94   95   23 1
    95   96   38 1
    96   97    8 1
    97   99   46 1
    98  100   60 1
    99    4   35 ar
   100    8   45 ar
   101   13   39 1
   102   18   35 ar
   103   21   48 3
   104   23   43 ar
   105   24   55 ar
   106   40   63 ar
   107   41   58 1
   108   47   62 ar
   109   51   52 ar
   110   57   66 ar
   111   64   67 ar
   112   65   68 ar
@<TRIPOS>SUBSTRUCTURE
     1 RES1 1

@<TRIPOS>CRYSIN
  13.0389   16.5850   20.1096  90.0000  90.0000  90.0000  19 1

