# MOL2 file generated by ConQuest
# Please check atom types

@<TRIPOS>MOLECULE
KICGEL
   104   122     2
SMALL
NO_CHARGES
****
Generated from CSD

@<TRIPOS>ATOM
      1 C1        -7.0585  -12.2254   -3.3399 C.ar      1 RES1    0.0000
      2 C2        -7.3859  -13.4137   -2.8052 C.ar      1 RES1    0.0000
      3 C3        -5.1364  -13.2130   -4.4671 C.ar      1 RES1    0.0000
      4 H1        -4.3600  -13.1256   -4.9716 H         1 RES1    0.0000
      5 C4        -5.8814  -12.0857   -4.1352 C.ar      1 RES1    0.0000
      6 C5        -6.6665  -14.5762   -3.1525 C.ar      1 RES1    0.0000
      7 C6        -5.2670  -15.8050   -4.6154 C.ar      1 RES1    0.0000
      8 H2        -4.4703  -15.8988   -5.0861 H         1 RES1    0.0000
      9 C7        -5.5754  -14.5341   -4.0230 C.ar      1 RES1    0.0000
     10 C8       -10.0378  -15.7462   -3.1632 C.ar      1 RES1    0.0000
     11 C9        -5.9763  -10.7011   -4.6446 C.ar      1 RES1    0.0000
     12 C10       -8.8603  -15.1335   -2.7560 C.ar      1 RES1    0.0000
     13 C11      -10.1915  -19.1333   -4.7867 C.ar      1 RES1    0.0000
     14 C12       -7.5698  -15.6666   -3.0971 C.ar      1 RES1    0.0000
     15 C13       -8.6034  -17.6001   -4.0253 C.ar      1 RES1    0.0000
     16 C14       -7.2575  -10.1494   -4.2857 C.ar      1 RES1    0.0000
     17 C15       -6.1114  -16.8943   -4.5124 C.ar      1 RES1    0.0000
     18 H3        -5.8519  -17.7019   -4.8930 H         1 RES1    0.0000
     19 C16      -10.9425  -17.9655   -4.2343 C.3       1 RES1    0.0000
     20 H4       -11.5343  -18.2415   -3.5167 H         1 RES1    0.0000
     21 H5       -11.4659  -17.5308   -4.9252 H         1 RES1    0.0000
     22 C17       -9.7670  -12.8379   -2.9235 C.ar      1 RES1    0.0000
     23 C18       -7.3883  -16.8197   -3.8301 C.ar      1 RES1    0.0000
     24 C19      -11.0479  -13.4900   -3.1056 C.ar      1 RES1    0.0000
     25 H6       -11.8135  -12.9642   -3.1553 H         1 RES1    0.0000
     26 C20       -9.8636  -17.0512   -3.7203 C.ar      1 RES1    0.0000
     27 C21       -8.7490  -13.7375   -2.6000 C.ar      1 RES1    0.0000
     28 C22      -10.4458  -10.5165   -3.7925 C.3       1 RES1    0.0000
     29 H7       -10.3430  -10.3269   -4.7282 H         1 RES1    0.0000
     30 H8       -10.3594   -9.7032   -3.2901 H         1 RES1    0.0000
     31 H9       -11.3126  -10.8985   -3.6370 H         1 RES1    0.0000
     32 C23       -8.7977  -18.8974   -4.6668 C.ar      1 RES1    0.0000
     33 C24       -5.0588   -9.9260   -5.3460 C.ar      1 RES1    0.0000
     34 H10       -4.2516  -10.2951   -5.6233 H         1 RES1    0.0000
     35 C25       -7.8989  -19.8594   -5.1301 C.ar      1 RES1    0.0000
     36 H11       -6.9833  -19.7213   -5.0436 H         1 RES1    0.0000
     37 C26       -9.3829  -11.4902   -3.3584 C.ar      1 RES1    0.0000
     38 C27       -7.5317   -8.8300   -4.5938 C.ar      1 RES1    0.0000
     39 H12       -8.3558   -8.4623   -4.3689 H         1 RES1    0.0000
     40 C28       -8.0267  -11.1991   -3.5551 C.ar      1 RES1    0.0000
     41 C29      -11.1768  -14.8559   -3.2085 C.ar      1 RES1    0.0000
     42 H13      -12.0265  -15.2198   -3.3111 H         1 RES1    0.0000
     43 C30       -6.5746   -8.0501   -5.2408 C.ar      1 RES1    0.0000
     44 H14       -6.7511   -7.1539   -5.4157 H         1 RES1    0.0000
     45 C31       -5.3514   -8.6043   -5.6296 C.ar      1 RES1    0.0000
     46 H15       -4.7302   -8.0808   -6.0822 H         1 RES1    0.0000
     47 C32       -8.3713  -21.0161   -5.7156 C.ar      1 RES1    0.0000
     48 H16       -7.7711  -21.6475   -6.0408 H         1 RES1    0.0000
     49 C33      -10.6547  -20.3085   -5.3614 C.ar      1 RES1    0.0000
     50 H17      -11.5686  -20.4642   -5.4356 H         1 RES1    0.0000
     51 C34       -9.7501  -21.2462   -5.8232 C.ar      1 RES1    0.0000
     52 H18      -10.0582  -22.0350   -6.2078 H         1 RES1    0.0000
     53 C35       -7.0720  -25.7054   -4.8643 C.ar      2 RES2    0.0000
     54 C36       -5.3920  -28.7377   -5.2485 C.ar      2 RES2    0.0000
     55 C37       -4.9681  -26.3935   -5.5074 C.ar      2 RES2    0.0000
     56 C38       -5.7213  -25.2660   -5.1102 C.ar      2 RES2    0.0000
     57 C39       -6.1349  -23.3391   -3.7794 C.ar      2 RES2    0.0000
     58 C40       -5.1682  -24.1759   -4.4763 C.ar      2 RES2    0.0000
     59 C41       -5.8387  -27.4906   -5.5496 C.ar      2 RES2    0.0000
     60 C42       -7.1305  -27.0966   -5.1056 C.ar      2 RES2    0.0000
     61 C43       -5.9569  -22.0247   -3.1648 C.ar      2 RES2    0.0000
     62 C44       -7.9496  -27.9694   -4.3948 C.ar      2 RES2    0.0000
     63 C45       -7.9043  -25.0705   -3.9692 C.ar      2 RES2    0.0000
     64 C46       -7.1433  -21.6829   -2.4756 C.ar      2 RES2    0.0000
     65 C47       -4.9171  -21.1117   -3.2431 C.ar      2 RES2    0.0000
     66 H19       -4.1298  -21.3307   -3.6870 H         2 RES2    0.0000
     67 C48       -3.0035  -25.3461   -4.6937 C.ar      2 RES2    0.0000
     68 H20       -2.0792  -25.3278   -4.5924 H         2 RES2    0.0000
     69 C49       -6.2354  -29.7197   -4.6661 C.ar      2 RES2    0.0000
     70 C50       -3.1187  -27.9059   -5.0449 C.ar      2 RES2    0.0000
     71 H21       -2.2066  -28.0584   -4.9457 H         2 RES2    0.0000
     72 C51       -7.4424  -23.7858   -3.5259 C.ar      2 RES2    0.0000
     73 C52       -3.6122  -26.5485   -5.1924 C.ar      2 RES2    0.0000
     74 C53       -4.0012  -28.9769   -5.0502 C.ar      2 RES2    0.0000
     75 C54       -3.7233  -24.2155   -4.3572 C.ar      2 RES2    0.0000
     76 H22       -3.2715  -23.4638   -4.0474 H         2 RES2    0.0000
     77 C55       -8.9462  -25.9219   -3.4191 C.ar      2 RES2    0.0000
     78 H23       -9.6253  -25.5347   -2.9153 H         2 RES2    0.0000
     79 C56       -5.2990  -30.8336   -4.3265 C.ar      2 RES2    0.0000
     80 C57       -2.8874  -31.1830   -4.2120 C.ar      2 RES2    0.0000
     81 H24       -2.0171  -30.8690   -4.3070 H         2 RES2    0.0000
     82 C58       -8.9580  -27.2802   -3.6196 C.ar      2 RES2    0.0000
     83 H25       -9.6449  -27.7793   -3.2396 H         2 RES2    0.0000
     84 C59       -5.0679  -19.8672   -2.6507 C.ar      2 RES2    0.0000
     85 H26       -4.3847  -19.2404   -2.7243 H         2 RES2    0.0000
     86 C60       -7.5251  -29.3687   -4.2489 C.ar      2 RES2    0.0000
     87 C61       -8.1535  -22.7916   -2.6484 C.3       2 RES2    0.0000
     88 H27       -8.3869  -23.1864   -1.7934 H         2 RES2    0.0000
     89 H28       -8.9603  -22.4640   -3.0758 H         2 RES2    0.0000
     90 C62       -3.9574  -30.3665   -4.5339 C.ar      2 RES2    0.0000
     91 C63       -4.4107  -32.9343   -3.5973 C.ar      2 RES2    0.0000
     92 H29       -4.5517  -33.8061   -3.3061 H         2 RES2    0.0000
     93 C64       -7.2660  -20.4541   -1.8586 C.ar      2 RES2    0.0000
     94 H30       -8.0384  -20.2393   -1.3871 H         2 RES2    0.0000
     95 C65       -3.1146  -32.4697   -3.7479 C.ar      2 RES2    0.0000
     96 H31       -2.3961  -33.0213   -3.5374 H         2 RES2    0.0000
     97 C66       -5.5044  -32.1226   -3.8739 C.ar      2 RES2    0.0000
     98 H32       -6.3687  -32.4447   -3.7547 H         2 RES2    0.0000
     99 C67       -6.2198  -19.5409   -1.9508 C.ar      2 RES2    0.0000
    100 H33       -6.2933  -18.7091   -1.5413 H         2 RES2    0.0000
    101 C68       -8.3897  -30.3399   -3.4821 C.3       2 RES2    0.0000
    102 H34       -8.9947  -29.8529   -2.9175 H         2 RES2    0.0000
    103 H35       -7.8335  -30.9059   -2.9417 H         2 RES2    0.0000
    104 H36       -8.8908  -30.8783   -4.0988 H         2 RES2    0.0000
@<TRIPOS>BOND
     1    1    2 ar
     2    2    6 ar
     3    3    4 1
     4    5    1 ar
     5    6    9 ar
     6    7    8 1
     7    9    3 ar
     8   10   12 ar
     9   11    5 1
    10   12   14 ar
    11   13   19 1
    12   14    6 ar
    13   15   23 ar
    14   16   11 ar
    15   17    7 ar
    16   18   17 1
    17   19   20 1
    18   21   19 1
    19   22   24 ar
    20   23   14 ar
    21   24   25 1
    22   26   10 ar
    23   27    2 ar
    24   28   29 1
    25   30   28 1
    26   31   28 1
    27   32   13 ar
    28   33   11 ar
    29   34   33 1
    30   35   32 ar
    31   36   35 1
    32   37   22 ar
    33   38   16 ar
    34   39   38 1
    35   40    1 ar
    36   41   10 ar
    37   42   41 1
    38   43   38 ar
    39   44   43 1
    40   45   33 ar
    41   46   45 1
    42   47   35 ar
    43   48   47 1
    44   49   13 ar
    45   50   49 1
    46   51   47 ar
    47   52   51 1
    48   53   56 ar
    49   54   59 ar
    50   55   56 ar
    51   56   58 ar
    52   57   58 ar
    53   58   75 ar
    54   59   55 ar
    55   60   53 ar
    56   61   57 1
    57   62   60 ar
    58   63   53 ar
    59   64   61 ar
    60   65   61 ar
    61   66   65 1
    62   67   68 1
    63   69   54 ar
    64   70   71 1
    65   72   57 ar
    66   73   55 ar
    67   74   54 ar
    68   75   67 ar
    69   76   75 1
    70   77   63 ar
    71   78   77 1
    72   79   69 1
    73   80   81 1
    74   82   62 ar
    75   83   82 1
    76   84   65 ar
    77   85   84 1
    78   86   62 ar
    79   87   64 1
    80   88   87 1
    81   89   87 1
    82   90   74 1
    83   91   92 1
    84   93   64 ar
    85   94   93 1
    86   95   80 ar
    87   96   95 1
    88   97   79 ar
    89   98   97 1
    90   99   84 ar
    91  100   99 1
    92  101   86 1
    93  102  101 1
    94  103  101 1
    95  104  101 1
    96    3    5 ar
    97    7    9 ar
    98   12   27 ar
    99   15   26 ar
   100   15   32 1
   101   16   40 1
   102   17   23 ar
   103   19   26 1
   104   22   27 ar
   105   24   41 ar
   106   28   37 1
   107   37   40 ar
   108   43   45 ar
   109   49   51 ar
   110   59   60 ar
   111   63   72 ar
   112   67   73 ar
   113   69   86 ar
   114   70   73 ar
   115   70   74 ar
   116   72   87 1
   117   77   82 ar
   118   79   90 ar
   119   80   90 ar
   120   91   95 ar
   121   91   97 ar
   122   93   99 ar
@<TRIPOS>SUBSTRUCTURE
     1 RES1 1
     2 RES2 53

@<TRIPOS>CRYSIN
  18.7921   27.7246    7.6833  90.0000  90.0000  90.0000  29 1

