# MOL2 file generated by ConQuest
# Please check atom types

@<TRIPOS>MOLECULE
KINLAU
    38    42     1
SMALL
NO_CHARGES
****
Generated from CSD

@<TRIPOS>ATOM
      1 C1         3.5919    5.3444    3.4957 C.ar      1 RES1    0.0000
      2 C2         2.5931    6.1809    3.9202 C.ar      1 RES1    0.0000
      3 C3         1.2793    5.9857    3.4917 C.ar      1 RES1    0.0000
      4 C4         0.9768    4.9645    2.6447 C.ar      1 RES1    0.0000
      5 C5         1.6645    3.0025    1.2914 C.ar      1 RES1    0.0000
      6 C6         2.6204    2.1320    0.8211 C.ar      1 RES1    0.0000
      7 C7         5.1344    1.4573    0.8948 C.3       1 RES1    0.0000
      8 C8         7.5723    1.7264    1.7438 C.ar      1 RES1    0.0000
      9 C9         9.8626    2.1203    2.6626 C.ar      1 RES1    0.0000
     10 C10       10.7169    2.8812    3.4060 C.ar      1 RES1    0.0000
     11 C11       10.2617    4.0547    4.0358 C.ar      1 RES1    0.0000
     12 C12        8.9586    4.4422    3.9102 C.ar      1 RES1    0.0000
     13 C13        6.6613    4.0319    3.0751 C.ar      1 RES1    0.0000
     14 C14        3.3254    4.2675    2.6108 C.ar      1 RES1    0.0000
     15 C15        1.9851    4.0694    2.1823 C.ar      1 RES1    0.0000
     16 C16        3.9493    2.3202    1.2496 C.ar      1 RES1    0.0000
     17 C17        6.2666    2.0986    1.6641 C.ar      1 RES1    0.0000
     18 C18        8.4983    2.4902    2.5111 C.ar      1 RES1    0.0000
     19 C19        8.0303    3.6696    3.1588 C.ar      1 RES1    0.0000
     20 C20        5.7748    3.2581    2.3637 C.ar      1 RES1    0.0000
     21 C21        4.3197    3.3537    2.1145 C.ar      1 RES1    0.0000
     22 C22        2.2762    1.0042   -0.1176 C.3       1 RES1    0.0000
     23 H1         4.4938    5.4886    3.8026 H         1 RES1    0.0000
     24 H2         2.7926    6.9060    4.5181 H         1 RES1    0.0000
     25 H3         0.5831    6.5789    3.7886 H         1 RES1    0.0000
     26 H4         0.0655    4.8444    2.3577 H         1 RES1    0.0000
     27 H5         0.7523    2.8882    1.0084 H         1 RES1    0.0000
     28 H6         5.3044    1.4761   -0.0498 H         1 RES1    0.0000
     29 H7         4.9949    0.5481    1.1699 H         1 RES1    0.0000
     30 H8         7.8715    0.9362    1.2855 H         1 RES1    0.0000
     31 H9        10.1796    1.3166    2.2441 H         1 RES1    0.0000
     32 H10       11.6386    2.6162    3.4957 H         1 RES1    0.0000
     33 H11       10.8705    4.5899    4.5539 H         1 RES1    0.0000
     34 H12        8.6608    5.2482    4.3387 H         1 RES1    0.0000
     35 H13        6.3487    4.8279    3.5136 H         1 RES1    0.0000
     36 H14        1.3211    0.9620   -0.2332 H         1 RES1    0.0000
     37 H15        2.5929    0.1741    0.2491 H         1 RES1    0.0000
     38 H16        2.6961    1.1572   -0.9666 H         1 RES1    0.0000
@<TRIPOS>BOND
     1    1    2 ar
     2    2    3 ar
     3    3    4 ar
     4    4   15 ar
     5    5    6 ar
     6    6   16 ar
     7    7   16 1
     8    8   17 ar
     9    9   10 ar
    10   10   11 ar
    11   11   12 ar
    12   12   19 ar
    13   13   19 ar
    14   14    1 ar
    15   15    5 ar
    16   16   21 ar
    17   17    7 1
    18   18    8 ar
    19   19   18 ar
    20   20   13 ar
    21   21   14 ar
    22   22    6 1
    23   23    1 1
    24   24    2 1
    25   25    3 1
    26   26    4 1
    27   27    5 1
    28   28    7 1
    29   29    7 1
    30   30    8 1
    31   31    9 1
    32   32   10 1
    33   33   11 1
    34   34   12 1
    35   35   13 1
    36   36   22 1
    37   37   22 1
    38   38   22 1
    39    9   18 ar
    40   14   15 ar
    41   17   20 ar
    42   20   21 1
@<TRIPOS>SUBSTRUCTURE
     1 RES1 1

@<TRIPOS>CRYSIN
  12.6005    5.8620   20.4002  90.0000 102.3300  90.0000 231 1

