# MOL2 file generated by ConQuest
# Please check atom types

@<TRIPOS>MOLECULE
KINPAY
    36    38     1
SMALL
NO_CHARGES
****
Generated from CSD

@<TRIPOS>ATOM
      1 C1        -1.4496    8.1481    1.2264 C.ar      1 RES1    0.0000
      2 C2        -0.8701    9.3682    1.5499 C.ar      1 RES1    0.0000
      3 C3        -1.4567   10.6225    1.2188 C.ar      1 RES1    0.0000
      4 C4        -0.8658   11.7882    1.5476 C.ar      1 RES1    0.0000
      5 C5        -0.8772    6.9204    1.5522 C.ar      1 RES1    0.0000
      6 C6        -1.5059    5.6673    1.2333 C.ar      1 RES1    0.0000
      7 C7        -0.8953    4.4940    1.5773 C.ar      1 RES1    0.0000
      8 C8        -2.8380    5.6990    0.5126 C.3       1 RES1    0.0000
      9 C9        -1.5586    3.1688    1.3054 C.3       1 RES1    0.0000
     10 H1        -2.2773    8.1595    0.8657 H         1 RES1    0.0000
     11 H2        -2.3302   10.5794    0.7518 H         1 RES1    0.0000
     12 H3        -1.3016   12.5686    1.2758 H         1 RES1    0.0000
     13 H4        -2.8302    6.3477   -0.1974 H         1 RES1    0.0000
     14 H5        -3.0946    4.8653    0.0683 H         1 RES1    0.0000
     15 H6        -3.5622    5.9929    0.9644 H         1 RES1    0.0000
     16 H7        -2.5517    3.2689    1.3137 H         1 RES1    0.0000
     17 H8        -1.2124    2.6607    0.5847 H         1 RES1    0.0000
     18 H9        -1.3960    2.5213    2.1111 H         1 RES1    0.0000
     19 C2A        0.3797    9.3682    2.2470 C.ar      1 RES1    0.0000
     20 C1A        0.9591    8.1481    2.5705 C.ar      1 RES1    0.0000
     21 C5A        0.3867    6.9204    2.2448 C.ar      1 RES1    0.0000
     22 C7A        0.4049    4.4940    2.2197 C.ar      1 RES1    0.0000
     23 C6A        1.0155    5.6673    2.5637 C.ar      1 RES1    0.0000
     24 C8A        2.3475    5.6990    3.2844 C.3       1 RES1    0.0000
     25 H4A        2.3397    6.3477    3.9944 H         1 RES1    0.0000
     26 H5A        2.6041    4.8653    3.7286 H         1 RES1    0.0000
     27 H6A        3.0718    5.9929    2.8325 H         1 RES1    0.0000
     28 C9A        1.0681    3.1688    2.4916 C.3       1 RES1    0.0000
     29 H7A        2.0612    3.2689    2.4832 H         1 RES1    0.0000
     30 H8A        0.7219    2.6607    3.2122 H         1 RES1    0.0000
     31 H9A        0.9056    2.5213    1.6858 H         1 RES1    0.0000
     32 H1A        1.7868    8.1595    2.9313 H         1 RES1    0.0000
     33 C3A        0.9663   10.6225    2.5781 C.ar      1 RES1    0.0000
     34 C4A        0.3753   11.7882    2.2493 C.ar      1 RES1    0.0000
     35 H3A        0.8112   12.5686    2.5212 H         1 RES1    0.0000
     36 H2A        1.8398   10.5794    3.0452 H         1 RES1    0.0000
@<TRIPOS>BOND
     1    1    2 ar
     2    2    3 ar
     3    3    4 ar
     4    4   12 1
     5    5    1 ar
     6    6    5 ar
     7    7    6 ar
     8    8    6 1
     9    9    7 1
    10   10    1 1
    11   11    3 1
    12   13    8 1
    13   14    8 1
    14   15    8 1
    15   16    9 1
    16   17    9 1
    17   18    9 1
    18   19    2 ar
    19   20   19 ar
    20   21    5 ar
    21   22    7 ar
    22   23   21 ar
    23   24   23 1
    24   25   24 1
    25   26   24 1
    26   27   24 1
    27   28   22 1
    28   29   28 1
    29   30   28 1
    30   31   28 1
    31   32   20 1
    32   33   19 ar
    33   34    4 ar
    34   35   34 1
    35   36   33 1
    36   20   21 ar
    37   22   23 ar
    38   33   34 ar
@<TRIPOS>SUBSTRUCTURE
     1 RES1 1

@<TRIPOS>CRYSIN
  13.5340   12.6700    7.6570  90.0000  97.3600  90.0000  15 1

