# MOL2 file generated by ConQuest
# Please check atom types

@<TRIPOS>MOLECULE
KINQAZ
    56    60     1
SMALL
NO_CHARGES
****
Generated from CSD

@<TRIPOS>ATOM
      1 C1         2.5760   -1.4713    4.6253 C.ar      1 RES1    0.0000
      2 C2         1.6626   -0.4951    4.1699 C.ar      1 RES1    0.0000
      3 C3         0.2428   -0.7238    4.1396 C.ar      1 RES1    0.0000
      4 C4        -0.6216    0.2578    3.8017 C.ar      1 RES1    0.0000
      5 C5        -0.1537    1.5415    3.4704 C.ar      1 RES1    0.0000
      6 C6         1.1770    1.7971    3.4469 C.ar      1 RES1    0.0000
      7 C7         2.1437    0.7831    3.7379 C.ar      1 RES1    0.0000
      8 C8         3.5338    0.9827    3.5745 C.ar      1 RES1    0.0000
      9 C9         4.4431   -0.0518    3.8800 C.ar      1 RES1    0.0000
     10 C10        5.8475   -0.0108    3.5051 C.ar      1 RES1    0.0000
     11 C11        6.7273   -0.8953    4.0658 C.ar      1 RES1    0.0000
     12 C12        6.2767   -1.8769    5.0036 C.ar      1 RES1    0.0000
     13 C13        4.9467   -2.0409    5.2823 C.ar      1 RES1    0.0000
     14 C14        3.9706   -1.2071    4.6007 C.ar      1 RES1    0.0000
     15 C15        2.0469   -2.8240    4.9723 C.ar      1 RES1    0.0000
     16 C16        2.4308   -3.9114    4.2046 C.ar      1 RES1    0.0000
     17 C17        1.9339   -5.1767    4.4631 C.ar      1 RES1    0.0000
     18 C18        1.0256   -5.3719    5.4759 C.ar      1 RES1    0.0000
     19 C19        0.6275   -4.3008    6.2537 C.ar      1 RES1    0.0000
     20 C20        1.1374   -3.0387    6.0108 C.ar      1 RES1    0.0000
     21 C21        4.0196    2.3580    3.2421 C.ar      1 RES1    0.0000
     22 C22        4.7644    3.0495    4.1900 C.ar      1 RES1    0.0000
     23 C23        5.2582    4.3191    3.9192 C.ar      1 RES1    0.0000
     24 C24        5.0128    4.9059    2.6993 C.ar      1 RES1    0.0000
     25 C25        4.2581    4.2436    1.7570 C.ar      1 RES1    0.0000
     26 C26        3.7580    2.9804    2.0234 C.ar      1 RES1    0.0000
     27 C27        6.2991    0.8673    2.3602 C.3       1 RES1    0.0000
     28 C28        8.2057   -0.8306    3.7502 C.3       1 RES1    0.0000
     29 C29        7.3175   -2.7777    5.6605 C.3       1 RES1    0.0000
     30 C30        4.5274   -2.9556    6.4048 C.3       1 RES1    0.0000
     31 H1        -0.0773   -1.6288    4.3982 H         1 RES1    0.0000
     32 H2        -1.6152    0.0647    3.7715 H         1 RES1    0.0000
     33 H3        -0.8046    2.2653    3.2119 H         1 RES1    0.0000
     34 H4         1.5121    2.6860    3.2119 H         1 RES1    0.0000
     35 H5         4.9500    2.6212    5.0920 H         1 RES1    0.0000
     36 H6         5.7617    4.8002    4.6220 H         1 RES1    0.0000
     37 H7         5.3601    5.8142    2.4845 H         1 RES1    0.0000
     38 H8         4.0949    4.6384    0.9065 H         1 RES1    0.0000
     39 H9         3.2186    2.5349    1.3429 H         1 RES1    0.0000
     40 H10        3.0864   -3.7647    3.4021 H         1 RES1    0.0000
     41 H11        2.2310   -5.9329    3.9169 H         1 RES1    0.0000
     42 H12        0.6752   -6.2780    5.6404 H         1 RES1    0.0000
     43 H13       -0.0344   -4.4119    6.9945 H         1 RES1    0.0000
     44 H14        0.9065   -2.2976    6.5916 H         1 RES1    0.0000
     45 H15        5.2077   -3.0204    7.0505 H         1 RES1    0.0000
     46 H16        3.7157   -2.6428    6.8938 H         1 RES1    0.0000
     47 H17        4.3023   -3.9049    6.1104 H         1 RES1    0.0000
     48 H18        8.1763   -2.6105    5.3382 H         1 RES1    0.0000
     49 H19        7.3895   -2.6428    6.5357 H         1 RES1    0.0000
     50 H20        7.1614   -3.6676    5.6628 H         1 RES1    0.0000
     51 H21        8.4060   -0.0108    3.1335 H         1 RES1    0.0000
     52 H22        8.7711   -0.7659    4.5101 H         1 RES1    0.0000
     53 H23        8.5519   -1.5641    3.3014 H         1 RES1    0.0000
     54 H24        5.5671    1.1542    1.7458 H         1 RES1    0.0000
     55 H25        6.7201    1.7367    2.6859 H         1 RES1    0.0000
     56 H26        6.9798    0.4207    1.7570 H         1 RES1    0.0000
@<TRIPOS>BOND
     1    1    2 ar
     2    2    3 ar
     3    3    4 ar
     4    4    5 ar
     5    5    6 ar
     6    6    7 ar
     7    7    2 ar
     8    8    7 ar
     9    9    8 ar
    10   10    9 ar
    11   11   10 ar
    12   12   11 ar
    13   13   12 ar
    14   14    1 ar
    15   15    1 1
    16   16   15 ar
    17   17   16 ar
    18   18   17 ar
    19   19   18 ar
    20   20   15 ar
    21   21    8 1
    22   22   21 ar
    23   23   22 ar
    24   24   23 ar
    25   25   24 ar
    26   26   21 ar
    27   27   10 1
    28   28   11 1
    29   29   12 1
    30   30   13 1
    31   31    3 1
    32   32    4 1
    33   33    5 1
    34   34    6 1
    35   35   22 1
    36   36   23 1
    37   37   24 1
    38   38   25 1
    39   39   26 1
    40   40   16 1
    41   41   17 1
    42   42   18 1
    43   43   19 1
    44   44   20 1
    45   45   30 1
    46   46   30 1
    47   47   30 1
    48   48   29 1
    49   49   29 1
    50   50   29 1
    51   51   28 1
    52   52   28 1
    53   53   28 1
    54   54   27 1
    55   55   27 1
    56   56   27 1
    57    9   14 ar
    58   13   14 ar
    59   19   20 ar
    60   25   26 ar
@<TRIPOS>SUBSTRUCTURE
     1 RES1 1

@<TRIPOS>CRYSIN
  17.6850   10.7870   11.3800  90.0000 100.4500  90.0000  14 1

