# MOL2 file generated by ConQuest
# Please check atom types

@<TRIPOS>MOLECULE
KIZRAM
    40    45     1
SMALL
NO_CHARGES
****
Generated from CSD

@<TRIPOS>ATOM
      1 C1         1.7883    4.8410   10.1547 C.3       1 RES1    0.0000
      2 C2         0.8698    5.1322   11.2995 C.ar      1 RES1    0.0000
      3 C3         0.9310    4.5045   12.5799 C.ar      1 RES1    0.0000
      4 C4        -0.0137    4.9162   13.5561 C.ar      1 RES1    0.0000
      5 C5        -0.9124    5.9363   13.2088 C.ar      1 RES1    0.0000
      6 C6        -1.9439    6.5312   14.1583 C.3       1 RES1    0.0000
      7 C7        -2.6248    7.5472   13.2848 C.ar      1 RES1    0.0000
      8 C8        -2.0799    7.5226   12.0024 C.ar      1 RES1    0.0000
      9 C9        -0.9829    6.5380   11.9572 C.ar      1 RES1    0.0000
     10 C10       -0.0175    6.1346   10.9707 C.ar      1 RES1    0.0000
     11 C11        0.3063    6.5804    9.5916 C.ar      1 RES1    0.0000
     12 C12        1.3602    5.8091    9.1189 C.ar      1 RES1    0.0000
     13 C13        1.8664    3.5063   12.9190 C.ar      1 RES1    0.0000
     14 C14        1.9155    2.9620   14.1747 C.ar      1 RES1    0.0000
     15 C15        0.9861    3.3449   15.1263 C.ar      1 RES1    0.0000
     16 C16        0.0257    4.2898   14.8570 C.ar      1 RES1    0.0000
     17 C17       -3.6912    8.3978   13.5972 C.ar      1 RES1    0.0000
     18 C18       -4.2089    9.2320   12.6128 C.ar      1 RES1    0.0000
     19 C19       -3.6847    9.1746   11.3303 C.ar      1 RES1    0.0000
     20 C20       -2.6336    8.3322   11.0097 C.ar      1 RES1    0.0000
     21 C21       -0.1704    7.6088    8.7839 C.ar      1 RES1    0.0000
     22 C22        0.3921    7.8207    7.5385 C.ar      1 RES1    0.0000
     23 C23        1.4175    7.0125    7.0904 C.ar      1 RES1    0.0000
     24 C24        1.9434    6.0129    7.8653 C.ar      1 RES1    0.0000
     25 H1         1.7774    3.8810    9.9472 H         1 RES1    0.0000
     26 H2         2.7264    4.9121   10.4630 H         1 RES1    0.0000
     27 H3        -2.6756    5.6943   14.4398 H         1 RES1    0.0000
     28 H4        -1.6092    7.0071   14.9906 H         1 RES1    0.0000
     29 H5         2.4490    3.2629   12.3045 H         1 RES1    0.0000
     30 H6         2.5194    2.1880   14.3001 H         1 RES1    0.0000
     31 H7         0.9998    2.9593   16.0223 H         1 RES1    0.0000
     32 H8        -0.7028    4.7015   15.5291 H         1 RES1    0.0000
     33 H9        -4.1379    8.3363   14.4809 H         1 RES1    0.0000
     34 H10       -5.0984    9.7913   12.6518 H         1 RES1    0.0000
     35 H11       -4.0134    9.7749   10.6213 H         1 RES1    0.0000
     36 H12       -2.3523    8.3021    9.8424 H         1 RES1    0.0000
     37 H13       -0.9168    8.4758    9.1950 H         1 RES1    0.0000
     38 H14        0.3888    8.6918    6.8705 H         1 RES1    0.0000
     39 H15        1.9515    7.3025    6.2005 H         1 RES1    0.0000
     40 H16        2.8394    5.4317    7.5775 H         1 RES1    0.0000
@<TRIPOS>BOND
     1    1    2 1
     2    2    3 ar
     3    3    4 ar
     4    4    5 ar
     5    5    6 1
     6    6    7 1
     7    7    8 ar
     8    8    9 1
     9    9    5 ar
    10   10    2 ar
    11   11   10 1
    12   12    1 1
    13   13    3 ar
    14   14   13 ar
    15   15   14 ar
    16   16    4 ar
    17   17    7 ar
    18   18   17 ar
    19   19   18 ar
    20   20    8 ar
    21   21   11 ar
    22   22   21 ar
    23   23   22 ar
    24   24   12 ar
    25   25    1 1
    26   26    1 1
    27   27    6 1
    28   28    6 1
    29   29   13 1
    30   30   14 1
    31   31   15 1
    32   32   16 1
    33   33   17 1
    34   34   18 1
    35   35   19 1
    36   36   20 1
    37   37   21 1
    38   38   22 1
    39   39   23 1
    40   40   24 1
    41    9   10 ar
    42   11   12 ar
    43   15   16 ar
    44   19   20 ar
    45   23   24 ar
@<TRIPOS>SUBSTRUCTURE
     1 RES1 1

@<TRIPOS>CRYSIN
   5.4604   13.6750   20.5520  90.0000  90.0000  90.0000  19 1

