# MOL2 file generated by ConQuest
# Please check atom types

@<TRIPOS>MOLECULE
KOBXEE01
    92   102     2
SMALL
NO_CHARGES
****
Generated from CSD

@<TRIPOS>ATOM
      1 C1         2.4277    0.8913   13.7781 C.ar      1 RES1    0.0000
      2 C2         3.1300    1.8447   12.9823 C.ar      1 RES1    0.0000
      3 C3         4.6783    0.6821   14.2654 C.ar      1 RES1    0.0000
      4 C4         1.0338    0.8121   13.7387 C.ar      1 RES1    0.0000
      5 C5         0.2441   -0.1052   14.6098 C.ar      1 RES1    0.0000
      6 C6         2.4498    2.6381   12.0516 C.ar      1 RES1    0.0000
      7 C7         3.4225    0.0929   14.5386 C.ar      1 RES1    0.0000
      8 C8         4.5668    1.7594   13.3522 C.ar      1 RES1    0.0000
      9 C9         3.1313    3.5192   11.0557 C.ar      1 RES1    0.0000
     10 C10        5.8841    0.2646   14.8468 C.ar      1 RES1    0.0000
     11 C11        1.0557    2.5300   12.0155 C.ar      1 RES1    0.0000
     12 H1         0.5755    3.0603   11.4205 H         1 RES1    0.0000
     13 C12        0.3716    1.6564   12.8401 C.ar      1 RES1    0.0000
     14 H2        -0.5573    1.6290   12.7967 H         1 RES1    0.0000
     15 C13        5.7015    2.4842   13.0710 C.ar      1 RES1    0.0000
     16 H3         5.6690    3.2121   12.4930 H         1 RES1    0.0000
     17 C14        7.0316    1.0297   14.5202 C.ar      1 RES1    0.0000
     18 H4         7.8582    0.8029   14.8803 H         1 RES1    0.0000
     19 C15       -0.6176   -1.0408   14.0624 C.ar      1 RES1    0.0000
     20 H5        -0.6937   -1.1135   13.1390 H         1 RES1    0.0000
     21 C16        6.9258    2.0972   13.6809 C.ar      1 RES1    0.0000
     22 H6         7.6899    2.5960   13.4984 H         1 RES1    0.0000
     23 C17        4.1775    3.0297   10.2779 C.ar      1 RES1    0.0000
     24 H7         4.4776    2.1588   10.4065 H         1 RES1    0.0000
     25 C18        0.3289   -0.0137   15.9984 C.ar      1 RES1    0.0000
     26 H8         0.8975    0.6125   16.3849 H         1 RES1    0.0000
     27 C19        2.6910    4.8151   10.8220 C.ar      1 RES1    0.0000
     28 H9         1.9829    5.1549   11.3193 H         1 RES1    0.0000
     29 C20        3.3908   -1.0093   15.3551 C.ar      1 RES1    0.0000
     30 H10        2.5870   -1.4393   15.5378 H         1 RES1    0.0000
     31 C21       -1.2720   -1.7783   16.2464 C.ar      1 RES1    0.0000
     32 H11       -1.7756   -2.3411   16.7885 H         1 RES1    0.0000
     33 C22       -0.4279   -0.8486   16.8080 C.ar      1 RES1    0.0000
     34 H12       -0.3645   -0.7793   17.7326 H         1 RES1    0.0000
     35 C23        5.8013   -0.8632   15.6991 C.ar      1 RES1    0.0000
     36 H13        6.5683   -1.1859   16.1139 H         1 RES1    0.0000
     37 C24       -1.3660   -1.8690   14.8797 C.ar      1 RES1    0.0000
     38 H14       -1.9390   -2.4943   14.4995 H         1 RES1    0.0000
     39 C25        3.2898    5.6080    9.8600 C.ar      1 RES1    0.0000
     40 H15        2.9856    6.4757    9.7191 H         1 RES1    0.0000
     41 C26        4.6024   -1.4804   15.9153 C.ar      1 RES1    0.0000
     42 H16        4.5815   -2.2395   16.4519 H         1 RES1    0.0000
     43 C27        4.7767    3.8281    9.3135 C.ar      1 RES1    0.0000
     44 H17        5.4784    3.4929    8.8021 H         1 RES1    0.0000
     45 C28        4.3337    5.1169    9.1130 C.ar      1 RES1    0.0000
     46 H18        4.7412    5.6552    8.4727 H         1 RES1    0.0000
     47 C29       -1.9539    1.0593    6.3504 C.ar      2 RES2    0.0000
     48 C30        0.1790    0.1313    5.9744 C.ar      2 RES2    0.0000
     49 C31       -0.5289    1.0823    6.7655 C.ar      2 RES2    0.0000
     50 C32       -0.8141   -0.6022    5.1455 C.ar      2 RES2    0.0000
     51 C33       -0.6346    2.7051    8.6942 C.ar      2 RES2    0.0000
     52 C34        2.3860   -0.8621    5.1919 C.ar      2 RES2    0.0000
     53 C35       -2.0600    0.0249    5.3946 C.ar      2 RES2    0.0000
     54 C36        1.5721    0.0204    6.0739 C.ar      2 RES2    0.0000
     55 C37        0.1235    1.8370    7.7461 C.ar      2 RES2    0.0000
     56 C38       -1.6186    2.1313    9.4931 C.ar      2 RES2    0.0000
     57 H19       -1.7930    1.2207    9.4196 H         2 RES2    0.0000
     58 C39       -3.2651   -0.3501    4.7757 C.ar      2 RES2    0.0000
     59 C40        3.3001   -1.7640    5.7200 C.ar      2 RES2    0.0000
     60 H20        3.3986   -1.8282    6.6429 H         2 RES2    0.0000
     61 C41        2.2040    0.8151    7.0368 C.ar      2 RES2    0.0000
     62 H21        3.1274    0.7582    7.1278 H         2 RES2    0.0000
     63 C42       -3.0821    1.7850    6.6532 C.ar      2 RES2    0.0000
     64 H22       -3.0444    2.4892    7.2590 H         2 RES2    0.0000
     65 C43       -0.7982   -1.6893    4.3089 C.ar      2 RES2    0.0000
     66 H23       -0.0060   -2.1503    4.1486 H         2 RES2    0.0000
     67 C44       -4.4106    0.4096    5.1275 C.ar      2 RES2    0.0000
     68 H24       -5.2361    0.2086    4.7490 H         2 RES2    0.0000
     69 C45        1.5063    1.6816    7.8583 C.ar      2 RES2    0.0000
     70 H25        1.9686    2.1720    8.4998 H         2 RES2    0.0000
     71 C46        2.2888   -0.7726    3.8058 C.ar      2 RES2    0.0000
     72 H26        1.6987   -0.1623    3.4270 H         2 RES2    0.0000
     73 C47       -4.3025    1.4387    6.0244 C.ar      2 RES2    0.0000
     74 H27       -5.0635    1.9319    6.2294 H         2 RES2    0.0000
     75 C48        4.0650   -2.5667    4.8958 C.ar      2 RES2    0.0000
     76 H28        4.6700   -3.1668    5.2667 H         2 RES2    0.0000
     77 C49        3.0553   -1.5764    2.9836 C.ar      2 RES2    0.0000
     78 H29        2.9732   -1.5029    2.0608 H         2 RES2    0.0000
     79 C50       -2.3364    2.8863   10.3874 C.ar      2 RES2    0.0000
     80 H30       -3.0004    2.4897   10.9028 H         2 RES2    0.0000
     81 C51       -3.1916   -1.4550    3.8946 C.ar      2 RES2    0.0000
     82 H31       -3.9561   -1.7438    3.4513 H         2 RES2    0.0000
     83 C52        3.9359   -2.4818    3.5201 C.ar      2 RES2    0.0000
     84 H32        4.4407   -3.0323    2.9649 H         2 RES2    0.0000
     85 C53       -0.3636    4.0522    8.8430 C.ar      2 RES2    0.0000
     86 H33        0.3028    4.4514    8.3329 H         2 RES2    0.0000
     87 C54       -2.0064   -2.0990    3.6928 C.ar      2 RES2    0.0000
     88 H34       -1.9911   -2.8371    3.1275 H         2 RES2    0.0000
     89 C55       -2.0726    4.2254   10.5202 C.ar      2 RES2    0.0000
     90 H35       -2.5596    4.7370   11.1253 H         2 RES2    0.0000
     91 C56       -1.0904    4.8127    9.7592 C.ar      2 RES2    0.0000
     92 H36       -0.9098    5.7198    9.8546 H         2 RES2    0.0000
@<TRIPOS>BOND
     1    1    2 ar
     2    2    6 ar
     3    3    7 ar
     4    4    1 ar
     5    5    4 1
     6    6    9 1
     7    7    1 1
     8    8    2 1
     9    9   23 ar
    10   10    3 ar
    11   11    6 ar
    12   12   11 1
    13   13    4 ar
    14   14   13 1
    15   15    8 ar
    16   16   15 1
    17   17   10 ar
    18   18   17 1
    19   19    5 ar
    20   20   19 1
    21   21   15 ar
    22   22   21 1
    23   23   24 1
    24   25    5 ar
    25   26   25 1
    26   27    9 ar
    27   28   27 1
    28   29    7 ar
    29   30   29 1
    30   31   32 1
    31   33   25 ar
    32   34   33 1
    33   35   10 ar
    34   36   35 1
    35   37   19 ar
    36   38   37 1
    37   39   27 ar
    38   40   39 1
    39   41   29 ar
    40   42   41 1
    41   43   23 ar
    42   44   43 1
    43   45   39 ar
    44   46   45 1
    45   47   49 1
    46   48   49 ar
    47   49   55 ar
    48   50   48 1
    49   51   55 1
    50   52   54 1
    51   53   47 ar
    52   54   48 ar
    53   55   69 ar
    54   56   51 ar
    55   57   56 1
    56   58   53 ar
    57   59   52 ar
    58   60   59 1
    59   61   54 ar
    60   62   61 1
    61   63   47 ar
    62   64   63 1
    63   65   50 ar
    64   66   65 1
    65   67   58 ar
    66   68   67 1
    67   69   61 ar
    68   70   69 1
    69   71   52 ar
    70   72   71 1
    71   73   63 ar
    72   74   73 1
    73   75   59 ar
    74   76   75 1
    75   77   71 ar
    76   78   77 1
    77   79   56 ar
    78   80   79 1
    79   81   58 ar
    80   82   81 1
    81   83   75 ar
    82   84   83 1
    83   85   51 ar
    84   86   85 1
    85   87   65 ar
    86   88   87 1
    87   89   79 ar
    88   90   89 1
    89   91   85 ar
    90   92   91 1
    91    3    8 ar
    92   11   13 ar
    93   17   21 ar
    94   31   33 ar
    95   31   37 ar
    96   35   41 ar
    97   43   45 ar
    98   50   53 ar
    99   67   73 ar
   100   77   83 ar
   101   81   87 ar
   102   89   91 ar
@<TRIPOS>SUBSTRUCTURE
     1 RES1 1
     2 RES2 47

@<TRIPOS>CRYSIN
  10.6924   13.0351   14.5733 100.9780  90.8674 108.0580   2 1

