# MOL2 file generated by ConQuest
# Please check atom types

@<TRIPOS>MOLECULE
KOBXII
    60    68     1
SMALL
NO_CHARGES
****
Generated from CSD

@<TRIPOS>ATOM
      1 C1         8.4066    0.9279    0.0000 C.ar      1 RES1    0.0000
      2 C2         8.0545    1.6266    1.1683 C.ar      1 RES1    0.0000
      3 C3         8.3378    1.0642    2.3823 C.ar      1 RES1    0.0000
      4 C4         8.9732   -0.2056    2.4029 C.ar      1 RES1    0.0000
      5 C5         9.3101   -0.8775    1.2668 C.ar      1 RES1    0.0000
      6 C6         9.0351   -0.3261    0.0000 C.ar      1 RES1    0.0000
      7 C7         7.4302    2.8861    0.7101 C.ar      1 RES1    0.0000
      8 C8         6.8760    3.9385    1.4454 C.ar      1 RES1    0.0000
      9 C9         6.8760    3.9385    2.9206 C.ar      1 RES1    0.0000
     10 C10        8.0174    4.2567    3.6353 C.ar      1 RES1    0.0000
     11 C11        8.0188    4.2575    5.0121 C.ar      1 RES1    0.0000
     12 C12        6.8760    3.9385    5.6970 C.ar      1 RES1    0.0000
     13 H1         8.0848    1.5226    3.2528 H         1 RES1    0.0000
     14 H2         9.1410   -0.5679    3.3078 H         1 RES1    0.0000
     15 H3         9.7887   -1.7802    1.2988 H         1 RES1    0.0000
     16 H4         8.8315    4.4379    3.1383 H         1 RES1    0.0000
     17 H5         8.8632    4.4537    5.5000 H         1 RES1    0.0000
     18 H6         6.8760    3.9385    6.6499 H         1 RES1    0.0000
     19 C2I        8.0545    1.6266   -1.1683 C.ar      1 RES1    0.0000
     20 C3I        8.3378    1.0642   -2.3823 C.ar      1 RES1    0.0000
     21 C4I        8.9732   -0.2056   -2.4029 C.ar      1 RES1    0.0000
     22 C5I        9.3101   -0.8775   -1.2668 C.ar      1 RES1    0.0000
     23 H3I        9.7887   -1.7802   -1.2988 H         1 RES1    0.0000
     24 H2I        9.1410   -0.5679   -3.3078 H         1 RES1    0.0000
     25 H1I        8.0848    1.5226   -3.2528 H         1 RES1    0.0000
     26 C7I        7.4302    2.8861   -0.7101 C.ar      1 RES1    0.0000
     27 C7A        6.3218    4.9909    0.7101 C.ar      1 RES1    0.0000
     28 C2A        5.6975    6.2504    1.1683 C.ar      1 RES1    0.0000
     29 C1A        5.3454    6.9491    0.0000 C.ar      1 RES1    0.0000
     30 C2H        5.6975    6.2504   -1.1683 C.ar      1 RES1    0.0000
     31 C3H        5.4142    6.8128   -2.3823 C.ar      1 RES1    0.0000
     32 C4H        4.7788    8.0826   -2.4029 C.ar      1 RES1    0.0000
     33 C5H        4.4419    8.7545   -1.2668 C.ar      1 RES1    0.0000
     34 C6H        4.7169    8.2031    0.0000 C.ar      1 RES1    0.0000
     35 C5A        4.4419    8.7545    1.2668 C.ar      1 RES1    0.0000
     36 C4A        4.7788    8.0826    2.4029 C.ar      1 RES1    0.0000
     37 C3A        5.4142    6.8128    2.3823 C.ar      1 RES1    0.0000
     38 H1A        5.6672    6.3544    3.2528 H         1 RES1    0.0000
     39 H2A        4.6110    8.4449    3.3078 H         1 RES1    0.0000
     40 H3A        3.9633    9.6572    1.2988 H         1 RES1    0.0000
     41 H3H        3.9633    9.6572   -1.2988 H         1 RES1    0.0000
     42 H2H        4.6110    8.4449   -3.3078 H         1 RES1    0.0000
     43 H1H        5.6672    6.3544   -3.2528 H         1 RES1    0.0000
     44 C7H        6.3218    4.9909   -0.7101 C.ar      1 RES1    0.0000
     45 C8H        6.8760    3.9385   -1.4454 C.ar      1 RES1    0.0000
     46 C9H        6.8760    3.9385   -2.9206 C.ar      1 RES1    0.0000
     47 C10H       5.7346    3.6203   -3.6353 C.ar      1 RES1    0.0000
     48 C11H       5.7332    3.6195   -5.0121 C.ar      1 RES1    0.0000
     49 C12H       6.8760    3.9385   -5.6970 C.ar      1 RES1    0.0000
     50 C11I       8.0188    4.2575   -5.0121 C.ar      1 RES1    0.0000
     51 C10I       8.0174    4.2567   -3.6353 C.ar      1 RES1    0.0000
     52 H4I        8.8315    4.4379   -3.1383 H         1 RES1    0.0000
     53 H5I        8.8632    4.4537   -5.5000 H         1 RES1    0.0000
     54 H6H        6.8760    3.9385   -6.6499 H         1 RES1    0.0000
     55 H5H        4.8888    3.4233   -5.5000 H         1 RES1    0.0000
     56 H4H        4.9205    3.4391   -3.1383 H         1 RES1    0.0000
     57 C11A       5.7332    3.6195    5.0121 C.ar      1 RES1    0.0000
     58 C10A       5.7346    3.6203    3.6353 C.ar      1 RES1    0.0000
     59 H4A        4.9205    3.4391    3.1383 H         1 RES1    0.0000
     60 H5A        4.8888    3.4233    5.5000 H         1 RES1    0.0000
@<TRIPOS>BOND
     1    1    2 ar
     2    2    3 ar
     3    3    4 ar
     4    4    5 ar
     5    5    6 ar
     6    6    1 ar
     7    7    2 1
     8    8    7 ar
     9    9    8 1
    10   10    9 ar
    11   11   10 ar
    12   12   11 ar
    13   13    3 1
    14   14    4 1
    15   15    5 1
    16   16   10 1
    17   17   11 1
    18   18   12 1
    19   19    1 ar
    20   20   19 ar
    21   21   20 ar
    22   22    6 ar
    23   23   22 1
    24   24   21 1
    25   25   20 1
    26   26    7 ar
    27   27    8 ar
    28   28   27 1
    29   29   28 ar
    30   30   29 ar
    31   31   30 ar
    32   32   31 ar
    33   33   32 ar
    34   34   29 ar
    35   35   34 ar
    36   36   35 ar
    37   37   28 ar
    38   38   37 1
    39   39   36 1
    40   40   35 1
    41   41   33 1
    42   42   32 1
    43   43   31 1
    44   44   27 ar
    45   45   26 ar
    46   46   45 1
    47   47   46 ar
    48   48   47 ar
    49   49   48 ar
    50   50   49 ar
    51   51   46 ar
    52   52   51 1
    53   53   50 1
    54   54   49 1
    55   55   48 1
    56   56   47 1
    57   57   12 ar
    58   58    9 ar
    59   59   58 1
    60   60   57 1
    61   19   26 1
    62   21   22 ar
    63   30   44 1
    64   33   34 ar
    65   36   37 ar
    66   44   45 ar
    67   50   51 ar
    68   57   58 ar
@<TRIPOS>SUBSTRUCTURE
     1 RES1 1

