# MOL2 file generated by ConQuest
# Please check atom types

@<TRIPOS>MOLECULE
KOBXEE
    92   102     2
SMALL
NO_CHARGES
****
Generated from CSD

@<TRIPOS>ATOM
      1 C1        10.4749    3.1687    8.8459 C.ar      1 RES1    0.0000
      2 C2         9.2299    3.7899    9.0947 C.ar      1 RES1    0.0000
      3 C3         9.2131    4.8671    9.9296 C.ar      1 RES1    0.0000
      4 C4        10.4157    5.2767   10.5425 C.ar      1 RES1    0.0000
      5 C5        11.5970    4.6451   10.3434 C.ar      1 RES1    0.0000
      6 C6        11.6714    3.5408    9.4602 C.ar      1 RES1    0.0000
      7 C7        12.8166    2.7824    9.1047 C.ar      1 RES1    0.0000
      8 C8        12.7113    1.7577    8.2144 C.ar      1 RES1    0.0000
      9 C9        11.4872    1.4133    7.5915 C.ar      1 RES1    0.0000
     10 C10       10.3657    2.1361    7.8930 C.ar      1 RES1    0.0000
     11 C11        8.9426    2.1105    7.4792 C.ar      1 RES1    0.0000
     12 C12        8.3003    1.3600    6.5036 C.ar      1 RES1    0.0000
     13 C13        9.0484    0.4989    5.5536 C.ar      1 RES1    0.0000
     14 C14       10.0309    1.0757    4.7600 C.ar      1 RES1    0.0000
     15 C15       10.7467    0.3298    3.8626 C.ar      1 RES1    0.0000
     16 C16       10.4926   -1.0089    3.7346 C.ar      1 RES1    0.0000
     17 C17        9.5162   -1.5912    4.4898 C.ar      1 RES1    0.0000
     18 C18        8.7899   -0.8449    5.4085 C.ar      1 RES1    0.0000
     19 C19        8.2346    3.0634    8.2699 C.ar      1 RES1    0.0000
     20 C20        6.8544    3.1741    8.1732 C.ar      1 RES1    0.0000
     21 C21        6.0386    4.0548    9.0535 C.ar      1 RES1    0.0000
     22 C22        5.1376    4.9616    8.5216 C.ar      1 RES1    0.0000
     23 C23        4.3801    5.7664    9.3450 C.ar      1 RES1    0.0000
     24 C24        4.4950    5.6753   10.7075 C.ar      1 RES1    0.0000
     25 C25        5.3666    4.7668   11.2536 C.ar      1 RES1    0.0000
     26 C26        6.1350    3.9595   10.4358 C.ar      1 RES1    0.0000
     27 C27        6.2068    2.3724    7.2175 C.ar      1 RES1    0.0000
     28 C28        6.9152    1.5220    6.3813 C.ar      1 RES1    0.0000
     29 H1         8.3957    5.3893   10.1016 H         1 RES1    0.0000
     30 H2        10.3953    6.0155   11.1441 H         1 RES1    0.0000
     31 H3        12.3909    4.9104   10.8241 H         1 RES1    0.0000
     32 H4        13.6480    3.0127    9.5285 H         1 RES1    0.0000
     33 H5        13.4952    1.2001    7.9812 H         1 RES1    0.0000
     34 H6        11.4963    0.6957    6.9658 H         1 RES1    0.0000
     35 H7        10.1767    2.0486    4.8026 H         1 RES1    0.0000
     36 H8        11.4622    0.7362    3.2909 H         1 RES1    0.0000
     37 H9        10.9770   -1.5787    3.0946 H         1 RES1    0.0000
     38 H10        9.2653   -2.4516    4.4130 H         1 RES1    0.0000
     39 H11        8.1195   -1.2559    5.9318 H         1 RES1    0.0000
     40 H12        5.0328    5.0296    7.5574 H         1 RES1    0.0000
     41 H13        3.7696    6.4461    8.9099 H         1 RES1    0.0000
     42 H14        3.9640    6.2112   11.2849 H         1 RES1    0.0000
     43 H15        5.4713    4.6635   12.2150 H         1 RES1    0.0000
     44 H16        6.7633    3.3200   10.8212 H         1 RES1    0.0000
     45 H17        5.2443    2.4423    7.1265 H         1 RES1    0.0000
     46 H18        6.4437    1.0253    5.7114 H         1 RES1    0.0000
     47 C29        3.5335   -0.4680   14.2188 C.ar      2 RES2    0.0000
     48 C30        4.7889    0.1144   13.9457 C.ar      2 RES2    0.0000
     49 C31        4.8208    1.2145   13.1308 C.ar      2 RES2    0.0000
     50 C32        3.6144    1.6816   12.5705 C.ar      2 RES2    0.0000
     51 C33        2.4207    1.0665   12.7810 C.ar      2 RES2    0.0000
     52 C34        2.3367   -0.0547   13.6371 C.ar      2 RES2    0.0000
     53 C35        1.1894   -0.8134   13.9657 C.ar      2 RES2    0.0000
     54 C36        1.2916   -1.8808   14.8076 C.ar      2 RES2    0.0000
     55 C37        2.5145   -2.2653   15.4106 C.ar      2 RES2    0.0000
     56 C38        3.6426   -1.5442   15.1261 C.ar      2 RES2    0.0000
     57 C39        5.0746   -1.6301   15.4987 C.ar      2 RES2    0.0000
     58 C40        5.7475   -2.4183   16.4203 C.ar      2 RES2    0.0000
     59 C41        5.0654   -3.2909   17.4187 C.ar      2 RES2    0.0000
     60 C42        4.0289   -2.8058   18.1966 C.ar      2 RES2    0.0000
     61 C43        3.4252   -3.6003   19.1537 C.ar      2 RES2    0.0000
     62 C44        3.8720   -4.8853   19.3528 C.ar      2 RES2    0.0000
     63 C45        4.9045   -5.3701   18.6090 C.ar      2 RES2    0.0000
     64 C46        5.5056   -4.5799   17.6491 C.ar      2 RES2    0.0000
     65 C47        5.7818   -0.6713   14.7023 C.ar      2 RES2    0.0000
     66 C48        7.1635   -0.5977   14.7407 C.ar      2 RES2    0.0000
     67 C49        7.9521    0.3138   13.8689 C.ar      2 RES2    0.0000
     68 C50        8.8089    1.2438   14.4151 C.ar      2 RES2    0.0000
     69 C51        9.5554    2.0799   13.6016 C.ar      2 RES2    0.0000
     70 C52        9.4618    1.9788   12.2349 C.ar      2 RES2    0.0000
     71 C53        8.6239    1.0468   11.6745 C.ar      2 RES2    0.0000
     72 C54        7.8786    0.2172   12.4866 C.ar      2 RES2    0.0000
     73 C55        7.8376   -1.4335   15.6410 C.ar      2 RES2    0.0000
     74 C56        7.1428   -2.3104   16.4544 C.ar      2 RES2    0.0000
     75 H19        5.6412    1.6881   12.9630 H         2 RES2    0.0000
     76 H20        3.6753    2.4645   12.0272 H         2 RES2    0.0000
     77 H21        1.6190    1.3609   12.3586 H         2 RES2    0.0000
     78 H22        0.3514   -0.5668   13.5760 H         2 RES2    0.0000
     79 H23        0.5157   -2.3892   15.0109 H         2 RES2    0.0000
     80 H24        2.5474   -3.0395   15.9951 H         2 RES2    0.0000
     81 H25        3.7730   -1.9157   18.1027 H         2 RES2    0.0000
     82 H26        2.6902   -3.2395   19.7041 H         2 RES2    0.0000
     83 H27        3.3946   -5.4414   20.0539 H         2 RES2    0.0000
     84 H28        5.2237   -6.2901   18.6858 H         2 RES2    0.0000
     85 H29        6.2536   -4.8942   17.1186 H         2 RES2    0.0000
     86 H30        8.8503    1.3361   15.4120 H         2 RES2    0.0000
     87 H31       10.1308    2.7647   14.0069 H         2 RES2    0.0000
     88 H32       10.0273    2.5779   11.6120 H         2 RES2    0.0000
     89 H33        8.5491    0.9591   10.7146 H         2 RES2    0.0000
     90 H34        7.3055   -0.4379   12.1168 H         2 RES2    0.0000
     91 H35        8.8316   -1.4104   15.7078 H         2 RES2    0.0000
     92 H36        7.5994   -2.8179   17.0774 H         2 RES2    0.0000
@<TRIPOS>BOND
     1    1    2 ar
     2    2    3 ar
     3    3    4 ar
     4    4    5 ar
     5    5    6 ar
     6    6    1 ar
     7    7    6 ar
     8    8    7 ar
     9    9    8 ar
    10   10    1 ar
    11   11   10 1
    12   12   11 ar
    13   13   12 1
    14   14   13 ar
    15   15   14 ar
    16   16   15 ar
    17   17   16 ar
    18   18   13 ar
    19   19    2 1
    20   20   19 ar
    21   21   20 1
    22   22   21 ar
    23   23   22 ar
    24   24   23 ar
    25   25   24 ar
    26   26   21 ar
    27   27   20 ar
    28   28   12 ar
    29   29    3 1
    30   30    4 1
    31   31    5 1
    32   32    7 1
    33   33    8 1
    34   34    9 1
    35   35   14 1
    36   36   15 1
    37   37   16 1
    38   38   17 1
    39   39   18 1
    40   40   22 1
    41   41   23 1
    42   42   24 1
    43   43   25 1
    44   44   26 1
    45   45   27 1
    46   46   28 1
    47   47   48 ar
    48   48   49 ar
    49   49   50 ar
    50   50   51 ar
    51   51   52 ar
    52   52   47 ar
    53   53   52 ar
    54   54   53 ar
    55   55   54 ar
    56   56   47 ar
    57   57   56 1
    58   58   57 ar
    59   59   58 1
    60   60   59 ar
    61   61   60 ar
    62   62   61 ar
    63   63   62 ar
    64   64   59 ar
    65   65   48 1
    66   66   65 ar
    67   67   66 1
    68   68   67 ar
    69   69   68 ar
    70   70   69 ar
    71   71   70 ar
    72   72   67 ar
    73   73   66 ar
    74   74   58 ar
    75   75   49 1
    76   76   50 1
    77   77   51 1
    78   78   53 1
    79   79   54 1
    80   80   55 1
    81   81   60 1
    82   82   61 1
    83   83   62 1
    84   84   63 1
    85   85   64 1
    86   86   68 1
    87   87   69 1
    88   88   70 1
    89   89   71 1
    90   90   72 1
    91   91   73 1
    92   92   74 1
    93    9   10 ar
    94   11   19 ar
    95   17   18 ar
    96   25   26 ar
    97   27   28 ar
    98   55   56 ar
    99   57   65 ar
   100   63   64 ar
   101   71   72 ar
   102   73   74 ar
@<TRIPOS>SUBSTRUCTURE
     1 RES1 1
     2 RES2 47

@<TRIPOS>CRYSIN
  10.6570   13.0190   14.5350 101.0100  90.9000 108.0100   2 1

