# MOL2 file generated by ConQuest
# Please check atom types

@<TRIPOS>MOLECULE
KOKPAB
    92   101     1
SMALL
NO_CHARGES
****
Generated from CSD

@<TRIPOS>ATOM
      1 C1        -0.8442    2.1141   17.1224 C.ar      1 RES1    0.0000
      2 C2         0.1463    2.6356   16.3448 C.ar      1 RES1    0.0000
      3 C3         1.4710    2.1710   16.4091 C.ar      1 RES1    0.0000
      4 C4         1.8309    1.1874   17.2861 C.ar      1 RES1    0.0000
      5 C5         0.8581    0.6912   18.1962 C.ar      1 RES1    0.0000
      6 C6         1.1656   -0.2633   19.2037 C.ar      1 RES1    0.0000
      7 C7         0.2199   -0.7532   20.0397 C.ar      1 RES1    0.0000
      8 C8        -1.1040   -0.3291   19.9364 C.ar      1 RES1    0.0000
      9 C9        -1.4530    0.5962   18.9874 C.ar      1 RES1    0.0000
     10 C10       -0.4915    1.1330   18.1007 C.ar      1 RES1    0.0000
     11 C11       -2.2628    2.5141   16.8749 C.ar      1 RES1    0.0000
     12 C12       -3.1231    1.6102   16.3194 C.ar      1 RES1    0.0000
     13 C13       -4.4571    1.9697   16.0057 C.ar      1 RES1    0.0000
     14 C14       -4.9290    3.2192   16.2356 C.ar      1 RES1    0.0000
     15 C15       -4.0648    4.1889   16.8105 C.ar      1 RES1    0.0000
     16 C16       -4.4630    5.5168   17.0892 C.ar      1 RES1    0.0000
     17 C17       -3.6164    6.4270   17.6485 C.ar      1 RES1    0.0000
     18 C18       -2.2990    6.0713   17.9759 C.ar      1 RES1    0.0000
     19 C19       -1.8721    4.7940   17.7226 C.ar      1 RES1    0.0000
     20 C20       -2.7195    3.8255   17.1340 C.ar      1 RES1    0.0000
     21 C21       -0.0910   -0.1785   13.4858 C.ar      1 RES1    0.0000
     22 C22        1.1559    0.2722   13.1877 C.ar      1 RES1    0.0000
     23 C23        2.2664    0.0127   14.0296 C.ar      1 RES1    0.0000
     24 C24        2.1356   -0.7292   15.1716 C.ar      1 RES1    0.0000
     25 C25        0.8651   -1.3279   15.4483 C.ar      1 RES1    0.0000
     26 C26        0.6463   -2.1887   16.5494 C.ar      1 RES1    0.0000
     27 C27       -0.5754   -2.7204   16.8183 C.ar      1 RES1    0.0000
     28 C28       -1.6865   -2.4280   15.9959 C.ar      1 RES1    0.0000
     29 C29       -1.5143   -1.6090   14.9241 C.ar      1 RES1    0.0000
     30 C30       -0.2560   -1.0418   14.6006 C.ar      1 RES1    0.0000
     31 C31       -1.2724    0.3633   12.7394 C.ar      1 RES1    0.0000
     32 C32       -1.6345    1.6520   13.0006 C.ar      1 RES1    0.0000
     33 C33       -2.7119    2.2609   12.3438 C.ar      1 RES1    0.0000
     34 C34       -3.4687    1.5912   11.4337 C.ar      1 RES1    0.0000
     35 C35       -3.1437    0.2443   11.1453 C.ar      1 RES1    0.0000
     36 C36       -3.8635   -0.5355   10.2040 C.ar      1 RES1    0.0000
     37 C37       -3.5151   -1.8064    9.9137 C.ar      1 RES1    0.0000
     38 C38       -2.4063   -2.3951   10.5119 C.ar      1 RES1    0.0000
     39 C39       -1.6789   -1.6887   11.4259 C.ar      1 RES1    0.0000
     40 C40       -2.0307   -0.3709   11.7787 C.ar      1 RES1    0.0000
     41 C41       -6.3893    3.5357   15.8868 C.3       1 RES1    0.0000
     42 C42       -6.6121    4.4256   14.6766 C.3       1 RES1    0.0000
     43 C43       -4.6030    2.3191   10.7400 C.3       1 RES1    0.0000
     44 C44        3.1689    0.5114   17.1535 C.3       1 RES1    0.0000
     45 C45        4.3277    1.1165   16.3331 C.3       1 RES1    0.0000
     46 C46        3.2346   -0.7735   16.2084 C.3       1 RES1    0.0000
     47 C47        4.6290   -0.2734   15.7699 C.3       1 RES1    0.0000
     48 C48       -6.0050    4.0116   13.3806 C.3       1 RES1    0.0000
     49 C49       -5.9999    2.9546   12.7414 C.3       1 RES1    0.0000
     50 C50       -5.6335    2.7559   11.3129 C.3       1 RES1    0.0000
     51 H1        -5.3488    5.7890   16.8787 H         1 RES1    0.0000
     52 H2        -3.9233    7.3169   17.8220 H         1 RES1    0.0000
     53 H3        -1.7068    6.7105   18.3657 H         1 RES1    0.0000
     54 H4        -2.9225    3.1673   12.5426 H         1 RES1    0.0000
     55 H5        -4.6069   -0.1430    9.7558 H         1 RES1    0.0000
     56 H6        -4.0392   -2.2989    9.2920 H         1 RES1    0.0000
     57 H7        -0.6798   -3.2964   17.5764 H         1 RES1    0.0000
     58 H8        -0.0641    3.3369   15.7387 H         1 RES1    0.0000
     59 H9         0.4628   -1.3874   20.7082 H         1 RES1    0.0000
     60 H10       -1.7600   -0.6823   20.5230 H         1 RES1    0.0000
     61 H11       -6.8365    2.7078   15.7348 H         1 RES1    0.0000
     62 H12       -6.7826    3.9572   16.6527 H         1 RES1    0.0000
     63 H13       -7.5518    4.4243   14.5129 H         1 RES1    0.0000
     64 H14       -6.3480    5.3041   14.9416 H         1 RES1    0.0000
     65 H15       -5.5002    2.3179   13.2949 H         1 RES1    0.0000
     66 H16        2.1498    2.5115   15.7816 H         1 RES1    0.0000
     67 H17        2.0432   -0.6254   19.2680 H         1 RES1    0.0000
     68 H18       -2.4003    0.9507   19.0030 H         1 RES1    0.0000
     69 H19       -2.8365    0.6064   16.1304 H         1 RES1    0.0000
     70 H20       -5.0687    1.2659   15.6198 H         1 RES1    0.0000
     71 H21       -0.9583    4.5205   17.9038 H         1 RES1    0.0000
     72 H22        1.3106    0.9735   12.4803 H         1 RES1    0.0000
     73 H23        3.1751    0.4734   13.7333 H         1 RES1    0.0000
     74 H24        1.4920   -2.4001   17.1399 H         1 RES1    0.0000
     75 H25       -2.5724   -2.8268   16.3448 H         1 RES1    0.0000
     76 H26       -2.3146   -1.3507   14.3628 H         1 RES1    0.0000
     77 H27       -1.0760    2.1761   13.6223 H         1 RES1    0.0000
     78 H28       -2.1354   -3.4116   10.2800 H         1 RES1    0.0000
     79 H29       -0.9065   -2.1520   11.7962 H         1 RES1    0.0000
     80 H30        3.5154    0.2671   17.9993 H         1 RES1    0.0000
     81 H31        5.0463    1.6343   16.8417 H         1 RES1    0.0000
     82 H32        4.0170    1.7925   15.5808 H         1 RES1    0.0000
     83 H33        3.2618   -1.6925   16.7423 H         1 RES1    0.0000
     84 H34        5.3100   -0.7368   16.3389 H         1 RES1    0.0000
     85 H35        4.8660   -0.2709   14.8656 H         1 RES1    0.0000
     86 H36       -6.9407    2.6597   12.8291 H         1 RES1    0.0000
     87 H37       -5.6470    3.6319   11.0030 H         1 RES1    0.0000
     88 H38       -6.3169    2.2330   10.9777 H         1 RES1    0.0000
     89 H39       -4.2231    3.0078   10.2722 H         1 RES1    0.0000
     90 H40       -4.9509    1.6469   10.1222 H         1 RES1    0.0000
     91 H41       -6.2702    4.7724   12.8174 H         1 RES1    0.0000
     92 H42       -5.0275    4.2711   13.6008 H         1 RES1    0.0000
@<TRIPOS>BOND
     1    1    2 ar
     2    2    3 ar
     3    3    4 ar
     4    4    5 ar
     5    5    6 ar
     6    6    7 ar
     7    7    8 ar
     8    8    9 ar
     9    9   10 ar
    10   10    1 ar
    11   11    1 1
    12   12   11 ar
    13   13   12 ar
    14   14   13 ar
    15   15   14 ar
    16   16   15 ar
    17   17   16 ar
    18   18   17 ar
    19   19   18 ar
    20   20   11 ar
    21   21   22 ar
    22   22   23 ar
    23   23   24 ar
    24   24   25 ar
    25   25   26 ar
    26   26   27 ar
    27   27   28 ar
    28   28   29 ar
    29   29   30 ar
    30   30   21 ar
    31   31   21 1
    32   32   31 ar
    33   33   32 ar
    34   34   33 ar
    35   35   34 ar
    36   36   35 ar
    37   37   36 ar
    38   38   37 ar
    39   39   38 ar
    40   40   31 ar
    41   41   14 1
    42   42   41 1
    43   43   34 1
    44   44    4 1
    45   45   44 1
    46   46   24 1
    47   47   45 1
    48   48   42 1
    49   49   48 1
    50   50   43 1
    51   51   16 1
    52   52   17 1
    53   53   18 1
    54   54   33 1
    55   55   36 1
    56   56   37 1
    57   57   27 1
    58   58    2 1
    59   59    7 1
    60   60    8 1
    61   61   41 1
    62   62   41 1
    63   63   42 1
    64   64   42 1
    65   65   49 1
    66   66    3 1
    67   67    6 1
    68   68    9 1
    69   69   12 1
    70   70   13 1
    71   71   19 1
    72   72   22 1
    73   73   23 1
    74   74   26 1
    75   75   28 1
    76   76   29 1
    77   77   32 1
    78   78   38 1
    79   79   39 1
    80   80   44 1
    81   81   45 1
    82   82   45 1
    83   83   46 1
    84   84   47 1
    85   85   47 1
    86   86   49 1
    87   87   50 1
    88   88   50 1
    89   89   43 1
    90   90   43 1
    91   91   48 1
    92   92   48 1
    93    5   10 ar
    94   15   20 ar
    95   19   20 ar
    96   25   30 ar
    97   35   40 ar
    98   39   40 ar
    99   44   46 1
   100   46   47 1
   101   49   50 1
@<TRIPOS>SUBSTRUCTURE
     1 RES1 1

@<TRIPOS>CRYSIN
  14.3770   12.6590   19.7677  90.0000  99.6460  90.0000 231 1

