# MOL2 file generated by ConQuest
# Please check atom types

@<TRIPOS>MOLECULE
KOKQUW01
   252   258     6
SMALL
NO_CHARGES
****
Generated from CSD

@<TRIPOS>ATOM
      1 C1         6.9731    1.9640    6.3250 C.ar      1 RES1    0.0000
      2 H1         7.8721    1.6815    6.4457 H         1 RES1    0.0000
      3 C2         6.3231    1.5814    5.1524 C.ar      1 RES1    0.0000
      4 C3         4.9861    1.9577    5.0527 C.ar      1 RES1    0.0000
      5 H2         4.5187    1.6865    4.2710 H         1 RES1    0.0000
      6 C4         4.2721    2.6964    5.9935 C.ar      1 RES1    0.0000
      7 H3         3.3607    2.9308    5.8671 H         1 RES1    0.0000
      8 C5         4.2939    3.8647    8.2162 C.ar      1 RES1    0.0000
      9 H4         3.3732    4.0763    8.1108 H         1 RES1    0.0000
     10 C6         4.9532    4.2765    9.3218 C.ar      1 RES1    0.0000
     11 C7         6.3934    3.8356    9.4789 C.ar      1 RES1    0.0000
     12 H5         6.8805    4.0738   10.2607 H         1 RES1    0.0000
     13 C8         6.9821    3.1095    8.5209 C.ar      1 RES1    0.0000
     14 H6         7.8772    2.8282    8.6646 H         1 RES1    0.0000
     15 C9         5.0011    3.0804    7.1643 C.ar      1 RES1    0.0000
     16 C10        6.3833    2.7484    7.3559 C.ar      1 RES1    0.0000
     17 C11        6.9813    0.7324    4.0085 C.3       1 RES1    0.0000
     18 C12        8.3934    0.3953    4.3438 C.3       1 RES1    0.0000
     19 H7         8.4188   -0.1077    5.1850 H         1 RES1    0.0000
     20 H8         8.9129    1.2215    4.4415 H         1 RES1    0.0000
     21 H9         8.7803   -0.1495    3.6272 H         1 RES1    0.0000
     22 C13        6.1865   -0.5803    3.8571 C.3       1 RES1    0.0000
     23 H10        6.2567   -1.0999    4.6848 H         1 RES1    0.0000
     24 H11        6.5529   -1.1011    3.1137 H         1 RES1    0.0000
     25 H12        5.2448   -0.3725    3.6808 H         1 RES1    0.0000
     26 C14        6.7995    1.5434    2.6672 C.3       1 RES1    0.0000
     27 H13        5.8489    1.7448    2.5331 H         1 RES1    0.0000
     28 H14        7.1290    1.0086    1.9142 H         1 RES1    0.0000
     29 H15        7.3068    2.3797    2.7209 H         1 RES1    0.0000
     30 C15        4.3319    5.0469   10.4600 C.3       1 RES1    0.0000
     31 C16        4.5486    4.1371   11.8108 C.3       1 RES1    0.0000
     32 H16        4.1611    4.5984   12.5830 H         1 RES1    0.0000
     33 H17        5.5071    3.9990   11.9603 H         1 RES1    0.0000
     34 H18        4.1087    3.2692   11.6939 H         1 RES1    0.0000
     35 C17        4.9989    6.4129   10.5577 C.3       1 RES1    0.0000
     36 H19        4.7970    6.9337    9.7529 H         1 RES1    0.0000
     37 H20        5.9702    6.2963   10.6343 H         1 RES1    0.0000
     38 H21        4.6640    6.8855   11.3471 H         1 RES1    0.0000
     39 C18        2.7924    5.2028   10.2760 C.3       1 RES1    0.0000
     40 H22        2.6146    5.7755    9.5000 H         1 RES1    0.0000
     41 H23        2.4068    5.6108   11.0789 H         1 RES1    0.0000
     42 H24        2.3914    4.3221   10.1304 H         1 RES1    0.0000
     43 C19        5.0068   14.4540  -12.9528 C.ar      2 RES2    0.0000
     44 H25        5.8871   14.1423  -12.7823 H         2 RES2    0.0000
     45 C20        4.3953   14.1043  -14.1753 C.ar      2 RES2    0.0000
     46 C21        3.1011   14.5516  -14.3190 C.ar      2 RES2    0.0000
     47 H26        2.6327   14.2956  -15.1046 H         2 RES2    0.0000
     48 C22        2.4219   15.3600  -13.3916 C.ar      2 RES2    0.0000
     49 H27        1.5382   15.6629  -13.5640 H         2 RES2    0.0000
     50 C23        2.4152   16.5359  -11.1804 C.ar      2 RES2    0.0000
     51 H28        1.5167   16.8109  -11.3184 H         2 RES2    0.0000
     52 C24        3.0549   16.9084  -10.0595 C.ar      2 RES2    0.0000
     53 C25        4.3707   16.3395   -9.8161 C.ar      2 RES2    0.0000
     54 H29        4.7898   16.4928   -8.9769 H         2 RES2    0.0000
     55 C26        5.0134   15.6109  -10.7320 C.ar      2 RES2    0.0000
     56 H30        5.9046   15.3296  -10.5653 H         2 RES2    0.0000
     57 C27        3.0827   15.7072  -12.1998 C.ar      2 RES2    0.0000
     58 C28        4.3709   15.2473  -11.9641 C.ar      2 RES2    0.0000
     59 C29        5.0701   13.2313  -15.2464 C.3       2 RES2    0.0000
     60 C30        6.4583   13.1033  -15.0931 C.3       2 RES2    0.0000
     61 H31        6.8672   13.9928  -15.0624 H         2 RES2    0.0000
     62 H32        6.8246   12.6015  -15.8518 H         2 RES2    0.0000
     63 H33        6.6532   12.6243  -14.2615 H         2 RES2    0.0000
     64 C31        4.3053   11.8336  -15.3383 C.3       2 RES2    0.0000
     65 H34        3.3532   11.9946  -15.5050 H         2 RES2    0.0000
     66 H35        4.4108   11.3471  -14.4953 H         2 RES2    0.0000
     67 H36        4.6809   11.3040  -16.0722 H         2 RES2    0.0000
     68 C32        4.9193   13.9599  -16.6394 C.3       2 RES2    0.0000
     69 H37        5.3853   14.8215  -16.6087 H         2 RES2    0.0000
     70 H38        3.9697   14.1068  -16.8310 H         2 RES2    0.0000
     71 H39        5.3132   13.4011  -17.3445 H         2 RES2    0.0000
     72 C33        2.4332   17.7878   -9.0037 C.3       2 RES2    0.0000
     73 C34        1.0619   18.2947   -9.3908 C.3       2 RES2    0.0000
     74 H40        0.4845   17.5344   -9.6150 H         2 RES2    0.0000
     75 H41        1.1402   18.8852  -10.1687 H         2 RES2    0.0000
     76 H42        0.6725   18.7901   -8.6416 H         2 RES2    0.0000
     77 C35        2.3446   16.9642   -7.6356 C.3       2 RES2    0.0000
     78 H43        3.2332   16.6297   -7.3980 H         2 RES2    0.0000
     79 H44        1.7307   16.2077   -7.7487 H         2 RES2    0.0000
     80 H45        2.0117   17.5496   -6.9228 H         2 RES2    0.0000
     81 C36        3.3340   18.9688   -8.7067 C.3       2 RES2    0.0000
     82 H46        4.2226   18.6444   -8.4461 H         2 RES2    0.0000
     83 H47        2.9515   19.4959   -7.9767 H         2 RES2    0.0000
     84 H48        3.4123   19.5276   -9.5077 H         2 RES2    0.0000
     85 C37        5.9854   14.6276   -3.4068 C.ar      3 RES3    0.0000
     86 H49        6.9060   14.4084   -3.3168 H         3 RES3    0.0000
     87 C38        5.2927   14.2272   -4.5584 C.ar      3 RES3    0.0000
     88 C39        3.9295   14.5440   -4.6408 C.ar      3 RES3    0.0000
     89 H50        3.4450   14.2678   -5.4091 H         3 RES3    0.0000
     90 C40        3.2449   15.2536   -3.6310 C.ar      3 RES3    0.0000
     91 H51        2.3198   15.4475   -3.7191 H         3 RES3    0.0000
     92 C41        3.2692   16.4307   -1.4256 C.ar      3 RES3    0.0000
     93 H52        2.3461   16.6335   -1.5060 H         3 RES3    0.0000
     94 C42        3.9664   16.8362   -0.3372 C.ar      3 RES3    0.0000
     95 C43        5.3895   16.4726   -0.2127 C.ar      3 RES3    0.0000
     96 H53        5.8750   16.7361    0.5595 H         3 RES3    0.0000
     97 C44        6.0131   15.7680   -1.1841 C.ar      3 RES3    0.0000
     98 H54        6.9293   15.5374   -1.0768 H         3 RES3    0.0000
     99 C45        3.9627   15.6692   -2.4928 C.ar      3 RES3    0.0000
    100 C46        5.3302   15.3651   -2.3587 C.ar      3 RES3    0.0000
    101 C47        5.9975   13.4264   -5.7080 C.3       3 RES3    0.0000
    102 C48        7.4849   13.2439   -5.4743 C.3       3 RES3    0.0000
    103 H55        7.8729   12.7371   -6.2177 H         3 RES3    0.0000
    104 H56        7.6273   12.7548   -4.6369 H         3 RES3    0.0000
    105 H57        7.9165   14.1221   -5.4168 H         3 RES3    0.0000
    106 C49        5.3369   11.9971   -5.7464 C.3       3 RES3    0.0000
    107 H58        4.3759   12.0858   -5.9246 H         3 RES3    0.0000
    108 H59        5.4689   11.5523   -4.8841 H         3 RES3    0.0000
    109 H60        5.7538   11.4636   -6.4572 H         3 RES3    0.0000
    110 C50        5.7685   14.1639   -7.0033 C.3       3 RES3    0.0000
    111 H61        4.8090   14.3286   -7.1183 H         3 RES3    0.0000
    112 H62        6.1004   13.6241   -7.7506 H         3 RES3    0.0000
    113 H63        6.2443   15.0204   -6.9803 H         3 RES3    0.0000
    114 C51        3.3441   17.6218    0.8124 C.3       3 RES3    0.0000
    115 C52        1.8252   17.8778    0.6476 C.3       3 RES3    0.0000
    116 H64        1.6661   18.3821   -0.1782 H         3 RES3    0.0000
    117 H65        1.4963   18.3935    1.4141 H         3 RES3    0.0000
    118 H66        1.3529   17.0212    0.6036 H         3 RES3    0.0000
    119 C53        3.5328   16.7982    2.1958 C.3       3 RES3    0.0000
    120 H67        3.0973   15.9226    2.1154 H         3 RES3    0.0000
    121 H68        3.1247   17.2987    2.9335 H         3 RES3    0.0000
    122 H69        4.4873   16.6740    2.3760 H         3 RES3    0.0000
    123 C54        4.0411   19.0195    1.0002 C.3       3 RES3    0.0000
    124 H70        3.8809   19.5745    0.2089 H         3 RES3    0.0000
    125 H71        5.0060   18.8915    1.1171 H         3 RES3    0.0000
    126 H72        3.6722   19.4655    1.7915 H         3 RES3    0.0000
    127 C55        8.7375   23.1972   -7.9652 C.ar      4 RES4    0.0000
    128 H73        9.5037   23.6888   -7.6950 H         4 RES4    0.0000
    129 C56        8.2425   23.3784   -9.2049 C.ar      4 RES4    0.0000
    130 C57        7.1396   22.5813   -9.6035 C.ar      4 RES4    0.0000
    131 H74        6.8311   22.6536  -10.4983 H         4 RES4    0.0000
    132 C58        6.4911   21.7083   -8.7565 C.ar      4 RES4    0.0000
    133 H75        5.7146   21.2382   -9.0401 H         4 RES4    0.0000
    134 C59        6.3472   20.5983   -6.5090 C.ar      4 RES4    0.0000
    135 H76        5.5850   20.1092   -6.7945 H         4 RES4    0.0000
    136 C60        6.8176   20.4285   -5.2194 C.ar      4 RES4    0.0000
    137 C61        7.9750   21.2205   -4.8190 C.ar      4 RES4    0.0000
    138 H77        8.3322   21.1102   -3.9452 H         4 RES4    0.0000
    139 C62        8.5582   22.1201   -5.6716 C.ar      4 RES4    0.0000
    140 H78        9.2712   22.6624   -5.3555 H         4 RES4    0.0000
    141 C63        7.0106   21.5309   -7.4517 C.ar      4 RES4    0.0000
    142 C64        8.1213   22.2620   -7.0225 C.ar      4 RES4    0.0000
    143 C65        8.8322   24.3553  -10.2358 C.3       4 RES4    0.0000
    144 C66       10.0026   25.2144   -9.5421 C.3       4 RES4    0.0000
    145 H79        9.6235   25.7656   -8.8255 H         4 RES4    0.0000
    146 H80       10.4225   25.7948  -10.2109 H         4 RES4    0.0000
    147 H81       10.6748   24.6087   -9.1666 H         4 RES4    0.0000
    148 C67        9.5331   23.6064  -11.3548 C.3       4 RES4    0.0000
    149 H82        8.8841   23.0527  -11.8357 H         4 RES4    0.0000
    150 H83       10.2343   23.0337  -10.9773 H         4 RES4    0.0000
    151 H84        9.9367   24.2489  -11.9756 H         4 RES4    0.0000
    152 C68        7.7673   25.2930  -10.7205 C.3       4 RES4    0.0000
    153 H85        7.3656   25.7529   -9.9541 H         4 RES4    0.0000
    154 H86        7.0780   24.7861  -11.1977 H         4 RES4    0.0000
    155 H87        8.1650   25.9532  -11.3260 H         4 RES4    0.0000
    156 C69        6.2288   19.4161   -4.2001 C.3       4 RES4    0.0000
    157 C70        5.1690   18.6254   -4.7883 C.3       4 RES4    0.0000
    158 H88        4.4643   19.2184   -5.1217 H         4 RES4    0.0000
    159 H89        4.7958   18.0235   -4.1100 H         4 RES4    0.0000
    160 H90        5.5289   18.0970   -5.5298 H         4 RES4    0.0000
    161 C71        5.6625   20.1992   -2.9623 C.3       4 RES4    0.0000
    162 H91        6.3721   20.7504   -2.5714 H         4 RES4    0.0000
    163 H92        5.3385   19.5618   -2.2916 H         4 RES4    0.0000
    164 H93        4.9224   20.7744   -3.2497 H         4 RES4    0.0000
    165 C72        7.3685   18.4315   -3.7153 C.3       4 RES4    0.0000
    166 H94        8.0952   18.9472   -3.3072 H         4 RES4    0.0000
    167 H95        7.7151   17.9297   -4.4817 H         4 RES4    0.0000
    168 H96        7.0017   17.8068   -3.0543 H         4 RES4    0.0000
    169 C73        3.1664   10.4094    1.7398 C.ar      5 RES5    0.0000
    170 H97        3.9464   10.8808    2.0100 H         5 RES5    0.0000
    171 C74        2.6783   10.6476    0.4656 C.ar      5 RES5    0.0000
    172 C75        1.4968    9.8911    0.0977 C.ar      5 RES5    0.0000
    173 H98        1.1426    9.9786   -0.7799 H         5 RES5    0.0000
    174 C76        0.8900    9.0637    0.9810 C.ar      5 RES5    0.0000
    175 H99        0.0859    8.6329    0.7205 H         5 RES5    0.0000
    176 C77        0.7791    7.9309    3.2075 C.ar      5 RES5    0.0000
    177 H100      -0.0151    7.4874    2.9316 H         5 RES5    0.0000
    178 C78        1.2775    7.6787    4.5258 C.ar      5 RES5    0.0000
    179 C79        2.4678    8.3845    4.8516 C.ar      5 RES5    0.0000
    180 H101       2.8786    8.2287    5.6927 H         5 RES5    0.0000
    181 C80        3.0530    9.2943    3.9759 C.ar      5 RES5    0.0000
    182 H102       3.8069    9.7936    4.2710 H         5 RES5    0.0000
    183 C81        1.4125    8.8090    2.2974 C.ar      5 RES5    0.0000
    184 C82        2.5772    9.4996    2.6844 C.ar      5 RES5    0.0000
    185 C83        3.2469   11.6144   -0.5212 C.3       5 RES5    0.0000
    186 C84        4.3908   12.4419    0.0613 C.3       5 RES5    0.0000
    187 H103       4.0643   12.9512    0.8335 H         5 RES5    0.0000
    188 H104       4.7257   13.0615   -0.6208 H         5 RES5    0.0000
    189 H105       5.1137   11.8450    0.3468 H         5 RES5    0.0000
    190 C85        3.8117   10.8592   -1.7609 C.3       5 RES5    0.0000
    191 H106       3.0968   10.3321   -2.1767 H         5 RES5    0.0000
    192 H107       4.5356   10.2624   -1.4792 H         5 RES5    0.0000
    193 H108       4.1578   11.5080   -2.4104 H         5 RES5    0.0000
    194 C86        2.1815   12.5711   -1.0040 C.3       5 RES5    0.0000
    195 H109       1.4439   12.0642   -1.4007 H         5 RES5    0.0000
    196 H110       2.5650   13.1730   -1.6766 H         5 RES5    0.0000
    197 H111       1.8471   13.0970   -0.2472 H         5 RES5    0.0000
    198 C87        0.6563    6.7221    5.5107 C.3       5 RES5    0.0000
    199 C88       -0.5173    6.1569    5.0585 C.3       5 RES5    0.0000
    200 H112      -1.1409    6.8665    4.7922 H         5 RES5    0.0000
    201 H113      -0.9195    5.6209    5.7732 H         5 RES5    0.0000
    202 H114      -0.3284    5.5829    4.2863 H         5 RES5    0.0000
    203 C89        0.3180    7.4963    6.8175 C.3       5 RES5    0.0000
    204 H115       1.1127    7.9829    7.1221 H         5 RES5    0.0000
    205 H116       0.0378    6.8615    7.5092 H         5 RES5    0.0000
    206 H117      -0.4074    8.1311    6.6412 H         5 RES5    0.0000
    207 C90        1.6387    5.6197    5.8882 C.3       5 RES5    0.0000
    208 H118       2.4421    6.0188    6.2810 H         5 RES5    0.0000
    209 H119       1.8846    5.1128    5.0853 H         5 RES5    0.0000
    210 H120       1.2193    5.0191    6.5396 H         5 RES5    0.0000
    211 C91        9.4777   10.4373    1.4371 C.ar      6 RES6    0.0000
    212 H121      10.3250   10.8174    1.6363 H         6 RES6    0.0000
    213 C92        8.9315   10.7287    0.2970 C.ar      6 RES6    0.0000
    214 C93        7.6261   10.0749   -0.0326 C.ar      6 RES6    0.0000
    215 H122       7.2207   10.2181   -0.8795 H         6 RES6    0.0000
    216 C94        7.0428    9.2981    0.8584 C.ar      6 RES6    0.0000
    217 H123       6.2014    8.9167    0.6361 H         6 RES6    0.0000
    218 C95        6.9570    8.1058    3.0868 C.ar      6 RES6    0.0000
    219 H124       6.1328    7.6889    2.8665 H         6 RES6    0.0000
    220 C96        7.5380    7.8561    4.3208 C.ar      6 RES6    0.0000
    221 C97        8.8086    8.4327    4.5795 C.ar      6 RES6    0.0000
    222 H125       9.2528    8.2084    5.3900 H         6 RES6    0.0000
    223 C98        9.4390    9.3209    3.6885 C.ar      6 RES6    0.0000
    224 H126      10.2465    9.7581    3.9357 H         6 RES6    0.0000
    225 C99        7.5934    9.0004    2.1192 C.ar      6 RES6    0.0000
    226 C100       8.8663    9.5516    2.4449 C.ar      6 RES6    0.0000
    227 C101       9.5336   11.6309   -0.8048 C.3       6 RES6    0.0000
    228 C102      10.8683   12.3075   -0.2376 C.3       6 RES6    0.0000
    229 H127      10.6328   13.0108    0.4024 H         6 RES6    0.0000
    230 H128      11.3772   12.6965   -0.9772 H         6 RES6    0.0000
    231 H129      11.4131   11.6284    0.2127 H         6 RES6    0.0000
    232 C103      10.0826   10.8389   -1.9525 C.3       6 RES6    0.0000
    233 H130       9.3686   10.2903   -2.3415 H         6 RES6    0.0000
    234 H131      10.8045   10.2573   -1.6325 H         6 RES6    0.0000
    235 H132      10.4327   11.4497   -2.6327 H         6 RES6    0.0000
    236 C104       8.6608   12.7079   -1.1420 C.3       6 RES6    0.0000
    237 H133       7.8623   12.3532   -1.5846 H         6 RES6    0.0000
    238 H134       9.1233   13.3250   -1.7475 H         6 RES6    0.0000
    239 H135       8.4001   13.1844   -0.3277 H         6 RES6    0.0000
    240 C105       6.9281    6.8792    5.3919 C.3       6 RES6    0.0000
    241 C106       5.7369    6.1734    4.8937 C.3       6 RES6    0.0000
    242 H136       5.9656    5.6843    4.0736 H         6 RES6    0.0000
    243 H137       5.0301    6.8222    4.6983 H         6 RES6    0.0000
    244 H138       5.4222    5.5411    5.5739 H         6 RES6    0.0000
    245 C107       7.9543    5.7502    5.7138 C.3       6 RES6    0.0000
    246 H139       8.7676    6.1455    6.0913 H         6 RES6    0.0000
    247 H140       8.1796    5.2662    4.8918 H         6 RES6    0.0000
    248 H141       7.5634    5.1280    6.3614 H         6 RES6    0.0000
    249 C108       6.6219    7.6534    6.6048 C.3       6 RES6    0.0000
    250 H142       7.4195    8.1438    6.8903 H         6 RES6    0.0000
    251 H143       6.3396    7.0427    7.3195 H         6 RES6    0.0000
    252 H144       5.8999    8.2870    6.4151 H         6 RES6    0.0000
@<TRIPOS>BOND
     1    1    2 1
     2    3    1 ar
     3    4    3 ar
     4    5    4 1
     5    6    4 ar
     6    7    6 1
     7    8    9 1
     8   10    8 ar
     9   11   10 ar
    10   12   11 1
    11   13   11 ar
    12   14   13 1
    13   15    6 ar
    14   16    1 ar
    15   17    3 1
    16   18   17 1
    17   19   18 1
    18   20   18 1
    19   21   18 1
    20   22   17 1
    21   23   22 1
    22   24   22 1
    23   25   22 1
    24   26   17 1
    25   27   26 1
    26   28   26 1
    27   29   26 1
    28   30   10 1
    29   31   30 1
    30   32   31 1
    31   33   31 1
    32   34   31 1
    33   35   30 1
    34   36   35 1
    35   37   35 1
    36   38   35 1
    37   39   30 1
    38   40   39 1
    39   41   39 1
    40   42   39 1
    41   43   44 1
    42   45   43 ar
    43   46   45 ar
    44   47   46 1
    45   48   46 ar
    46   49   48 1
    47   50   51 1
    48   52   50 ar
    49   53   52 ar
    50   54   53 1
    51   55   53 ar
    52   56   55 1
    53   57   48 ar
    54   58   43 ar
    55   59   45 1
    56   60   59 1
    57   61   60 1
    58   62   60 1
    59   63   60 1
    60   64   59 1
    61   65   64 1
    62   66   64 1
    63   67   64 1
    64   68   59 1
    65   69   68 1
    66   70   68 1
    67   71   68 1
    68   72   52 1
    69   73   72 1
    70   74   73 1
    71   75   73 1
    72   76   73 1
    73   77   72 1
    74   78   77 1
    75   79   77 1
    76   80   77 1
    77   81   72 1
    78   82   81 1
    79   83   81 1
    80   84   81 1
    81   85   86 1
    82   87   85 ar
    83   88   87 ar
    84   89   88 1
    85   90   88 ar
    86   91   90 1
    87   92   93 1
    88   94   92 ar
    89   95   94 ar
    90   96   95 1
    91   97   95 ar
    92   98   97 1
    93   99   90 ar
    94  100   85 ar
    95  101   87 1
    96  102  101 1
    97  103  102 1
    98  104  102 1
    99  105  102 1
   100  106  101 1
   101  107  106 1
   102  108  106 1
   103  109  106 1
   104  110  101 1
   105  111  110 1
   106  112  110 1
   107  113  110 1
   108  114   94 1
   109  115  114 1
   110  116  115 1
   111  117  115 1
   112  118  115 1
   113  119  114 1
   114  120  119 1
   115  121  119 1
   116  122  119 1
   117  123  114 1
   118  124  123 1
   119  125  123 1
   120  126  123 1
   121  127  128 1
   122  129  127 ar
   123  130  129 ar
   124  131  130 1
   125  132  130 ar
   126  133  132 1
   127  134  135 1
   128  136  134 ar
   129  137  136 ar
   130  138  137 1
   131  139  137 ar
   132  140  139 1
   133  141  132 ar
   134  142  127 ar
   135  143  129 1
   136  144  143 1
   137  145  144 1
   138  146  144 1
   139  147  144 1
   140  148  143 1
   141  149  148 1
   142  150  148 1
   143  151  148 1
   144  152  143 1
   145  153  152 1
   146  154  152 1
   147  155  152 1
   148  156  136 1
   149  157  156 1
   150  158  157 1
   151  159  157 1
   152  160  157 1
   153  161  156 1
   154  162  161 1
   155  163  161 1
   156  164  161 1
   157  165  156 1
   158  166  165 1
   159  167  165 1
   160  168  165 1
   161  169  170 1
   162  171  169 ar
   163  172  171 ar
   164  173  172 1
   165  174  172 ar
   166  175  174 1
   167  176  177 1
   168  178  176 ar
   169  179  178 ar
   170  180  179 1
   171  181  179 ar
   172  182  181 1
   173  183  174 ar
   174  184  169 ar
   175  185  171 1
   176  186  185 1
   177  187  186 1
   178  188  186 1
   179  189  186 1
   180  190  185 1
   181  191  190 1
   182  192  190 1
   183  193  190 1
   184  194  185 1
   185  195  194 1
   186  196  194 1
   187  197  194 1
   188  198  178 1
   189  199  198 1
   190  200  199 1
   191  201  199 1
   192  202  199 1
   193  203  198 1
   194  204  203 1
   195  205  203 1
   196  206  203 1
   197  207  198 1
   198  208  207 1
   199  209  207 1
   200  210  207 1
   201  211  212 1
   202  213  211 ar
   203  214  213 ar
   204  215  214 1
   205  216  214 ar
   206  217  216 1
   207  218  219 1
   208  220  218 ar
   209  221  220 ar
   210  222  221 1
   211  223  221 ar
   212  224  223 1
   213  225  216 ar
   214  226  211 ar
   215  227  213 1
   216  228  227 1
   217  229  228 1
   218  230  228 1
   219  231  228 1
   220  232  227 1
   221  233  232 1
   222  234  232 1
   223  235  232 1
   224  236  227 1
   225  237  236 1
   226  238  236 1
   227  239  236 1
   228  240  220 1
   229  241  240 1
   230  242  241 1
   231  243  241 1
   232  244  241 1
   233  245  240 1
   234  246  245 1
   235  247  245 1
   236  248  245 1
   237  249  240 1
   238  250  249 1
   239  251  249 1
   240  252  249 1
   241    8   15 ar
   242   13   16 ar
   243   15   16 ar
   244   50   57 ar
   245   55   58 ar
   246   57   58 ar
   247   92   99 ar
   248   97  100 ar
   249   99  100 ar
   250  134  141 ar
   251  139  142 ar
   252  141  142 ar
   253  176  183 ar
   254  181  184 ar
   255  183  184 ar
   256  218  225 ar
   257  223  226 ar
   258  225  226 ar
@<TRIPOS>SUBSTRUCTURE
     1 RES1 1
     2 RES2 43
     3 RES3 85
     4 RES4 127
     5 RES5 169
     6 RES6 211

@<TRIPOS>CRYSIN
  19.6636   12.6712   19.7853  90.0000 104.4322  90.0000   4 1

