# MOL2 file generated by ConQuest
# Please check atom types

@<TRIPOS>MOLECULE
KOKQUW02
    42    43     1
SMALL
NO_CHARGES
****
Generated from CSD

@<TRIPOS>ATOM
      1 C1         8.0105    0.0269    3.5402 C.3       1 RES1    0.0000
      2 H1         7.1447    0.1097    3.9912 H         1 RES1    0.0000
      3 H2         8.5491    0.8260    3.7174 H         1 RES1    0.0000
      4 H3         8.4793   -0.7643    3.8771 H         1 RES1    0.0000
      5 C2         6.9568   -1.3775    1.7492 C.3       1 RES1    0.0000
      6 H4         6.1042   -1.3198    2.2296 H         1 RES1    0.0000
      7 H5         7.4510   -2.1674    2.0539 H         1 RES1    0.0000
      8 H6         6.7855   -1.4511    0.7870 H         1 RES1    0.0000
      9 C3         6.9983    1.0995    1.5339 C.3       1 RES1    0.0000
     10 H7         6.1369    1.1405    1.9996 H         1 RES1    0.0000
     11 H8         6.8445    1.0200    0.5695 H         1 RES1    0.0000
     12 H9         7.5078    1.9165    1.7171 H         1 RES1    0.0000
     13 C4         7.7878   -0.1155    2.0262 C.3       1 RES1    0.0000
     14 C5        11.2585   -1.4560    1.1512 C.ar      1 RES1    0.0000
     15 H10       11.8055   -2.1860    1.4148 H         1 RES1    0.0000
     16 C6        10.0130   -1.3150    1.7025 C.ar      1 RES1    0.0000
     17 H11        9.7157   -1.9479    2.3450 H         1 RES1    0.0000
     18 C7         9.1526   -0.2398    1.3340 C.ar      1 RES1    0.0000
     19 C8         9.6048    0.6444    0.3909 C.ar      1 RES1    0.0000
     20 H12        9.0375    1.3561    0.1180 H         1 RES1    0.0000
     21 C9        10.8979    0.5317   -0.1941 C.ar      1 RES1    0.0000
     22 C1B       14.6317   -0.0269   -3.5402 C.3       1 RES1    0.0000
     23 H1B       15.4975   -0.1097   -3.9912 H         1 RES1    0.0000
     24 H2B       14.0931   -0.8260   -3.7174 H         1 RES1    0.0000
     25 H3B       14.1629    0.7643   -3.8771 H         1 RES1    0.0000
     26 C2B       15.6854    1.3775   -1.7492 C.3       1 RES1    0.0000
     27 H4B       16.5380    1.3198   -2.2296 H         1 RES1    0.0000
     28 H5B       15.1912    2.1674   -2.0539 H         1 RES1    0.0000
     29 H6B       15.8567    1.4511   -0.7870 H         1 RES1    0.0000
     30 C3B       15.6439   -1.0995   -1.5339 C.3       1 RES1    0.0000
     31 H7B       16.5053   -1.1405   -1.9996 H         1 RES1    0.0000
     32 H8B       15.7977   -1.0200   -0.5695 H         1 RES1    0.0000
     33 H9B       15.1344   -1.9165   -1.7171 H         1 RES1    0.0000
     34 C4B       14.8544    0.1155   -2.0262 C.3       1 RES1    0.0000
     35 C5B       11.3837    1.4560   -1.1512 C.ar      1 RES1    0.0000
     36 H10B      10.8367    2.1860   -1.4148 H         1 RES1    0.0000
     37 C6B       12.6292    1.3150   -1.7025 C.ar      1 RES1    0.0000
     38 H11B      12.9265    1.9479   -2.3450 H         1 RES1    0.0000
     39 C7B       13.4896    0.2398   -1.3340 C.ar      1 RES1    0.0000
     40 C8B       13.0374   -0.6444   -0.3909 C.ar      1 RES1    0.0000
     41 H12B      13.6047   -1.3561   -0.1180 H         1 RES1    0.0000
     42 C9B       11.7443   -0.5317    0.1941 C.ar      1 RES1    0.0000
@<TRIPOS>BOND
     1    1    2 1
     2    3    1 1
     3    4    1 1
     4    5    6 1
     5    7    5 1
     6    8    5 1
     7    9   10 1
     8   11    9 1
     9   12    9 1
    10   13    1 1
    11   14   15 1
    12   16   14 ar
    13   17   16 1
    14   18   13 1
    15   19   18 ar
    16   20   19 1
    17   21   19 ar
    18   22   23 1
    19   24   22 1
    20   25   22 1
    21   26   27 1
    22   28   26 1
    23   29   26 1
    24   30   31 1
    25   32   30 1
    26   33   30 1
    27   34   22 1
    28   35   21 ar
    29   36   35 1
    30   37   35 ar
    31   38   37 1
    32   39   34 1
    33   40   39 ar
    34   41   40 1
    35   42   14 ar
    36    5   13 1
    37    9   13 1
    38   16   18 ar
    39   21   42 ar
    40   26   34 1
    41   30   34 1
    42   37   39 ar
    43   40   42 ar
@<TRIPOS>SUBSTRUCTURE
     1 RES1 1

@<TRIPOS>CRYSIN
  11.3211    9.7983    6.6452  90.0000  93.8950  90.0000  14 1

