# MOL2 file generated by ConQuest
# Please check atom types

@<TRIPOS>MOLECULE
KOMHOJ
    48    51     1
SMALL
NO_CHARGES
****
Generated from CSD

@<TRIPOS>ATOM
      1 C1        22.0777    0.2307    1.7965 C.3       1 RES1    0.0000
      2 C2        21.7639    1.4603    2.6378 C.3       1 RES1    0.0000
      3 C3        20.4444    1.3257    3.3812 C.3       1 RES1    0.0000
      4 C4        19.3063    0.9948    2.4488 C.3       1 RES1    0.0000
      5 C5        19.6086   -0.2332    1.6171 C.3       1 RES1    0.0000
      6 C6        20.9241   -0.0891    0.8630 C.3       1 RES1    0.0000
      7 C7        24.3513   -0.6217    1.1503 C.ar      1 RES1    0.0000
      8 C8        23.3908    0.3394    1.0378 C.ar      1 RES1    0.0000
      9 C9        23.6300    1.4301    0.1584 C.ar      1 RES1    0.0000
     10 C10       24.7909    1.5294   -0.5476 C.ar      1 RES1    0.0000
     11 C11       25.5759   -0.5494    0.4345 C.ar      1 RES1    0.0000
     12 H1        22.1456   -0.5340    2.4257 H         1 RES1    0.0000
     13 H2        22.5474    1.6445    3.2202 H         1 RES1    0.0000
     14 H3        21.6721    2.2001    2.0261 H         1 RES1    0.0000
     15 H4        20.2502    2.1921    3.8494 H         1 RES1    0.0000
     16 H5        20.4959    0.5844    4.0668 H         1 RES1    0.0000
     17 H6        19.1849    1.7385    1.8233 H         1 RES1    0.0000
     18 H7        18.4980    0.8670    2.9189 H         1 RES1    0.0000
     19 H8        19.7135   -1.0165    2.2958 H         1 RES1    0.0000
     20 H9        18.8950   -0.3664    0.9207 H         1 RES1    0.0000
     21 H10       20.8996    0.6399    0.1688 H         1 RES1    0.0000
     22 H11       21.1502   -0.8506    0.3110 H         1 RES1    0.0000
     23 H12       24.2740   -1.4050    1.7540 H         1 RES1    0.0000
     24 H13       22.9607    2.1140    0.0741 H         1 RES1    0.0000
     25 C11D      25.8061    0.5494   -0.4345 C.ar      1 RES1    0.0000
     26 C10D      26.5911   -1.5294    0.5476 C.ar      1 RES1    0.0000
     27 C7D       27.0307    0.6217   -1.1503 C.ar      1 RES1    0.0000
     28 C9D       27.7520   -1.4301   -0.1584 C.ar      1 RES1    0.0000
     29 C8D       27.9912   -0.3394   -1.0378 C.ar      1 RES1    0.0000
     30 H12D      27.1080    1.4050   -1.7540 H         1 RES1    0.0000
     31 H13D      28.4213   -2.1140   -0.0741 H         1 RES1    0.0000
     32 C1D       29.3043   -0.2307   -1.7965 C.3       1 RES1    0.0000
     33 C2D       29.6181   -1.4603   -2.6378 C.3       1 RES1    0.0000
     34 C6D       30.4579    0.0891   -0.8630 C.3       1 RES1    0.0000
     35 H1D       29.2364    0.5340   -2.4257 H         1 RES1    0.0000
     36 C3D       30.9376   -1.3257   -3.3812 C.3       1 RES1    0.0000
     37 H2D       28.8346   -1.6445   -3.2202 H         1 RES1    0.0000
     38 H3D       29.7099   -2.2001   -2.0261 H         1 RES1    0.0000
     39 C5D       31.7734    0.2332   -1.6171 C.3       1 RES1    0.0000
     40 H10D      30.4824   -0.6399   -0.1688 H         1 RES1    0.0000
     41 H11D      30.2318    0.8506   -0.3110 H         1 RES1    0.0000
     42 C4D       32.0757   -0.9948   -2.4488 C.3       1 RES1    0.0000
     43 H4D       31.1318   -2.1921   -3.8494 H         1 RES1    0.0000
     44 H5D       30.8861   -0.5844   -4.0668 H         1 RES1    0.0000
     45 H8D       31.6685    1.0165   -2.2958 H         1 RES1    0.0000
     46 H9D       32.4870    0.3664   -0.9207 H         1 RES1    0.0000
     47 H6D       32.1971   -1.7385   -1.8233 H         1 RES1    0.0000
     48 H7D       32.8840   -0.8670   -2.9189 H         1 RES1    0.0000
@<TRIPOS>BOND
     1    1    2 1
     2    2    3 1
     3    3    4 1
     4    4    5 1
     5    5    6 1
     6    6    1 1
     7    7    8 ar
     8    8    1 1
     9    9    8 ar
    10   10    9 ar
    11   11    7 ar
    12   12    1 1
    13   13    2 1
    14   14    2 1
    15   15    3 1
    16   16    3 1
    17   17    4 1
    18   18    4 1
    19   19    5 1
    20   20    5 1
    21   21    6 1
    22   22    6 1
    23   23    7 1
    24   24    9 1
    25   25   10 ar
    26   26   11 ar
    27   27   25 ar
    28   28   26 ar
    29   29   27 ar
    30   30   27 1
    31   31   28 1
    32   32   29 1
    33   33   32 1
    34   34   32 1
    35   35   32 1
    36   36   33 1
    37   37   33 1
    38   38   33 1
    39   39   34 1
    40   40   34 1
    41   41   34 1
    42   42   36 1
    43   43   36 1
    44   44   36 1
    45   45   39 1
    46   46   39 1
    47   47   42 1
    48   48   42 1
    49   11   25 ar
    50   28   29 ar
    51   39   42 1
@<TRIPOS>SUBSTRUCTURE
     1 RES1 1

@<TRIPOS>CRYSIN
  25.6910    5.6630   13.2790  90.0000 113.8300  90.0000  15 1

