# MOL2 file generated by ConQuest
# Please check atom types

@<TRIPOS>MOLECULE
KORTES
    74    81     1
SMALL
NO_CHARGES
****
Generated from CSD

@<TRIPOS>ATOM
      1 C1         6.9565    3.3234    4.0750 C.2       1 RES1    0.0000
      2 C2         5.9570    4.2298    4.7192 C.ar      1 RES1    0.0000
      3 C3         5.1274    5.0548    4.0134 C.ar      1 RES1    0.0000
      4 H1         5.2192    5.1098    3.0691 H         1 RES1    0.0000
      5 C4         4.1288    5.8331    4.6593 C.ar      1 RES1    0.0000
      6 C5         3.2051    6.6227    3.9346 C.ar      1 RES1    0.0000
      7 H2         3.2589    6.6604    2.9877 H         1 RES1    0.0000
      8 C6         2.2332    7.3332    4.5865 C.ar      1 RES1    0.0000
      9 H3         1.6295    7.8719    4.0899 H         1 RES1    0.0000
     10 C7         2.1253    7.2699    5.9822 C.ar      1 RES1    0.0000
     11 H4         1.4411    7.7589    6.4242 H         1 RES1    0.0000
     12 C8         2.9941    6.5120    6.7157 C.ar      1 RES1    0.0000
     13 H5         2.9134    6.4818    7.6629 H         1 RES1    0.0000
     14 C9         4.0224    5.7646    6.0669 C.ar      1 RES1    0.0000
     15 C10        4.9293    4.9637    6.7993 C.ar      1 RES1    0.0000
     16 H6         4.8921    4.9689    7.7487 H         1 RES1    0.0000
     17 C11        5.8712    4.1718    6.1604 C.ar      1 RES1    0.0000
     18 C12        6.8130    3.2631    6.8651 C.2       1 RES1    0.0000
     19 C13        8.1578    3.2330    6.2385 C.ar      1 RES1    0.0000
     20 C14        9.3407    3.2910    6.9727 C.ar      1 RES1    0.0000
     21 H7         9.3017    3.2654    7.9225 H         1 RES1    0.0000
     22 C15       10.5613    3.3845    6.3499 C.ar      1 RES1    0.0000
     23 H8        11.3563    3.4176    6.8686 H         1 RES1    0.0000
     24 C16       10.6374    3.4312    4.9667 C.ar      1 RES1    0.0000
     25 H9        11.4816    3.5042    4.5388 H         1 RES1    0.0000
     26 C17        9.4808    3.3724    4.2129 C.ar      1 RES1    0.0000
     27 H10        9.5347    3.4018    3.2649 H         1 RES1    0.0000
     28 C18        8.2316    3.2684    4.8327 C.ar      1 RES1    0.0000
     29 C19        6.7173    2.5896    2.9778 C.2       1 RES1    0.0000
     30 C20        7.6255    1.4730    2.5508 C.ar      1 RES1    0.0000
     31 C21        8.5164    1.5792    1.4767 C.ar      1 RES1    0.0000
     32 H11        8.5724    2.3937    0.9900 H         1 RES1    0.0000
     33 C22        9.3127    0.5138    1.1187 C.ar      1 RES1    0.0000
     34 H12        9.9193    0.6058    0.3938 H         1 RES1    0.0000
     35 C23        9.2410   -0.6939    1.8038 C.ar      1 RES1    0.0000
     36 H13        9.7982   -1.4240    1.5599 H         1 RES1    0.0000
     37 C24        8.3395   -0.8107    2.8498 C.ar      1 RES1    0.0000
     38 H14        8.2700   -1.6327    3.3221 H         1 RES1    0.0000
     39 C25        7.5366    0.2614    3.2148 C.ar      1 RES1    0.0000
     40 H15        6.9192    0.1627    3.9293 H         1 RES1    0.0000
     41 C26        5.4592    2.6853    2.1658 C.ar      1 RES1    0.0000
     42 C27        5.4770    3.2707    0.8961 C.ar      1 RES1    0.0000
     43 H16        6.2935    3.6060    0.5456 H         1 RES1    0.0000
     44 C28        4.3323    3.3664    0.1487 C.ar      1 RES1    0.0000
     45 H17        4.3657    3.7559   -0.7172 H         1 RES1    0.0000
     46 C29        3.1269    2.9000    0.6455 C.ar      1 RES1    0.0000
     47 H18        2.3278    2.9866    0.1386 H         1 RES1    0.0000
     48 C30        3.1104    2.3033    1.8969 C.ar      1 RES1    0.0000
     49 H19        2.2959    1.9544    2.2397 H         1 RES1    0.0000
     50 C31        4.2549    2.2098    2.6487 C.ar      1 RES1    0.0000
     51 H20        4.2189    1.8143    3.5113 H         1 RES1    0.0000
     52 C32        6.5035    2.4894    7.9236 C.2       1 RES1    0.0000
     53 C33        7.3905    1.3652    8.3572 C.ar      1 RES1    0.0000
     54 C34        7.6317    0.3119    7.4807 C.ar      1 RES1    0.0000
     55 H21        7.2443    0.3240    6.6134 H         1 RES1    0.0000
     56 C35        8.4319   -0.7534    7.8611 C.ar      1 RES1    0.0000
     57 H22        8.5778   -1.4715    7.2559 H         1 RES1    0.0000
     58 C36        9.0171   -0.7798    9.1044 C.ar      1 RES1    0.0000
     59 H23        9.5813   -1.5024    9.3525 H         1 RES1    0.0000
     60 C37        8.7758    0.2486    9.9842 C.ar      1 RES1    0.0000
     61 H24        9.1745    0.2351   10.8464 H         1 RES1    0.0000
     62 C38        7.9539    1.3080    9.6203 C.ar      1 RES1    0.0000
     63 H25        7.7770    2.0004   10.2458 H         1 RES1    0.0000
     64 C39        5.2203    2.5617    8.6881 C.ar      1 RES1    0.0000
     65 C40        4.1303    1.8128    8.2945 C.ar      1 RES1    0.0000
     66 H26        4.1813    1.2816    7.5089 H         1 RES1    0.0000
     67 C41        2.9578    1.8324    9.0434 C.ar      1 RES1    0.0000
     68 H27        2.2164    1.3057    8.7673 H         1 RES1    0.0000
     69 C42        2.8599    2.6001   10.1710 C.ar      1 RES1    0.0000
     70 H28        2.0502    2.6220   10.6682 H         1 RES1    0.0000
     71 C43        3.9394    3.3377   10.5767 C.ar      1 RES1    0.0000
     72 H29        3.8818    3.8576   11.3700 H         1 RES1    0.0000
     73 C44        5.1134    3.3340    9.8451 C.ar      1 RES1    0.0000
     74 H30        5.8509    3.8591   10.1314 H         1 RES1    0.0000
@<TRIPOS>BOND
     1    1    2 1
     2    2    3 ar
     3    3    4 1
     4    5    3 ar
     5    6    5 ar
     6    7    6 1
     7    8    6 ar
     8    9    8 1
     9   10    8 ar
    10   11   10 1
    11   12   10 ar
    12   13   12 1
    13   14    5 ar
    14   15   14 ar
    15   16   15 1
    16   17    2 ar
    17   18   17 1
    18   19   18 1
    19   20   19 ar
    20   21   20 1
    21   22   20 ar
    22   23   22 1
    23   24   22 ar
    24   25   24 1
    25   26   24 ar
    26   27   26 1
    27   28    1 1
    28   29    1 2
    29   30   29 1
    30   31   30 ar
    31   32   31 1
    32   33   31 ar
    33   34   33 1
    34   35   33 ar
    35   36   35 1
    36   37   35 ar
    37   38   37 1
    38   39   30 ar
    39   40   39 1
    40   41   29 1
    41   42   41 ar
    42   43   42 1
    43   44   42 ar
    44   45   44 1
    45   46   44 ar
    46   47   46 1
    47   48   46 ar
    48   49   48 1
    49   50   41 ar
    50   51   50 1
    51   52   18 2
    52   53   52 1
    53   54   53 ar
    54   55   54 1
    55   56   54 ar
    56   57   56 1
    57   58   56 ar
    58   59   58 1
    59   60   58 ar
    60   61   60 1
    61   62   53 ar
    62   63   62 1
    63   64   52 1
    64   65   64 ar
    65   66   65 1
    66   67   65 ar
    67   68   67 1
    68   69   67 ar
    69   70   69 1
    70   71   69 ar
    71   72   71 1
    72   73   64 ar
    73   74   73 1
    74   12   14 ar
    75   15   17 ar
    76   19   28 ar
    77   26   28 ar
    78   37   39 ar
    79   48   50 ar
    80   60   62 ar
    81   71   73 ar
@<TRIPOS>SUBSTRUCTURE
     1 RES1 1

@<TRIPOS>CRYSIN
   9.2686    7.5344   22.0069  90.0000  91.3490  90.0000   4 1

