# MOL2 file generated by ConQuest
# Please check atom types

@<TRIPOS>MOLECULE
KUBBOA
    68    76     1
SMALL
NO_CHARGES
****
Generated from CSD

@<TRIPOS>ATOM
      1 C1         4.3209    0.7524   11.3330 C.ar      1 RES1    0.0000
      2 C2         4.5238   -0.4802   10.6389 C.ar      1 RES1    0.0000
      3 H1         3.9639   -0.6999    9.9298 H         1 RES1    0.0000
      4 C3         5.5177   -1.3406   10.9924 C.ar      1 RES1    0.0000
      5 H2         5.6287   -2.1310   10.5144 H         1 RES1    0.0000
      6 C4         6.3797   -1.0545   12.0676 C.ar      1 RES1    0.0000
      7 H3         7.0632   -1.6449   12.2888 H         1 RES1    0.0000
      8 C5         6.2093    0.0759   12.7705 C.ar      1 RES1    0.0000
      9 H4         6.7689    0.2467   13.4931 H         1 RES1    0.0000
     10 C6         5.2006    1.0180   12.4442 C.ar      1 RES1    0.0000
     11 C7         5.0184    2.1857   13.1814 C.ar      1 RES1    0.0000
     12 H5         5.5716    2.3441   13.9125 H         1 RES1    0.0000
     13 C8         4.0434    3.1227   12.8674 C.ar      1 RES1    0.0000
     14 C9         3.1666    2.8797   11.7573 C.ar      1 RES1    0.0000
     15 C10        3.2983    1.6719   11.0166 C.ar      1 RES1    0.0000
     16 C11        2.2063    3.8963   11.4826 C.ar      1 RES1    0.0000
     17 H6         1.6370    3.7905   10.7540 H         1 RES1    0.0000
     18 C12        2.0906    5.0129   12.2425 C.ar      1 RES1    0.0000
     19 H7         1.4414    5.6456   12.0347 H         1 RES1    0.0000
     20 C13        2.9464    5.2230   13.3450 C.ar      1 RES1    0.0000
     21 H8         2.8548    5.9871   13.8670 H         1 RES1    0.0000
     22 C14        3.8929    4.3174   13.6375 C.ar      1 RES1    0.0000
     23 H9         4.4624    4.4706   14.3566 H         1 RES1    0.0000
     24 C15        2.3176    1.4077    9.9114 C.2       1 RES1    0.0000
     25 C16        0.9799    1.4369   10.1593 C.2       1 RES1    0.0000
     26 C17        0.3070    1.3603   11.4896 C.ar      1 RES1    0.0000
     27 C18        0.7996    1.0764   12.7608 C.ar      1 RES1    0.0000
     28 H10        1.7118    0.9458   12.8920 H         1 RES1    0.0000
     29 C19       -0.0761    0.9925   13.8218 C.ar      1 RES1    0.0000
     30 H11        0.2500    0.8101   14.6726 H         1 RES1    0.0000
     31 C20       -1.4296    1.1749   13.6352 C.ar      1 RES1    0.0000
     32 H12       -2.0055    1.1202   14.3628 H         1 RES1    0.0000
     33 C21       -1.9425    1.4384   12.3793 C.ar      1 RES1    0.0000
     34 H13       -2.8564    1.5522   12.2537 H         1 RES1    0.0000
     35 C22       -1.0688    1.5289   11.3130 C.ar      1 RES1    0.0000
     36 C23       -1.3375    1.7471    9.8953 C.ar      1 RES1    0.0000
     37 C24       -2.5283    2.0704    9.2638 C.ar      1 RES1    0.0000
     38 H14       -3.3158    2.1514    9.7501 H         1 RES1    0.0000
     39 C25       -2.5217    2.2696    7.9031 C.ar      1 RES1    0.0000
     40 H15       -3.3131    2.4885    7.4654 H         1 RES1    0.0000
     41 C26       -1.3475    2.1470    7.1762 C.ar      1 RES1    0.0000
     42 H16       -1.3613    2.2820    6.2570 H         1 RES1    0.0000
     43 C27       -0.1581    1.8259    7.8023 C.ar      1 RES1    0.0000
     44 H17        0.6240    1.7420    7.3064 H         1 RES1    0.0000
     45 C28       -0.1380    1.6303    9.1802 C.ar      1 RES1    0.0000
     46 C29        2.8210    1.1275    8.5272 C.ar      1 RES1    0.0000
     47 C30        2.4122   -0.0759    7.8868 C.ar      1 RES1    0.0000
     48 C31        1.6079   -1.0742    8.5133 C.ar      1 RES1    0.0000
     49 H18        1.3707   -0.9677    9.4072 H         1 RES1    0.0000
     50 C32        1.1790   -2.1733    7.8449 C.ar      1 RES1    0.0000
     51 H19        0.6502   -2.8002    8.2834 H         1 RES1    0.0000
     52 C33        1.5267   -2.3762    6.4917 C.ar      1 RES1    0.0000
     53 H20        1.2005   -3.1162    6.0318 H         1 RES1    0.0000
     54 C34        2.3339   -1.4939    5.8676 C.ar      1 RES1    0.0000
     55 H21        2.5768   -1.6457    4.9825 H         1 RES1    0.0000
     56 C35        2.8244   -0.3335    6.5344 C.ar      1 RES1    0.0000
     57 C36        3.6735    0.5648    5.8988 C.ar      1 RES1    0.0000
     58 H22        3.9524    0.3824    5.0300 H         1 RES1    0.0000
     59 C37        4.1177    1.7252    6.5173 C.ar      1 RES1    0.0000
     60 C38        3.6648    2.0346    7.8467 C.ar      1 RES1    0.0000
     61 C39        4.0774    3.2891    8.3962 C.ar      1 RES1    0.0000
     62 H23        3.8025    3.5205    9.2543 H         1 RES1    0.0000
     63 C40        4.8613    4.1524    7.6953 C.ar      1 RES1    0.0000
     64 H24        5.1003    4.9669    8.0748 H         1 RES1    0.0000
     65 C41        5.3165    3.8240    6.3964 C.ar      1 RES1    0.0000
     66 H25        5.8663    4.4144    5.9327 H         1 RES1    0.0000
     67 C42        4.9512    2.6513    5.8312 C.ar      1 RES1    0.0000
     68 H26        5.2506    2.4455    4.9763 H         1 RES1    0.0000
@<TRIPOS>BOND
     1    1    2 ar
     2    2    3 1
     3    4    2 ar
     4    5    4 1
     5    6    4 ar
     6    7    6 1
     7    8    6 ar
     8    9    8 1
     9   10    1 ar
    10   11   10 ar
    11   12   11 1
    12   13   11 ar
    13   14   13 ar
    14   15    1 ar
    15   16   14 ar
    16   17   16 1
    17   18   16 ar
    18   19   18 1
    19   20   18 ar
    20   21   20 1
    21   22   13 ar
    22   23   22 1
    23   24   15 1
    24   25   24 2
    25   26   25 1
    26   27   26 ar
    27   28   27 1
    28   29   27 ar
    29   30   29 1
    30   31   29 ar
    31   32   31 1
    32   33   31 ar
    33   34   33 1
    34   35   26 ar
    35   36   35 1
    36   37   36 ar
    37   38   37 1
    38   39   37 ar
    39   40   39 1
    40   41   39 ar
    41   42   41 1
    42   43   41 ar
    43   44   43 1
    44   45   25 1
    45   46   24 1
    46   47   46 ar
    47   48   47 ar
    48   49   48 1
    49   50   48 ar
    50   51   50 1
    51   52   50 ar
    52   53   52 1
    53   54   52 ar
    54   55   54 1
    55   56   47 ar
    56   57   56 ar
    57   58   57 1
    58   59   57 ar
    59   60   46 ar
    60   61   60 ar
    61   62   61 1
    62   63   61 ar
    63   64   63 1
    64   65   63 ar
    65   66   65 1
    66   67   59 ar
    67   68   67 1
    68    8   10 ar
    69   14   15 ar
    70   20   22 ar
    71   33   35 ar
    72   36   45 ar
    73   43   45 ar
    74   54   56 ar
    75   59   60 ar
    76   65   67 ar
@<TRIPOS>SUBSTRUCTURE
     1 RES1 1

@<TRIPOS>CRYSIN
  17.9480    7.2978   21.1080  90.0000 101.8660  90.0000  14 1

