# MOL2 file generated by ConQuest
# Please check atom types

@<TRIPOS>MOLECULE
KUBVUY
    66    73     1
SMALL
NO_CHARGES
****
Generated from CSD

@<TRIPOS>ATOM
      1 C1        -1.5676   15.8667   10.9026 C.ar      1 RES1    0.0000
      2 C2        -2.8680   15.8394   11.2759 C.ar      1 RES1    0.0000
      3 C3        -3.6851   14.7584   10.9112 C.ar      1 RES1    0.0000
      4 C4        -3.2001   13.7371   10.1782 C.ar      1 RES1    0.0000
      5 C5         0.6503   11.5876    7.9204 C.ar      1 RES1    0.0000
      6 C6         1.9756   11.5776    7.6122 C.ar      1 RES1    0.0000
      7 C7         2.8032   12.6412    8.0223 C.ar      1 RES1    0.0000
      8 C8         2.2999   13.6774    8.7111 C.ar      1 RES1    0.0000
      9 C9         0.3703   14.8081    9.7854 C.ar      1 RES1    0.0000
     10 C10       -1.2973   12.6462    9.0180 C.ar      1 RES1    0.0000
     11 C11       -0.9906   14.8081   10.1426 C.ar      1 RES1    0.0000
     12 C12       -1.8230   13.7147    9.7633 C.ar      1 RES1    0.0000
     13 C13        0.9063   13.7371    9.0524 C.ar      1 RES1    0.0000
     14 C14        0.0608   12.6536    8.6521 C.ar      1 RES1    0.0000
     15 C15       -2.1753   11.4981    8.6435 C.ar      1 RES1    0.0000
     16 C16       -2.5093   10.5439    9.5693 C.ar      1 RES1    0.0000
     17 C17       -3.3238    9.4852    9.2316 C.ar      1 RES1    0.0000
     18 C18       -3.8352    9.3759    7.9560 C.ar      1 RES1    0.0000
     19 C19       -3.5090   10.3177    7.0364 C.ar      1 RES1    0.0000
     20 C20       -2.6836   11.3788    7.3580 C.ar      1 RES1    0.0000
     21 C21        1.7979   14.6267   12.2802 C.ar      1 RES1    0.0000
     22 C22        2.4424   14.5049   13.4539 C.ar      1 RES1    0.0000
     23 C23        3.2778   15.5511   13.9094 C.ar      1 RES1    0.0000
     24 C24        3.4424   16.6768   13.1937 C.ar      1 RES1    0.0000
     25 C25        2.2637   19.3606    9.1837 C.ar      1 RES1    0.0000
     26 C26        1.6012   19.4600    8.0039 C.ar      1 RES1    0.0000
     27 C27        0.8178   18.4014    7.5299 C.ar      1 RES1    0.0000
     28 C28        0.7037   17.2633    8.2482 C.ar      1 RES1    0.0000
     29 C29        1.2529   15.9313   10.2458 C.ar      1 RES1    0.0000
     30 C30        2.8750   18.0535   11.1985 C.ar      1 RES1    0.0000
     31 C31        1.9270   15.7971   11.4711 C.ar      1 RES1    0.0000
     32 C32        2.7613   16.8657   11.9450 C.ar      1 RES1    0.0000
     33 C33        1.3854   17.0993    9.4895 C.ar      1 RES1    0.0000
     34 C34        2.1959   18.1778    9.9707 C.ar      1 RES1    0.0000
     35 C35        3.7041   19.1718   11.7265 C.ar      1 RES1    0.0000
     36 C36        3.2619   19.9396   12.7934 C.ar      1 RES1    0.0000
     37 C37        4.0507   20.9535   13.3152 C.ar      1 RES1    0.0000
     38 C38        5.2732   21.2294   12.7750 C.ar      1 RES1    0.0000
     39 C39        5.7267   20.5037   11.7117 C.ar      1 RES1    0.0000
     40 C40        4.9339   19.4749   11.1826 C.ar      1 RES1    0.0000
     41 H1        -1.0095   16.6247   11.1236 H         1 RES1    0.0000
     42 H2        -3.2287   16.5998   11.7498 H         1 RES1    0.0000
     43 H3        -4.6048   14.7609   11.1727 H         1 RES1    0.0000
     44 H4        -3.7724   12.9469    9.9327 H         1 RES1    0.0000
     45 H5         0.0905   10.8595    7.6122 H         1 RES1    0.0000
     46 H6         2.3785   10.8098    7.1825 H         1 RES1    0.0000
     47 H7         3.7970   12.6238    7.8209 H         1 RES1    0.0000
     48 H8         2.8270   14.4130    9.0119 H         1 RES1    0.0000
     49 H9        -2.1461   10.6358   10.2519 H         1 RES1    0.0000
     50 H10       -3.5117    8.7721    9.8836 H         1 RES1    0.0000
     51 H11       -4.3491    8.5733    7.7104 H         1 RES1    0.0000
     52 H12       -3.8964   10.3376    6.1266 H         1 RES1    0.0000
     53 H13       -2.4157   12.0771    6.6914 H         1 RES1    0.0000
     54 H14        1.2308   13.8912   11.9462 H         1 RES1    0.0000
     55 H15        2.3752   13.7172   13.9843 H         1 RES1    0.0000
     56 H16        3.6997   15.4070   14.7578 H         1 RES1    0.0000
     57 H17        4.0214   17.4696   13.4809 H         1 RES1    0.0000
     58 H18        2.7819   20.1285    9.5644 H         1 RES1    0.0000
     59 H19        1.6692   20.2776    7.5508 H         1 RES1    0.0000
     60 H20        0.3513   18.4636    6.7036 H         1 RES1    0.0000
     61 H21        0.1712   16.5501    7.9682 H         1 RES1    0.0000
     62 H22        2.4229   19.6812   13.2477 H         1 RES1    0.0000
     63 H23        3.6456   21.4953   14.0212 H         1 RES1    0.0000
     64 H24        5.8794   22.0419   13.1126 H         1 RES1    0.0000
     65 H25        6.6073   20.5510   11.2832 H         1 RES1    0.0000
     66 H26        5.2365   18.8860   10.4238 H         1 RES1    0.0000
@<TRIPOS>BOND
     1    1    2 ar
     2    2    3 ar
     3    3    4 ar
     4    4   12 ar
     5    5    6 ar
     6    6    7 ar
     7    7    8 ar
     8    8   13 ar
     9    9   11 ar
    10   10   12 ar
    11   11    1 ar
    12   12   11 ar
    13   13    9 ar
    14   14    5 ar
    15   15   10 1
    16   16   15 ar
    17   17   16 ar
    18   18   17 ar
    19   19   18 ar
    20   20   15 ar
    21   21   22 ar
    22   22   23 ar
    23   23   24 ar
    24   24   32 ar
    25   25   26 ar
    26   26   27 ar
    27   27   28 ar
    28   28   33 ar
    29   29    9 1
    30   30   32 ar
    31   31   21 ar
    32   32   31 ar
    33   33   29 ar
    34   34   25 ar
    35   35   30 1
    36   36   35 ar
    37   37   36 ar
    38   38   37 ar
    39   39   38 ar
    40   40   35 ar
    41   41    1 1
    42   42    2 1
    43   43    3 1
    44   44    4 1
    45   45    5 1
    46   46    6 1
    47   47    7 1
    48   48    8 1
    49   49   16 1
    50   50   17 1
    51   51   18 1
    52   52   19 1
    53   53   20 1
    54   54   21 1
    55   55   22 1
    56   56   23 1
    57   57   24 1
    58   58   25 1
    59   59   26 1
    60   60   27 1
    61   61   28 1
    62   62   36 1
    63   63   37 1
    64   64   38 1
    65   65   39 1
    66   66   40 1
    67   10   14 ar
    68   13   14 ar
    69   19   20 ar
    70   29   31 ar
    71   30   34 ar
    72   33   34 ar
    73   39   40 ar
@<TRIPOS>SUBSTRUCTURE
     1 RES1 1

@<TRIPOS>CRYSIN
   9.2630   24.8500   12.5600  90.0000 102.1700  90.0000  14 1

