# MOL2 file generated by ConQuest
# Please check atom types

@<TRIPOS>MOLECULE
KUBWOT
    49    54     1
SMALL
NO_CHARGES
****
Generated from CSD

@<TRIPOS>ATOM
      1 C1         6.8572    4.4957    1.1709 C.ar      1 RES1    0.0000
      2 C2        10.4968    0.3556    1.7098 C.ar      1 RES1    0.0000
      3 C3         6.4085    5.7717    1.0794 C.ar      1 RES1    0.0000
      4 C4        11.8273    0.0087    1.7597 C.ar      1 RES1    0.0000
      5 C5         5.0696    6.0367    0.7000 C.ar      1 RES1    0.0000
      6 C6        12.7161    0.8245    2.4032 C.ar      1 RES1    0.0000
      7 C7         4.2242    5.0344    0.4432 C.ar      1 RES1    0.0000
      8 C8        12.2815    1.9820    3.0222 C.ar      1 RES1    0.0000
      9 C9         3.3129    0.2162   -0.0736 C.ar      1 RES1    0.0000
     10 C10        8.6293    4.0721    5.3126 C.ar      1 RES1    0.0000
     11 C11        3.7041   -1.0529    0.0000 C.ar      1 RES1    0.0000
     12 C12        7.3787    3.8612    5.8482 C.ar      1 RES1    0.0000
     13 C13        5.0234   -1.3475    0.4170 C.ar      1 RES1    0.0000
     14 C14        6.5137    2.9669    5.2366 C.ar      1 RES1    0.0000
     15 C15        5.8758   -0.3574    0.7392 C.ar      1 RES1    0.0000
     16 C16        6.8894    2.3516    4.0681 C.ar      1 RES1    0.0000
     17 C17        6.4198    2.0395    0.9583 C.ar      1 RES1    0.0000
     18 C18        8.6027    1.9193    2.2732 C.2       1 RES1    0.0000
     19 C19        3.7854    2.6305    0.1979 C.ar      1 RES1    0.0000
     20 C20       10.4169    3.5980    3.5954 C.3       1 RES1    0.0000
     21 C21        5.9992    3.3888    0.9011 C.ar      1 RES1    0.0000
     22 C22       10.0341    1.5183    2.3018 C.ar      1 RES1    0.0000
     23 C23        4.6434    3.6659    0.5111 C.ar      1 RES1    0.0000
     24 C24       10.9216    2.3272    2.9707 C.ar      1 RES1    0.0000
     25 C25        5.5169    1.0128    0.6525 C.ar      1 RES1    0.0000
     26 C26        8.1414    2.5887    3.4965 C.ar      1 RES1    0.0000
     27 C27        4.1822    1.3091    0.2617 C.ar      1 RES1    0.0000
     28 C28        9.0331    3.4236    4.1654 C.ar      1 RES1    0.0000
     29 C29        7.8400    1.6961    1.2102 C.2       1 RES1    0.0000
     30 H1         7.8091    4.3057    1.4800 H         1 RES1    0.0000
     31 H2         9.8280   -0.2266    1.2347 H         1 RES1    0.0000
     32 H3         7.1222    6.5021    1.2020 H         1 RES1    0.0000
     33 H4        12.1413   -0.8193    1.3410 H         1 RES1    0.0000
     34 H5         4.8790    6.9205    0.7278 H         1 RES1    0.0000
     35 H6        13.7676    0.5578    2.4286 H         1 RES1    0.0000
     36 H7         3.3087    5.2122    0.0981 H         1 RES1    0.0000
     37 H8        12.9405    2.6148    3.5325 H         1 RES1    0.0000
     38 H9         2.4395    0.6101   -0.3843 H         1 RES1    0.0000
     39 H10        9.2111    4.6892    5.7403 H         1 RES1    0.0000
     40 H11        2.9863   -1.9872   -0.2698 H         1 RES1    0.0000
     41 H12        7.0801    4.4103    6.6561 H         1 RES1    0.0000
     42 H13        5.2295   -2.4056    0.5479 H         1 RES1    0.0000
     43 H14        5.6641    2.8937    5.6421 H         1 RES1    0.0000
     44 H15        6.7717   -0.5230    1.1121 H         1 RES1    0.0000
     45 H16        6.3090    1.7781    3.5243 H         1 RES1    0.0000
     46 H17        2.5937    2.8240   -0.0981 H         1 RES1    0.0000
     47 H18       10.9917    3.9745    4.1948 H         1 RES1    0.0000
     48 H19       10.4589    4.3754    2.9110 H         1 RES1    0.0000
     49 H20        8.2157    1.2028    0.4988 H         1 RES1    0.0000
@<TRIPOS>BOND
     1    1    3 ar
     2    2    4 ar
     3    3    5 ar
     4    4    6 ar
     5    5    7 ar
     6    6    8 ar
     7    7   23 ar
     8    8   24 ar
     9    9   11 ar
    10   10   12 ar
    11   11   13 ar
    12   12   14 ar
    13   13   15 ar
    14   14   16 ar
    15   15   25 ar
    16   16   26 ar
    17   17   21 ar
    18   18   22 1
    19   19   23 ar
    20   20   24 1
    21   21    1 ar
    22   22    2 ar
    23   23   21 ar
    24   24   22 ar
    25   25   17 ar
    26   26   18 1
    27   27    9 ar
    28   28   10 ar
    29   29   17 1
    30   30    1 1
    31   31    2 1
    32   32    3 1
    33   33    4 1
    34   34    5 1
    35   35    6 1
    36   36    7 1
    37   37    8 1
    38   38    9 1
    39   39   10 1
    40   40   11 1
    41   41   12 1
    42   42   13 1
    43   43   14 1
    44   44   15 1
    45   45   16 1
    46   46   19 1
    47   47   20 1
    48   48   20 1
    49   49   29 1
    50   18   29 2
    51   19   27 ar
    52   20   28 1
    53   25   27 ar
    54   26   28 ar
@<TRIPOS>SUBSTRUCTURE
     1 RES1 1

@<TRIPOS>CRYSIN
  14.0200   17.4320    8.1770  90.0000  90.0000  90.0000  19 1

