# MOL2 file generated by ConQuest
# Please check atom types

@<TRIPOS>MOLECULE
KUBWAF01
    46    51     1
SMALL
NO_CHARGES
****
Generated from CSD

@<TRIPOS>ATOM
      1 C1         6.0461    3.4910   14.0486 C.ar      1 RES1    0.0000
      2 H1         6.1750    3.0036   13.1892 H         1 RES1    0.0000
      3 C2         6.5555    4.7406   14.2343 C.ar      1 RES1    0.0000
      4 H2         7.1179    5.1942   13.5100 H         1 RES1    0.0000
      5 C3         6.3132    5.4487   15.4341 C.ar      1 RES1    0.0000
      6 H3         6.7032    6.3592   15.5552 H         1 RES1    0.0000
      7 C4         5.5793    4.8865   16.4218 C.ar      1 RES1    0.0000
      8 H4         5.3796    5.3865   17.2812 H         1 RES1    0.0000
      9 C5         2.8329    1.1403   18.1045 C.ar      1 RES1    0.0000
     10 H5         2.6554    1.6720   18.9200 H         1 RES1    0.0000
     11 C6         2.3543   -0.1209   17.9696 C.ar      1 RES1    0.0000
     12 H6         1.7943   -0.5556   18.6978 H         1 RES1    0.0000
     13 C7         2.6461   -0.8739   16.7978 C.ar      1 RES1    0.0000
     14 H7         2.2765   -1.8043   16.7004 H         1 RES1    0.0000
     15 C8         3.4014   -0.3398   15.7995 C.ar      1 RES1    0.0000
     16 H8         3.5702   -0.8678   14.9728 H         1 RES1    0.0000
     17 C9         4.7289    1.5565   14.8898 C.ar      1 RES1    0.0000
     18 C10        4.2130    2.9975   17.2512 C.ar      1 RES1    0.0000
     19 H9         4.0527    3.5160   18.0660 H         1 RES1    0.0000
     20 C11        5.0158    3.5777   16.2737 C.ar      1 RES1    0.0000
     21 C12        3.6501    1.7322   17.0920 C.ar      1 RES1    0.0000
     22 C13        3.9299    0.9846   15.9017 C.ar      1 RES1    0.0000
     23 C14        5.2583    2.8538   15.0570 C.ar      1 RES1    0.0000
     24 C15        7.3136    0.2617   14.5433 C.ar      1 RES1    0.0000
     25 H10        7.1369    0.8263   15.3446 H         1 RES1    0.0000
     26 C16        8.5240   -0.3395   14.3992 C.ar      1 RES1    0.0000
     27 H11        9.2192   -0.2249   15.0698 H         1 RES1    0.0000
     28 C17        8.7918   -1.1545   13.2665 C.ar      1 RES1    0.0000
     29 H12        9.6647   -1.5847   13.1875 H         1 RES1    0.0000
     30 C18        7.8536   -1.3233   12.3063 C.ar      1 RES1    0.0000
     31 H13        8.0580   -1.8943   11.5175 H         1 RES1    0.0000
     32 C19        3.4712   -0.1299   10.3730 C.ar      1 RES1    0.0000
     33 H14        3.7155   -0.6702    9.5727 H         1 RES1    0.0000
     34 C20        2.3240    0.5909   10.4298 C.ar      1 RES1    0.0000
     35 H15        1.6801    0.5609    9.7125 H         1 RES1    0.0000
     36 C21        2.0149    1.3605   11.5825 C.ar      1 RES1    0.0000
     37 H16        1.1544    1.8634   11.5948 H         1 RES1    0.0000
     38 C22        2.8816    1.4068   12.6326 C.ar      1 RES1    0.0000
     39 H17        2.6903    1.9895   13.4311 H         1 RES1    0.0000
     40 C23        5.0476    0.7735   13.6563 C.ar      1 RES1    0.0000
     41 C24        5.6126   -0.8178   11.3990 C.ar      1 RES1    0.0000
     42 H18        5.8439   -1.3713   10.5797 H         1 RES1    0.0000
     43 C25        4.1145    0.6923   12.6062 C.ar      1 RES1    0.0000
     44 C26        6.2951    0.1208   13.5515 C.ar      1 RES1    0.0000
     45 C27        4.4101   -0.1112   11.4497 C.ar      1 RES1    0.0000
     46 C28        6.5728   -0.6933   12.4001 C.ar      1 RES1    0.0000
@<TRIPOS>BOND
     1    1    2 1
     2    3    1 ar
     3    4    3 1
     4    5    3 ar
     5    6    5 1
     6    7    5 ar
     7    8    7 1
     8    9   10 1
     9   11    9 ar
    10   12   11 1
    11   13   11 ar
    12   14   13 1
    13   15   13 ar
    14   16   15 1
    15   17   22 ar
    16   18   19 1
    17   20    7 ar
    18   21    9 ar
    19   22   15 ar
    20   23    1 ar
    21   24   25 1
    22   26   24 ar
    23   27   26 1
    24   28   26 ar
    25   29   28 1
    26   30   28 ar
    27   31   30 1
    28   32   33 1
    29   34   32 ar
    30   35   34 1
    31   36   34 ar
    32   37   36 1
    33   38   36 ar
    34   39   38 1
    35   40   17 1
    36   41   42 1
    37   43   38 ar
    38   44   24 ar
    39   45   32 ar
    40   46   30 ar
    41   17   23 ar
    42   18   20 ar
    43   18   21 ar
    44   20   23 ar
    45   21   22 ar
    46   40   43 ar
    47   40   44 ar
    48   41   45 ar
    49   41   46 ar
    50   43   45 ar
    51   44   46 ar
@<TRIPOS>SUBSTRUCTURE
     1 RES1 1

@<TRIPOS>CRYSIN
  12.7295    8.8187   17.2680  90.0000 107.6670  90.0000  14 1

