# MOL2 file generated by ConQuest
# Please check atom types

@<TRIPOS>MOLECULE
KUBWIN
    49    54     1
SMALL
NO_CHARGES
****
Generated from CSD

@<TRIPOS>ATOM
      1 C1         8.8255   -0.6170    1.5177 C.ar      1 RES1    0.0000
      2 C2         9.0659   -0.7852    0.1939 C.ar      1 RES1    0.0000
      3 C3         8.4082    0.0115   -0.7615 C.ar      1 RES1    0.0000
      4 C4         7.5232    0.9430   -0.3683 C.ar      1 RES1    0.0000
      5 C5         4.9735    3.2228    3.1528 C.ar      1 RES1    0.0000
      6 C6         4.5987    3.3386    4.4499 C.ar      1 RES1    0.0000
      7 C7         5.1964    2.5225    5.4249 C.ar      1 RES1    0.0000
      8 C8         6.1713    1.6409    5.0940 C.ar      1 RES1    0.0000
      9 C9         7.6325    0.5731    3.3806 C.ar      1 RES1    0.0000
     10 C10        6.3045    2.1031    1.4198 C.ar      1 RES1    0.0000
     11 C11        7.9013    0.3589    2.0052 C.ar      1 RES1    0.0000
     12 C12        7.2283    1.1487    1.0159 C.ar      1 RES1    0.0000
     13 C13        6.6216    1.4901    3.7453 C.ar      1 RES1    0.0000
     14 C14        5.9688    2.2823    2.7578 C.ar      1 RES1    0.0000
     15 C15        8.3742   -0.2182    4.4481 C.3       1 RES1    0.0000
     16 H1         9.3075   -1.2081    2.1707 H         1 RES1    0.0000
     17 H2         9.7107   -1.5325   -0.1423 H         1 RES1    0.0000
     18 H3         8.5907   -0.1248   -1.7437 H         1 RES1    0.0000
     19 H4         7.0378    1.5176   -1.0142 H         1 RES1    0.0000
     20 H5         4.5804    3.7640    2.4554 H         1 RES1    0.0000
     21 H6         3.9380    4.0285    4.6972 H         1 RES1    0.0000
     22 H7         4.9222    2.5958    6.4053 H         1 RES1    0.0000
     23 H8         6.5708    1.0783    5.7825 H         1 RES1    0.0000
     24 H9         5.8785    2.6458    0.7295 H         1 RES1    0.0000
     25 H10        7.7257   -0.8436    4.8573 H         1 RES1    0.0000
     26 C9B        9.1158    0.5731    5.5156 C.ar      1 RES1    0.0000
     27 H10B       9.0227   -0.8436    4.0389 H         1 RES1    0.0000
     28 C11B       8.8471    0.3589    6.8910 C.ar      1 RES1    0.0000
     29 C13B      10.1268    1.4901    5.1509 C.ar      1 RES1    0.0000
     30 C1B        7.9228   -0.6170    7.3785 C.ar      1 RES1    0.0000
     31 C12B       9.5201    1.1487    7.8803 C.ar      1 RES1    0.0000
     32 C8B       10.5771    1.6409    3.8022 C.ar      1 RES1    0.0000
     33 C14B      10.7795    2.2823    6.1384 C.ar      1 RES1    0.0000
     34 C2B        7.6824   -0.7852    8.7023 C.ar      1 RES1    0.0000
     35 H1B        7.4409   -1.2081    6.7255 H         1 RES1    0.0000
     36 C4B        9.2251    0.9430    9.2645 C.ar      1 RES1    0.0000
     37 C10B      10.4438    2.1031    7.4764 C.ar      1 RES1    0.0000
     38 C7B       11.5519    2.5225    3.4713 C.ar      1 RES1    0.0000
     39 H8B       10.1776    1.0783    3.1137 H         1 RES1    0.0000
     40 C5B       11.7748    3.2228    5.7434 C.ar      1 RES1    0.0000
     41 C3B        8.3402    0.0115    9.6577 C.ar      1 RES1    0.0000
     42 H2B        7.0377   -1.5325    9.0385 H         1 RES1    0.0000
     43 H4B        9.7106    1.5176    9.9104 H         1 RES1    0.0000
     44 H9B       10.8699    2.6458    8.1667 H         1 RES1    0.0000
     45 C6B       12.1497    3.3386    4.4463 C.ar      1 RES1    0.0000
     46 H7B       11.8262    2.5958    2.4909 H         1 RES1    0.0000
     47 H5B       12.1679    3.7640    6.4408 H         1 RES1    0.0000
     48 H3B        8.1577   -0.1248   10.6399 H         1 RES1    0.0000
     49 H6B       12.8103    4.0285    4.1990 H         1 RES1    0.0000
@<TRIPOS>BOND
     1    1    2 ar
     2    2    3 ar
     3    3    4 ar
     4    4   12 ar
     5    5    6 ar
     6    6    7 ar
     7    7    8 ar
     8    8   13 ar
     9    9   11 ar
    10   10   12 ar
    11   11    1 ar
    12   12   11 ar
    13   13    9 ar
    14   14    5 ar
    15   15    9 1
    16   16    1 1
    17   17    2 1
    18   18    3 1
    19   19    4 1
    20   20    5 1
    21   21    6 1
    22   22    7 1
    23   23    8 1
    24   24   10 1
    25   25   15 1
    26   26   15 1
    27   27   15 1
    28   28   26 ar
    29   29   26 ar
    30   30   28 ar
    31   31   28 ar
    32   32   29 ar
    33   33   29 ar
    34   34   30 ar
    35   35   30 1
    36   36   31 ar
    37   37   31 ar
    38   38   32 ar
    39   39   32 1
    40   40   33 ar
    41   41   34 ar
    42   42   34 1
    43   43   36 1
    44   44   37 1
    45   45   38 ar
    46   46   38 1
    47   47   40 1
    48   48   41 1
    49   49   45 1
    50   10   14 ar
    51   13   14 ar
    52   33   37 ar
    53   36   41 ar
    54   40   45 ar
@<TRIPOS>SUBSTRUCTURE
     1 RES1 1

@<TRIPOS>CRYSIN
  21.0520    4.9920   19.7650  90.0000 115.8160  90.0000  15 1

