# MOL2 file generated by ConQuest
# Please check atom types

@<TRIPOS>MOLECULE
KUBWEJ
    37    40     1
SMALL
NO_CHARGES
****
Generated from CSD

@<TRIPOS>ATOM
      1 C1         7.3265    1.4798   15.3625 C.ar      1 RES1    0.0000
      2 C2         9.2429    3.1411   13.8768 C.ar      1 RES1    0.0000
      3 C3         6.4376    0.7463   16.0715 C.ar      1 RES1    0.0000
      4 C4         8.7317    2.9723   12.6198 C.ar      1 RES1    0.0000
      5 C5         6.8802   -0.3272   16.8738 C.ar      1 RES1    0.0000
      6 C6         8.3440    4.0505   11.8524 C.ar      1 RES1    0.0000
      7 C7         8.1833   -0.6393   16.9321 C.ar      1 RES1    0.0000
      8 C8         8.4421    5.3323   12.3189 C.ar      1 RES1    0.0000
      9 C9        12.8552    0.2416   15.6797 C.ar      1 RES1    0.0000
     10 C10        8.9514    5.5002   13.5690 C.ar      1 RES1    0.0000
     11 C11       13.7606    0.9831   15.0430 C.ar      1 RES1    0.0000
     12 C12        9.3497    4.4284   14.3410 C.ar      1 RES1    0.0000
     13 C13       13.3640    2.0859   14.2617 C.ar      1 RES1    0.0000
     14 C14        8.0236    6.5095   11.4583 C.3       1 RES1    0.0000
     15 C15       12.0600    2.4035   14.1544 C.ar      1 RES1    0.0000
     16 C16        9.6733    1.9726   14.7094 C.ar      1 RES1    0.0000
     17 C17       10.5063   -0.1925   16.2907 C.ar      1 RES1    0.0000
     18 C18        8.7206    1.2057   15.4045 C.ar      1 RES1    0.0000
     19 C19        9.1551    0.1093   16.2231 C.ar      1 RES1    0.0000
     20 C20       11.0428    1.6581   14.8121 C.ar      1 RES1    0.0000
     21 C21       11.4634    0.5427   15.6074 C.ar      1 RES1    0.0000
     22 H1         7.0301    2.1865   14.8564 H         1 RES1    0.0000
     23 H2         5.4964    0.9269   15.9759 H         1 RES1    0.0000
     24 H3         8.6148    2.0914   12.2909 H         1 RES1    0.0000
     25 H4         6.2213   -0.8318   17.3519 H         1 RES1    0.0000
     26 H5         7.9686    3.9135   10.9382 H         1 RES1    0.0000
     27 H6         8.5179   -1.3943   17.4918 H         1 RES1    0.0000
     28 H7        13.1009   -0.5070   16.2091 H         1 RES1    0.0000
     29 H8         9.0601    6.4010   13.9235 H         1 RES1    0.0000
     30 H9        14.6966    0.8080   15.1129 H         1 RES1    0.0000
     31 H10        9.7396    4.6027   15.2762 H         1 RES1    0.0000
     32 H11       14.0584    2.6301   13.8069 H         1 RES1    0.0000
     33 H12       11.7660    3.1530   13.6436 H         1 RES1    0.0000
     34 H13       10.7827   -0.9190   16.8155 H         1 RES1    0.0000
     35 H14        8.0072    7.2724   11.9877 H         1 RES1    0.0000
     36 H15        8.3397    6.4802   10.6350 H         1 RES1    0.0000
     37 H16        7.1151    6.4010   11.4280 H         1 RES1    0.0000
@<TRIPOS>BOND
     1    1    3 ar
     2    2    4 ar
     3    3    5 ar
     4    4    6 ar
     5    5    7 ar
     6    6    8 ar
     7    7   19 ar
     8    8   10 ar
     9    9   11 ar
    10   10   12 ar
    11   11   13 ar
    12   12    2 ar
    13   13   15 ar
    14   14    8 1
    15   15   20 ar
    16   16    2 1
    17   17   19 ar
    18   18    1 ar
    19   19   18 ar
    20   20   16 ar
    21   21    9 ar
    22   22    1 1
    23   23    3 1
    24   24    4 1
    25   25    5 1
    26   26    6 1
    27   27    7 1
    28   28    9 1
    29   29   10 1
    30   30   11 1
    31   31   12 1
    32   32   13 1
    33   33   15 1
    34   34   17 1
    35   35   14 1
    36   36   14 1
    37   37   14 1
    38   16   18 ar
    39   17   21 ar
    40   20   21 ar
@<TRIPOS>SUBSTRUCTURE
     1 RES1 1

@<TRIPOS>CRYSIN
  16.5890    7.9220   23.7160  90.0000 100.4530  90.0000  15 1

