# MOL2 file generated by ConQuest
# Please check atom types

@<TRIPOS>MOLECULE
KUBWAF
    84    94     2
SMALL
NO_CHARGES
****
Generated from CSD

@<TRIPOS>ATOM
      1 C1         6.8557    5.0070    3.0455 C.ar      1 RES1    0.0000
      2 C2         6.1775    2.7692   -3.7568 C.ar      2 RES2    0.0000
      3 C3         9.6116    6.2767    0.1188 C.ar      1 RES1    0.0000
      4 C4         9.4262    1.7933   -4.8246 C.ar      2 RES2    0.0000
      5 C5         6.4292    5.0632    4.3306 C.ar      1 RES1    0.0000
      6 C6         5.5610    3.8855   -3.2984 C.ar      2 RES2    0.0000
      7 C7        10.9038    6.5117   -0.2088 C.ar      1 RES1    0.0000
      8 C8        10.6862    2.1050   -4.4833 C.ar      2 RES2    0.0000
      9 C9         5.4604    6.0161    4.7176 C.ar      1 RES1    0.0000
     10 C10        4.7661    4.6724   -4.1455 C.ar      2 RES2    0.0000
     11 C11       11.6963    5.4924   -0.7724 C.ar      1 RES1    0.0000
     12 C12       11.4420    1.2339   -3.6753 C.ar      2 RES2    0.0000
     13 C13        4.9796    6.8949    3.8264 C.ar      1 RES1    0.0000
     14 C14        4.6182    4.3377   -5.4306 C.ar      2 RES2    0.0000
     15 C15       11.1701    4.2764   -0.9948 C.ar      1 RES1    0.0000
     16 C16       10.8870    0.1047   -3.2152 C.ar      2 RES2    0.0000
     17 C17        4.9502    8.8261   -0.7062 C.ar      1 RES1    0.0000
     18 C18        5.6599    1.3820   -9.2247 C.ar      2 RES2    0.0000
     19 C19        7.4016    1.1368   -0.7096 C.ar      1 RES1    0.0000
     20 C20        6.9615   -2.8714   -2.7959 C.ar      2 RES2    0.0000
     21 C21        5.3765    8.7878   -1.9726 C.ar      1 RES1    0.0000
     22 C22        6.2677    0.2861   -9.6865 C.ar      2 RES2    0.0000
     23 C23        6.1213    0.8967   -0.4210 C.ar      1 RES1    0.0000
     24 C24        5.6921   -3.1575   -3.0811 C.ar      2 RES2    0.0000
     25 C25        6.2493    7.7890   -2.4191 C.ar      1 RES1    0.0000
     26 C26        7.0234   -0.5416   -8.8750 C.ar      2 RES2    0.0000
     27 C27        5.2931    1.9032    0.1137 C.ar      1 RES1    0.0000
     28 C28        4.9296   -2.3094   -3.9214 C.ar      2 RES2    0.0000
     29 C29        6.7060    6.8438   -1.5635 C.ar      1 RES1    0.0000
     30 C30        7.1570   -0.2631   -7.5662 C.ar      2 RES2    0.0000
     31 C31        5.7869    3.1422    0.3259 C.ar      1 RES1    0.0000
     32 C32        5.4986   -1.1930   -4.4528 C.ar      2 RES2    0.0000
     33 C33        6.7785    5.8577    0.7147 C.ar      1 RES1    0.0000
     34 C34        6.6721    1.2032   -5.6190 C.ar      2 RES2    0.0000
     35 C35        7.6667    4.7490    0.2275 C.ar      1 RES1    0.0000
     36 C36        7.4513    0.3066   -4.7074 C.ar      2 RES2    0.0000
     37 C37        4.9686    7.8273    1.5414 C.ar      1 RES1    0.0000
     38 C38        5.1244    2.8305   -7.3081 C.ar      2 RES2    0.0000
     39 C39        9.2765    2.7104   -0.8437 C.ar      1 RES1    0.0000
     40 C40        8.9220   -1.3948   -3.0370 C.ar      2 RES2    0.0000
     41 C41        6.3646    5.9062    2.0558 C.ar      1 RES1    0.0000
     42 C42        6.0533    2.3630   -5.1131 C.ar      2 RES2    0.0000
     43 C43        9.0124    5.0070   -0.0900 C.ar      1 RES1    0.0000
     44 C44        8.7720    0.6105   -4.3730 C.ar      2 RES2    0.0000
     45 C45        5.4148    6.9025    2.4666 C.ar      1 RES1    0.0000
     46 C46        5.2532    3.1843   -5.9721 C.ar      2 RES2    0.0000
     47 C47        9.8215    3.9698   -0.6485 C.ar      1 RES1    0.0000
     48 C48        9.5354   -0.2504   -3.5361 C.ar      2 RES2    0.0000
     49 C49        6.3172    6.8284   -0.1952 C.ar      1 RES1    0.0000
     50 C50        6.5417    0.8813   -6.9822 C.ar      2 RES2    0.0000
     51 C51        7.1358    3.4640    0.0340 C.ar      1 RES1    0.0000
     52 C52        6.8489   -0.8481   -4.1761 C.ar      2 RES2    0.0000
     53 C53        5.4112    7.8452    0.2360 C.ar      1 RES1    0.0000
     54 C54        5.7610    1.7218   -7.8429 C.ar      2 RES2    0.0000
     55 C55        7.9667    2.4294   -0.5059 C.ar      1 RES1    0.0000
     56 C56        7.6363   -1.7116   -3.3256 C.ar      2 RES2    0.0000
     57 H1         7.4863    4.3633    2.8180 H         1 RES1    0.0000
     58 H2         6.7724    2.2480   -3.1575 H         2 RES2    0.0000
     59 H3         9.0760    7.0507    0.4923 H         1 RES1    0.0000
     60 H4         8.9055    2.3502   -5.3814 H         2 RES2    0.0000
     61 H5         6.8210    4.3684    4.9400 H         1 RES1    0.0000
     62 H6         5.6742    4.1129   -2.3597 H         2 RES2    0.0000
     63 H7        11.2867    7.4339   -0.0509 H         1 RES1    0.0000
     64 H8        11.1205    2.9122   -4.7533 H         2 RES2    0.0000
     65 H9         5.2146    5.9778    5.6360 H         1 RES1    0.0000
     66 H10        4.3292    5.4413   -3.8026 H         2 RES2    0.0000
     67 H11       12.6329    5.6968   -1.0355 H         1 RES1    0.0000
     68 H12       12.3788    1.4306   -3.4122 H         2 RES2    0.0000
     69 H13        4.2750    7.6127    4.0742 H         1 RES1    0.0000
     70 H14        4.0383    4.7771   -6.0264 H         2 RES2    0.0000
     71 H15       11.7144    3.5509   -1.3581 H         1 RES1    0.0000
     72 H16        4.3251    9.4776   -0.3395 H         1 RES1    0.0000
     73 H17       11.3254   -0.5365   -2.6822 H         2 RES2    0.0000
     74 H18        5.0999    1.9670   -9.7951 H         2 RES2    0.0000
     75 H19        8.0133    0.4598   -1.0525 H         1 RES1    0.0000
     76 H20        7.4999   -3.4232   -2.2578 H         2 RES2    0.0000
     77 H21        4.9653    9.5031   -2.5803 H         1 RES1    0.0000
     78 H22        5.7944    0.0511   -0.5602 H         1 RES1    0.0000
     79 H23        5.2924   -3.8830   -2.7671 H         2 RES2    0.0000
     80 H24        6.5729    7.7660   -3.3782 H         1 RES1    0.0000
     81 H25        7.4476   -1.3284   -9.2519 H         2 RES2    0.0000
     82 H26        4.3617    1.7627    0.3056 H         1 RES1    0.0000
     83 H27        7.2761    6.1055   -1.8843 H         1 RES1    0.0000
     84 H28        4.0173   -2.4780   -4.1761 H         2 RES2    0.0000
@<TRIPOS>BOND
     1    1    5 ar
     2    2    6 ar
     3    3    7 ar
     4    4    8 ar
     5    5    9 ar
     6    6   10 ar
     7    7   11 ar
     8    8   12 ar
     9    9   13 ar
    10   10   14 ar
    11   11   15 ar
    12   12   16 ar
    13   13   45 ar
    14   14   46 ar
    15   15   47 ar
    16   16   48 ar
    17   17   21 ar
    18   18   22 ar
    19   19   23 ar
    20   20   24 ar
    21   21   25 ar
    22   22   26 ar
    23   23   27 ar
    24   24   28 ar
    25   25   29 ar
    26   26   30 ar
    27   27   31 ar
    28   28   32 ar
    29   29   49 ar
    30   30   50 ar
    31   31   51 ar
    32   32   52 ar
    33   33   35 1
    34   34   36 1
    35   35   43 ar
    36   36   44 ar
    37   37   45 ar
    38   38   46 ar
    39   39   47 ar
    40   40   48 ar
    41   41    1 ar
    42   42    2 ar
    43   43    3 ar
    44   44    4 ar
    45   45   41 ar
    46   46   42 ar
    47   47   43 ar
    48   48   44 ar
    49   49   33 ar
    50   50   34 ar
    51   51   35 ar
    52   52   36 ar
    53   53   17 ar
    54   54   18 ar
    55   55   19 ar
    56   56   20 ar
    57   57    1 1
    58   58    2 1
    59   59    3 1
    60   60    4 1
    61   61    5 1
    62   62    6 1
    63   63    7 1
    64   64    8 1
    65   65    9 1
    66   66   10 1
    67   67   11 1
    68   68   12 1
    69   69   13 1
    70   70   14 1
    71   71   15 1
    72   72   17 1
    73   73   16 1
    74   74   18 1
    75   75   19 1
    76   76   20 1
    77   77   21 1
    78   78   23 1
    79   79   24 1
    80   80   25 1
    81   81   26 1
    82   82   27 1
    83   83   29 1
    84   84   28 1
    85   33   41 ar
    86   34   42 ar
    87   37   53 ar
    88   38   54 ar
    89   39   55 ar
    90   40   56 ar
    91   49   53 ar
    92   50   54 ar
    93   51   55 ar
    94   52   56 ar
@<TRIPOS>SUBSTRUCTURE
     1 RES1 1
     2 RES2 2

@<TRIPOS>CRYSIN
   8.7830   25.5460   16.9770  90.0000  90.6500  90.0000 231 1

