# MOL2 file generated by ConQuest
# Please check atom types

@<TRIPOS>MOLECULE
KUXWAD
    94   100     2
SMALL
NO_CHARGES
****
Generated from CSD

@<TRIPOS>ATOM
      1 C1        -0.9017   -4.2519   -2.6627 C.3       1 RES1    0.0000
      2 C2        -0.5708   -5.7120   -2.3043 C.3       1 RES1    0.0000
      3 H1         0.3781   -5.8885   -2.5222 H         1 RES1    0.0000
      4 H2        -0.6846   -5.8373   -1.3300 H         1 RES1    0.0000
      5 C3        -1.4381   -6.7187   -3.0336 C.3       1 RES1    0.0000
      6 H3        -2.3804   -6.6045   -2.7513 H         1 RES1    0.0000
      7 H4        -1.1543   -7.6343   -2.7863 H         1 RES1    0.0000
      8 C4        -1.3440   -6.5525   -4.5430 C.3       1 RES1    0.0000
      9 H5        -1.9255   -7.2232   -4.9789 H         1 RES1    0.0000
     10 H6        -0.4118   -6.7276   -4.8293 H         1 RES1    0.0000
     11 C5        -1.7562   -5.1496   -5.0135 C.3       1 RES1    0.0000
     12 C6        -1.4798   -4.9419   -6.5114 C.ar      1 RES1    0.0000
     13 C7        -1.6711   -6.0265   -7.4011 C.ar      1 RES1    0.0000
     14 H7        -1.9645   -6.8604   -7.0546 H         1 RES1    0.0000
     15 C8        -1.4449   -5.9108   -8.7486 C.ar      1 RES1    0.0000
     16 H8        -1.5727   -6.6661   -9.3103 H         1 RES1    0.0000
     17 C9        -1.0237   -4.6822   -9.3178 C.ar      1 RES1    0.0000
     18 C10       -0.7607   -4.5412  -10.6846 C.ar      1 RES1    0.0000
     19 H9        -0.8626   -5.2935  -11.2552 H         1 RES1    0.0000
     20 C11       -0.3621   -3.3482  -11.2187 C.ar      1 RES1    0.0000
     21 H10       -0.1925   -3.2718  -12.1504 H         1 RES1    0.0000
     22 C12       -0.2018   -2.2369  -10.3748 C.ar      1 RES1    0.0000
     23 H11        0.0820   -1.4059  -10.7362 H         1 RES1    0.0000
     24 C13       -0.4533   -2.3452   -9.0303 C.ar      1 RES1    0.0000
     25 H12       -0.3494   -1.5803   -8.4758 H         1 RES1    0.0000
     26 C14       -0.8656   -3.5767   -8.4438 C.ar      1 RES1    0.0000
     27 C15       -1.0945   -3.7222   -7.0392 C.ar      1 RES1    0.0000
     28 C16       -0.8347   -2.5262   -6.1477 C.3       1 RES1    0.0000
     29 H13       -1.3168   -1.7465   -6.5193 H         1 RES1    0.0000
     30 H14        0.1321   -2.3185   -6.1734 H         1 RES1    0.0000
     31 C17       -1.2518   -2.7043   -4.6923 C.3       1 RES1    0.0000
     32 H15       -2.2248   -2.5470   -4.6049 H         1 RES1    0.0000
     33 H16       -0.7807   -2.0395   -4.1304 H         1 RES1    0.0000
     34 C18       -0.9167   -4.1117   -4.2078 C.3       1 RES1    0.0000
     35 H17        0.0304   -4.2660   -4.4927 H         1 RES1    0.0000
     36 C19       -2.1753   -3.8067   -1.9630 C.3       1 RES1    0.0000
     37 H18       -2.0389   -3.8238   -0.9934 H         1 RES1    0.0000
     38 H19       -2.9085   -4.4136   -2.1996 H         1 RES1    0.0000
     39 H20       -2.4035   -2.8964   -2.2440 H         1 RES1    0.0000
     40 C20        0.2452   -3.3920   -2.1005 C.3       1 RES1    0.0000
     41 H21        1.0607   -3.5537   -2.6204 H         1 RES1    0.0000
     42 H22        0.4041   -3.6309   -1.1641 H         1 RES1    0.0000
     43 H23        0.0029   -2.4446   -2.1599 H         1 RES1    0.0000
     44 C21       -3.2800   -5.0094   -4.8518 C.3       1 RES1    0.0000
     45 H24       -3.5397   -5.2883   -3.9481 H         1 RES1    0.0000
     46 H25       -3.7312   -5.5762   -5.5119 H         1 RES1    0.0000
     47 H26       -3.5392   -4.0746   -4.9929 H         1 RES1    0.0000
     48 C22       -5.7276   -3.4914   -9.0158 C.3       2 RES2    0.0000
     49 C23       -4.4511   -2.7822   -9.4504 C.3       2 RES2    0.0000
     50 H27       -4.4236   -2.7525  -10.4394 H         2 RES2    0.0000
     51 H28       -3.6721   -3.3126   -9.1444 H         2 RES2    0.0000
     52 C24       -4.3171   -1.3562   -8.9113 C.3       2 RES2    0.0000
     53 H29       -3.4399   -0.9853   -9.1818 H         2 RES2    0.0000
     54 H30       -5.0251   -0.7887   -9.3080 H         2 RES2    0.0000
     55 C25       -4.4325   -1.3184   -7.3938 C.3       2 RES2    0.0000
     56 H31       -4.3735   -0.3784   -7.0897 H         2 RES2    0.0000
     57 H32       -3.6694   -1.8125   -7.0009 H         2 RES2    0.0000
     58 C26       -5.7432   -1.9290   -6.8767 C.3       2 RES2    0.0000
     59 C27       -5.7332   -2.0380   -5.3485 C.ar      2 RES2    0.0000
     60 C28       -5.2725   -0.9215   -4.5951 C.ar      2 RES2    0.0000
     61 H33       -4.9814   -0.1447   -5.0584 H         2 RES2    0.0000
     62 C29       -5.2303   -0.9259   -3.2358 C.ar      2 RES2    0.0000
     63 H34       -4.9226   -0.1558   -2.7723 H         2 RES2    0.0000
     64 C30       -5.6416   -2.0647   -2.5063 C.ar      2 RES2    0.0000
     65 C31       -5.5927   -2.1085   -1.0968 C.ar      2 RES2    0.0000
     66 H35       -5.2777   -1.3547   -0.6101 H         2 RES2    0.0000
     67 C32       -5.9944   -3.2243   -0.4296 C.ar      2 RES2    0.0000
     68 H36       -5.9799   -3.2370    0.5213 H         2 RES2    0.0000
     69 C33       -6.4254   -4.3483   -1.1300 C.ar      2 RES2    0.0000
     70 H37       -6.6754   -5.1318   -0.6545 H         2 RES2    0.0000
     71 C34       -6.4939   -4.3342   -2.4962 C.ar      2 RES2    0.0000
     72 H38       -6.8035   -5.1058   -2.9570 H         2 RES2    0.0000
     73 C35       -6.1118   -3.1902   -3.2361 C.ar      2 RES2    0.0000
     74 C36       -6.1945   -3.1383   -4.6687 C.ar      2 RES2    0.0000
     75 C37       -6.7902   -4.3253   -5.3777 C.3       2 RES2    0.0000
     76 H39       -7.6473   -4.5620   -4.9439 H         2 RES2    0.0000
     77 H40       -6.1795   -5.0977   -5.2805 H         2 RES2    0.0000
     78 C38       -7.0414   -4.0738   -6.8672 C.3       2 RES2    0.0000
     79 H41       -7.1841   -4.9367   -7.3305 H         2 RES2    0.0000
     80 H42       -7.8569   -3.5241   -6.9798 H         2 RES2    0.0000
     81 C39       -5.8545   -3.3564   -7.4801 C.3       2 RES2    0.0000
     82 H43       -5.0567   -3.8416   -7.1201 H         2 RES2    0.0000
     83 C40       -6.9383   -2.9624   -9.7884 C.3       2 RES2    0.0000
     84 H44       -6.9272   -3.3215  -10.7012 H         2 RES2    0.0000
     85 H45       -6.9011   -1.9839   -9.8223 H         2 RES2    0.0000
     86 H46       -7.7611   -3.2429   -9.3384 H         2 RES2    0.0000
     87 C41       -5.5724   -4.9738   -9.3786 C.3       2 RES2    0.0000
     88 H47       -4.8897   -5.3811   -8.8054 H         2 RES2    0.0000
     89 H48       -5.2985   -5.0539  -10.3178 H         2 RES2    0.0000
     90 H49       -6.4276   -5.4345   -9.2472 H         2 RES2    0.0000
     91 C42       -6.9014   -0.9771   -7.2501 C.3       2 RES2    0.0000
     92 H50       -6.8487   -0.7575   -8.2047 H         2 RES2    0.0000
     93 H51       -6.8325   -0.1551   -6.7204 H         2 RES2    0.0000
     94 H52       -7.7569   -1.4156   -7.0616 H         2 RES2    0.0000
@<TRIPOS>BOND
     1    1    2 1
     2    2    3 1
     3    4    2 1
     4    5    2 1
     5    6    5 1
     6    7    5 1
     7    8    5 1
     8    9    8 1
     9   10    8 1
    10   11    8 1
    11   12   11 1
    12   13   12 ar
    13   14   13 1
    14   15   13 ar
    15   16   15 1
    16   17   15 ar
    17   18   17 ar
    18   19   18 1
    19   20   18 ar
    20   21   20 1
    21   22   20 ar
    22   23   22 1
    23   24   22 ar
    24   25   24 1
    25   26   17 ar
    26   27   12 ar
    27   28   27 1
    28   29   28 1
    29   30   28 1
    30   31   28 1
    31   32   31 1
    32   33   31 1
    33   34    1 1
    34   35   34 1
    35   36    1 1
    36   37   36 1
    37   38   36 1
    38   39   36 1
    39   40    1 1
    40   41   40 1
    41   42   40 1
    42   43   40 1
    43   44   11 1
    44   45   44 1
    45   46   44 1
    46   47   44 1
    47   48   49 1
    48   49   50 1
    49   51   49 1
    50   52   49 1
    51   53   52 1
    52   54   52 1
    53   55   52 1
    54   56   55 1
    55   57   55 1
    56   58   55 1
    57   59   58 1
    58   60   59 ar
    59   61   60 1
    60   62   60 ar
    61   63   62 1
    62   64   62 ar
    63   65   64 ar
    64   66   65 1
    65   67   65 ar
    66   68   67 1
    67   69   67 ar
    68   70   69 1
    69   71   69 ar
    70   72   71 1
    71   73   64 ar
    72   74   59 ar
    73   75   74 1
    74   76   75 1
    75   77   75 1
    76   78   75 1
    77   79   78 1
    78   80   78 1
    79   81   48 1
    80   82   81 1
    81   83   48 1
    82   84   83 1
    83   85   83 1
    84   86   83 1
    85   87   48 1
    86   88   87 1
    87   89   87 1
    88   90   87 1
    89   91   58 1
    90   92   91 1
    91   93   91 1
    92   94   91 1
    93   11   34 1
    94   24   26 ar
    95   26   27 ar
    96   31   34 1
    97   58   81 1
    98   71   73 ar
    99   73   74 ar
   100   78   81 1
@<TRIPOS>SUBSTRUCTURE
     1 RES1 1
     2 RES2 48

@<TRIPOS>CRYSIN
  18.3125    7.4191   24.0230  90.0000 103.3360  90.0000   5 1

