# MOL2 file generated by ConQuest
# Please check atom types

@<TRIPOS>MOLECULE
KUZNUP
    72    74     1
SMALL
NO_CHARGES
****
Generated from CSD

@<TRIPOS>ATOM
      1 C1         4.6304    5.1450    3.7652 C.ar      1 RES1    0.0000
      2 C2         4.7436    3.7944    3.5625 C.ar      1 RES1    0.0000
      3 H1         4.2229    3.3871    2.8945 H         1 RES1    0.0000
      4 C3         5.6285    2.9926    4.3360 C.ar      1 RES1    0.0000
      5 H2         5.6829    2.0712    4.1542 H         1 RES1    0.0000
      6 C4         6.3933    3.5129    5.3236 C.ar      1 RES1    0.0000
      7 C5         6.3342    4.9259    5.5661 C.ar      1 RES1    0.0000
      8 C6         5.4505    5.7448    4.7819 C.ar      1 RES1    0.0000
      9 C7         5.4191    7.1143    5.0424 C.ar      1 RES1    0.0000
     10 H3         4.8349    7.6490    4.5363 H         1 RES1    0.0000
     11 C8         3.7038    5.9733    2.9200 C.3       1 RES1    0.0000
     12 H4         3.2590    6.6329    3.4919 H         1 RES1    0.0000
     13 H5         3.0117    5.3897    2.5448 H         1 RES1    0.0000
     14 C9         4.4045    6.7067    1.7749 C.3       1 RES1    0.0000
     15 H6         5.1063    7.2779    2.1512 H         1 RES1    0.0000
     16 H7         4.8393    6.0444    1.1983 H         1 RES1    0.0000
     17 C10        3.4975    7.5548    0.9332 C.3       1 RES1    0.0000
     18 H8         3.0822    8.2347    1.5028 H         1 RES1    0.0000
     19 H9         2.7818    6.9899    0.5731 H         1 RES1    0.0000
     20 C11        4.1982    8.2444   -0.2165 C.3       1 RES1    0.0000
     21 H10        4.9102    8.8054    0.1285 H         1 RES1    0.0000
     22 H11        3.5616    8.7917   -0.7016 H         1 RES1    0.0000
     23 H12        4.5723    7.5775   -0.8139 H         1 RES1    0.0000
     24 C12        7.2314    2.6198    6.1931 C.3       1 RES1    0.0000
     25 H13        8.0947    3.0533    6.3598 H         1 RES1    0.0000
     26 H14        7.4036    1.7801    5.7184 H         1 RES1    0.0000
     27 C13        6.5627    2.3081    7.5338 C.3       1 RES1    0.0000
     28 H15        6.3001    3.1526    7.9564 H         1 RES1    0.0000
     29 H16        5.7455    1.7955    7.3636 H         1 RES1    0.0000
     30 C14        7.4190    1.5399    8.4925 C.3       1 RES1    0.0000
     31 H17        8.2191    2.0685    8.6951 H         1 RES1    0.0000
     32 H18        7.7118    0.7103    8.0594 H         1 RES1    0.0000
     33 C15        6.7205    1.1940    9.7915 C.3       1 RES1    0.0000
     34 H19        6.4152    2.0073   10.2211 H         1 RES1    0.0000
     35 H20        7.3394    0.7306   10.3774 H         1 RES1    0.0000
     36 H21        5.9598    0.6205    9.6063 H         1 RES1    0.0000
     37 C1A        7.9106    7.5130    7.8128 C.ar      1 RES1    0.0000
     38 C2A        7.7973    8.8636    8.0154 C.ar      1 RES1    0.0000
     39 H1A        8.3180    9.2709    8.6835 H         1 RES1    0.0000
     40 C3A        6.9125    9.6654    7.2420 C.ar      1 RES1    0.0000
     41 H2A        6.8581   10.5867    7.4238 H         1 RES1    0.0000
     42 C4A        6.1476    9.1450    6.2544 C.ar      1 RES1    0.0000
     43 C5A        6.2067    7.7321    6.0119 C.ar      1 RES1    0.0000
     44 C6A        7.0904    6.9132    6.7961 C.ar      1 RES1    0.0000
     45 C7A        7.1218    5.5437    6.5355 C.ar      1 RES1    0.0000
     46 H3A        7.7060    5.0089    7.0417 H         1 RES1    0.0000
     47 C8A        8.8371    6.6846    8.6580 C.3       1 RES1    0.0000
     48 H4A        9.2819    6.0251    8.0861 H         1 RES1    0.0000
     49 H5A        9.5292    7.2683    9.0332 H         1 RES1    0.0000
     50 C9A        8.1364    5.9512    9.8031 C.3       1 RES1    0.0000
     51 H6A        7.4346    5.3800    9.4268 H         1 RES1    0.0000
     52 H7A        7.7017    6.6136   10.3797 H         1 RES1    0.0000
     53 C10A       9.0434    5.1031   10.6448 C.3       1 RES1    0.0000
     54 H8A        9.4587    4.4233   10.0752 H         1 RES1    0.0000
     55 H9A        9.7592    5.6680   11.0049 H         1 RES1    0.0000
     56 C11A       8.3427    4.4136   11.7945 C.3       1 RES1    0.0000
     57 H10A       7.6308    3.8526   11.4495 H         1 RES1    0.0000
     58 H11A       8.9794    3.8663   12.2796 H         1 RES1    0.0000
     59 H12A       7.9686    5.0804   12.3919 H         1 RES1    0.0000
     60 C12A       5.3096   10.0381    5.3849 C.3       1 RES1    0.0000
     61 H13A       4.4462    9.6047    5.2182 H         1 RES1    0.0000
     62 H14A       5.1373   10.8779    5.8596 H         1 RES1    0.0000
     63 C13A       5.9783   10.3498    4.0442 C.3       1 RES1    0.0000
     64 H15A       6.2409    9.5054    3.6216 H         1 RES1    0.0000
     65 H16A       6.7954   10.8624    4.2144 H         1 RES1    0.0000
     66 C14A       5.1219   11.1181    3.0855 C.3       1 RES1    0.0000
     67 H17A       4.3218   10.5895    2.8829 H         1 RES1    0.0000
     68 H18A       4.8291   11.9477    3.5186 H         1 RES1    0.0000
     69 C15A       5.8205   11.4639    1.7865 C.3       1 RES1    0.0000
     70 H19A       6.1257   10.6507    1.3569 H         1 RES1    0.0000
     71 H20A       5.2015   11.9274    1.2006 H         1 RES1    0.0000
     72 H21A       6.5811   12.0375    1.9717 H         1 RES1    0.0000
@<TRIPOS>BOND
     1    1    2 ar
     2    2    3 1
     3    4    2 ar
     4    5    4 1
     5    6    4 ar
     6    7    6 ar
     7    8    1 ar
     8    9    8 ar
     9   10    9 1
    10   11    1 1
    11   12   11 1
    12   13   11 1
    13   14   11 1
    14   15   14 1
    15   16   14 1
    16   17   14 1
    17   18   17 1
    18   19   17 1
    19   20   17 1
    20   21   20 1
    21   22   20 1
    22   23   20 1
    23   24    6 1
    24   25   24 1
    25   26   24 1
    26   27   24 1
    27   28   27 1
    28   29   27 1
    29   30   27 1
    30   31   30 1
    31   32   30 1
    32   33   30 1
    33   34   33 1
    34   35   33 1
    35   36   33 1
    36   37   38 ar
    37   38   39 1
    38   40   38 ar
    39   41   40 1
    40   42   40 ar
    41   43    9 ar
    42   44   37 ar
    43   45    7 ar
    44   46   45 1
    45   47   37 1
    46   48   47 1
    47   49   47 1
    48   50   47 1
    49   51   50 1
    50   52   50 1
    51   53   50 1
    52   54   53 1
    53   55   53 1
    54   56   53 1
    55   57   56 1
    56   58   56 1
    57   59   56 1
    58   60   42 1
    59   61   60 1
    60   62   60 1
    61   63   60 1
    62   64   63 1
    63   65   63 1
    64   66   63 1
    65   67   66 1
    66   68   66 1
    67   69   66 1
    68   70   69 1
    69   71   69 1
    70   72   69 1
    71    7    8 ar
    72   42   43 ar
    73   43   44 ar
    74   44   45 ar
@<TRIPOS>SUBSTRUCTURE
     1 RES1 1

@<TRIPOS>CRYSIN
   4.7930   11.4970   11.7530  83.0520  82.2050  83.2020   2 1

