# MOL2 file generated by ConQuest
# Please check atom types

@<TRIPOS>MOLECULE
LAHGUW
   124   132     2
SMALL
NO_CHARGES
****
Generated from CSD

@<TRIPOS>ATOM
      1 C1         3.9240    3.5349    1.8766 C.ar      1 RES1    0.0000
      2 C2         5.2713    3.6446    2.1128 C.ar      1 RES1    0.0000
      3 C3         5.7696    4.6971    2.8162 C.ar      1 RES1    0.0000
      4 C4         4.9062    5.6508    3.3209 C.ar      1 RES1    0.0000
      5 C5         3.5460    5.5411    3.0820 C.ar      1 RES1    0.0000
      6 C6         3.0279    4.4898    2.3491 C.ar      1 RES1    0.0000
      7 C7         1.5865    4.3696    2.0377 C.2       1 RES1    0.0000
      8 C8         0.6834    5.3305    2.1182 C.2       1 RES1    0.0000
      9 C9        -0.7746    5.2506    1.7504 C.3       1 RES1    0.0000
     10 C10       -1.1958    3.9953    1.0980 C.2       1 RES1    0.0000
     11 C11       -2.2789    3.2742    1.3531 C.2       1 RES1    0.0000
     12 C12       -3.3409    3.5493    2.3867 C.3       1 RES1    0.0000
     13 C13       -4.7037    3.7439    1.7182 C.ar      1 RES1    0.0000
     14 C14       -5.1390    4.6166    0.7624 C.ar      1 RES1    0.0000
     15 C15       -6.4903    4.5251    0.3356 C.ar      1 RES1    0.0000
     16 C16       -7.3564    3.5961    0.8349 C.ar      1 RES1    0.0000
     17 C17       -6.9194    2.6716    1.8041 C.ar      1 RES1    0.0000
     18 C18       -7.6633    1.6390    2.4216 C.ar      1 RES1    0.0000
     19 C19       -7.0876    0.8336    3.3424 C.ar      1 RES1    0.0000
     20 C20       -5.7434    0.9499    3.7451 C.ar      1 RES1    0.0000
     21 C21       -4.9874    1.9516    3.1652 C.ar      1 RES1    0.0000
     22 C22       -5.5894    2.7802    2.2149 C.ar      1 RES1    0.0000
     23 C23       -3.6008    2.3838    3.3505 C.2       1 RES1    0.0000
     24 C24       -2.7073    1.8865    4.2230 C.2       1 RES1    0.0000
     25 C25       -1.3492    2.3204    4.4243 C.2       1 RES1    0.0000
     26 C26       -0.4841    1.7592    5.2566 C.2       1 RES1    0.0000
     27 C27        0.8956    2.1418    5.4150 C.2       1 RES1    0.0000
     28 C28        1.7617    1.4918    6.1828 C.2       1 RES1    0.0000
     29 C29        3.1901    1.7344    6.3788 C.ar      1 RES1    0.0000
     30 C30        3.8637    2.8342    5.8499 C.ar      1 RES1    0.0000
     31 C31        5.2155    2.9831    6.0486 C.ar      1 RES1    0.0000
     32 C32        5.9265    2.0536    6.7788 C.ar      1 RES1    0.0000
     33 C33        5.2855    0.9752    7.3130 C.ar      1 RES1    0.0000
     34 C34        3.9268    0.8236    7.1171 C.ar      1 RES1    0.0000
     35 H1         3.5916    2.7890    1.3719 H         1 RES1    0.0000
     36 H2         5.8786    2.9792    1.7799 H         1 RES1    0.0000
     37 H3         6.7116    4.7743    2.9692 H         1 RES1    0.0000
     38 H4         5.2462    6.3995    3.8176 H         1 RES1    0.0000
     39 H5         2.9439    6.1889    3.4552 H         1 RES1    0.0000
     40 H6         1.2726    3.5118    1.7424 H         1 RES1    0.0000
     41 H7         1.0149    6.1635    2.4618 H         1 RES1    0.0000
     42 H8        -0.9723    5.9706    1.1464 H         1 RES1    0.0000
     43 H9        -1.3092    5.3730    2.5370 H         1 RES1    0.0000
     44 H10       -0.5898    3.6524    0.4376 H         1 RES1    0.0000
     45 H11       -2.4134    2.4803    0.8322 H         1 RES1    0.0000
     46 H12       -3.1036    4.3376    2.8807 H         1 RES1    0.0000
     47 H13       -4.5421    5.2804    0.4054 H         1 RES1    0.0000
     48 H14       -6.7998    5.1365   -0.3356 H         1 RES1    0.0000
     49 H15       -8.2631    3.5619    0.5235 H         1 RES1    0.0000
     50 H16       -8.5841    1.5144    2.1746 H         1 RES1    0.0000
     51 H17       -7.6235    0.1455    3.7451 H         1 RES1    0.0000
     52 H18       -5.3613    0.3550    4.3921 H         1 RES1    0.0000
     53 H19       -3.0024    1.1638    4.7814 H         1 RES1    0.0000
     54 H20       -1.0535    3.0790    3.9169 H         1 RES1    0.0000
     55 H21       -0.8039    1.0348    5.7989 H         1 RES1    0.0000
     56 H22        1.2214    2.9054    4.9344 H         1 RES1    0.0000
     57 H23        1.3855    0.7542    6.6687 H         1 RES1    0.0000
     58 H24        3.3771    3.4776    5.3291 H         1 RES1    0.0000
     59 H25        5.6731    3.7455    5.6888 H         1 RES1    0.0000
     60 H26        6.8710    2.1589    6.9103 H         1 RES1    0.0000
     61 H27        5.7754    0.3324    7.8339 H         1 RES1    0.0000
     62 H28        3.4755    0.0568    7.4795 H         1 RES1    0.0000
     63 C35       19.2980    0.7602   13.2113 C.ar      2 RES2    0.0000
     64 C36       20.6454    0.8429   13.5308 C.ar      2 RES2    0.0000
     65 C37       21.4239    1.8750   13.0421 C.ar      2 RES2    0.0000
     66 C38       20.8282    2.8205   12.2636 C.ar      2 RES2    0.0000
     67 C39       19.4894    2.7736   11.9548 C.ar      2 RES2    0.0000
     68 C40       18.6926    1.7327   12.4300 C.ar      2 RES2    0.0000
     69 C41       17.2338    1.6324   12.1535 C.2       2 RES2    0.0000
     70 C42       16.4408    2.5856   11.7240 C.2       2 RES2    0.0000
     71 C43       14.9695    2.5250   11.4689 C.3       2 RES2    0.0000
     72 C44       14.3362    1.2492   11.8528 C.2       2 RES2    0.0000
     73 C45       13.4747    0.5392   11.1307 C.2       2 RES2    0.0000
     74 C46       12.9229    0.8727    9.7829 C.3       2 RES2    0.0000
     75 C47       11.4141    1.0728    9.8742 C.ar      2 RES2    0.0000
     76 C48       10.6544    1.9345   10.6259 C.ar      2 RES2    0.0000
     77 C49        9.2590    1.8529   10.5159 C.ar      2 RES2    0.0000
     78 C50        8.6263    0.9405    9.7131 C.ar      2 RES2    0.0000
     79 C51        9.3776    0.0099    8.9480 C.ar      2 RES2    0.0000
     80 C52        8.9041   -1.0210    8.1185 C.ar      2 RES2    0.0000
     81 C53        9.7873   -1.8540    7.4741 C.ar      2 RES2    0.0000
     82 C54       11.1802   -1.7311    7.6057 C.ar      2 RES2    0.0000
     83 C55       11.6747   -0.7211    8.3977 C.ar      2 RES2    0.0000
     84 C56       10.7711    0.1213    9.0742 C.ar      2 RES2    0.0000
     85 C57       13.0400   -0.2938    8.7628 C.2       2 RES2    0.0000
     86 C58       14.1876   -0.8137    8.2983 C.2       2 RES2    0.0000
     87 C59       15.5091   -0.4140    8.6688 C.2       2 RES2    0.0000
     88 C60       16.6389   -1.0194    8.2715 C.2       2 RES2    0.0000
     89 C61       17.9538   -0.6748    8.6983 C.2       2 RES2    0.0000
     90 C62       19.0563   -1.3534    8.3628 C.2       2 RES2    0.0000
     91 C63       20.4494   -1.1020    8.7735 C.ar      2 RES2    0.0000
     92 C64       20.8275   -0.0017    9.5386 C.ar      2 RES2    0.0000
     93 C65       22.1591    0.1885    9.8796 C.ar      2 RES2    0.0000
     94 C66       23.1274   -0.6990    9.4715 C.ar      2 RES2    0.0000
     95 C67       22.7610   -1.7702    8.7198 C.ar      2 RES2    0.0000
     96 C68       21.4406   -1.9737    8.3681 C.ar      2 RES2    0.0000
     97 H29       18.7690    0.0248   13.5281 H         2 RES2    0.0000
     98 H30       21.0431    0.1599   14.0731 H         2 RES2    0.0000
     99 H31       22.3572    1.9351   13.2677 H         2 RES2    0.0000
    100 H32       21.3613    3.5360   11.9119 H         2 RES2    0.0000
    101 H33       19.0923    3.4533   11.4072 H         2 RES2    0.0000
    102 H34       16.8205    0.7795   12.3065 H         2 RES2    0.0000
    103 H35       16.8881    3.4136   11.5360 H         2 RES2    0.0000
    104 H36       14.7937    2.6744   10.5373 H         2 RES2    0.0000
    105 H37       14.5488    3.2301   11.9656 H         2 RES2    0.0000
    106 H38       14.6012    0.8975   12.7039 H         2 RES2    0.0000
    107 H39       13.1617   -0.2872   11.5038 H         2 RES2    0.0000
    108 H40       13.3518    1.6616    9.4420 H         2 RES2    0.0000
    109 H41       11.0779    2.5718   11.2031 H         2 RES2    0.0000
    110 H42        8.7205    2.4616   11.0260 H         2 RES2    0.0000
    111 H43        7.6680    0.9179    9.6702 H         2 RES2    0.0000
    112 H44        7.9598   -1.1550    8.0137 H         2 RES2    0.0000
    113 H45        9.4353   -2.5481    6.9103 H         2 RES2    0.0000
    114 H46       11.7775   -2.3397    7.1600 H         2 RES2    0.0000
    115 H47       14.1237   -1.5001    7.6298 H         2 RES2    0.0000
    116 H48       15.5979    0.3324    9.2675 H         2 RES2    0.0000
    117 H49       16.5547   -1.7570    7.6621 H         2 RES2    0.0000
    118 H50       18.0615    0.1053    9.2487 H         2 RES2    0.0000
    119 H51       18.9088   -2.1038    7.7829 H         2 RES2    0.0000
    120 H52       20.1579    0.6197    9.8366 H         2 RES2    0.0000
    121 H53       22.4129    0.9515   10.4031 H         2 RES2    0.0000
    122 H54       24.0462   -0.5634    9.7078 H         2 RES2    0.0000
    123 H55       23.4330   -2.3982    8.4299 H         2 RES2    0.0000
    124 H56       21.1984   -2.7317    7.8312 H         2 RES2    0.0000
@<TRIPOS>BOND
     1    1    2 ar
     2    2    3 ar
     3    3    4 ar
     4    4    5 ar
     5    5    6 ar
     6    6    1 ar
     7    7    6 1
     8    8    7 2
     9    9    8 1
    10   10    9 1
    11   11   10 2
    12   12   11 1
    13   13   12 1
    14   14   13 ar
    15   15   14 ar
    16   16   15 ar
    17   17   16 ar
    18   18   17 ar
    19   19   18 ar
    20   20   19 ar
    21   21   20 ar
    22   22   13 ar
    23   23   12 1
    24   24   23 2
    25   25   24 1
    26   26   25 2
    27   27   26 1
    28   28   27 2
    29   29   28 1
    30   30   29 ar
    31   31   30 ar
    32   32   31 ar
    33   33   32 ar
    34   34   29 ar
    35   35    1 1
    36   36    2 1
    37   37    3 1
    38   38    4 1
    39   39    5 1
    40   40    7 1
    41   41    8 1
    42   42    9 1
    43   43    9 1
    44   44   10 1
    45   45   11 1
    46   46   12 1
    47   47   14 1
    48   48   15 1
    49   49   16 1
    50   50   18 1
    51   51   19 1
    52   52   20 1
    53   53   24 1
    54   54   25 1
    55   55   26 1
    56   56   27 1
    57   57   28 1
    58   58   30 1
    59   59   31 1
    60   60   32 1
    61   61   33 1
    62   62   34 1
    63   63   64 ar
    64   64   65 ar
    65   65   66 ar
    66   66   67 ar
    67   67   68 ar
    68   68   63 ar
    69   69   68 1
    70   70   69 2
    71   71   70 1
    72   72   71 1
    73   73   72 2
    74   74   73 1
    75   75   74 1
    76   76   75 ar
    77   77   76 ar
    78   78   77 ar
    79   79   78 ar
    80   80   79 ar
    81   81   80 ar
    82   82   81 ar
    83   83   82 ar
    84   84   75 ar
    85   85   74 1
    86   86   85 2
    87   87   86 1
    88   88   87 2
    89   89   88 1
    90   90   89 2
    91   91   90 1
    92   92   91 ar
    93   93   92 ar
    94   94   93 ar
    95   95   94 ar
    96   96   91 ar
    97   97   63 1
    98   98   64 1
    99   99   65 1
   100  100   66 1
   101  101   67 1
   102  102   69 1
   103  103   70 1
   104  104   71 1
   105  105   71 1
   106  106   72 1
   107  107   73 1
   108  108   74 1
   109  109   76 1
   110  110   77 1
   111  111   78 1
   112  112   80 1
   113  113   81 1
   114  114   82 1
   115  115   86 1
   116  116   87 1
   117  117   88 1
   118  118   89 1
   119  119   90 1
   120  120   92 1
   121  121   93 1
   122  122   94 1
   123  123   95 1
   124  124   96 1
   125   17   22 ar
   126   21   22 ar
   127   21   23 1
   128   33   34 ar
   129   79   84 ar
   130   83   84 ar
   131   83   85 1
   132   95   96 ar
@<TRIPOS>SUBSTRUCTURE
     1 RES1 1
     2 RES2 63

@<TRIPOS>CRYSIN
  33.2170    5.5130   27.0330  90.0000  96.7300  90.0000  14 1

