# MOL2 file generated by ConQuest
# Please check atom types

@<TRIPOS>MOLECULE
LAQXOR
    68    78     2
SMALL
NO_CHARGES
****
Generated from CSD

@<TRIPOS>ATOM
      1 C1         3.8663    7.6188    1.0982 C.ar      1 RES1    0.0000
      2 C2         4.2631    8.6724    2.0088 C.ar      1 RES1    0.0000
      3 C3         5.6453    9.0174    2.0620 C.ar      1 RES1    0.0000
      4 H1         5.9298    9.6895    2.6700 H         1 RES1    0.0000
      5 C4         4.8759    7.0337    0.2828 C.ar      1 RES1    0.0000
      6 H2         4.6338    6.3465   -0.3281 H         1 RES1    0.0000
      7 C5         6.5684    8.4145    1.2685 C.ar      1 RES1    0.0000
      8 H3         7.4840    8.6599    1.3333 H         1 RES1    0.0000
      9 C6         6.1647    7.4241    0.3500 C.ar      1 RES1    0.0000
     10 H4         6.8064    7.0284   -0.2281 H         1 RES1    0.0000
     11 C7         1.9399    8.9142    2.7067 C.ar      1 RES1    0.0000
     12 C8         3.2768    9.2752    2.7790 C.ar      1 RES1    0.0000
     13 C9         2.5176    7.2623    1.0792 C.ar      1 RES1    0.0000
     14 C10        1.7027    6.2122    0.3458 C.3       1 RES1    0.0000
     15 H5         2.1337    5.5818   -0.3000 H         1 RES1    0.0000
     16 C11        1.5555    7.8944    1.8596 C.ar      1 RES1    0.0000
     17 C12        0.8080    5.6850    1.5168 C.3       1 RES1    0.0000
     18 H6         1.3020    5.4325    2.3367 H         1 RES1    0.0000
     19 H7         0.1453    4.9968    1.2578 H         1 RES1    0.0000
     20 C13        0.2741    7.1564    1.4948 C.3       1 RES1    0.0000
     21 H8        -0.6042    7.3992    1.9069 H         1 RES1    0.0000
     22 C14        0.4469    7.0480   -0.0575 C.3       1 RES1    0.0000
     23 H9        -0.2632    6.5367   -0.5210 H         1 RES1    0.0000
     24 H10        0.6459    7.9033   -0.5158 H         1 RES1    0.0000
     25 C15        3.2631   10.3884    3.8223 C.3       1 RES1    0.0000
     26 H11        4.1022   10.8614    4.0928 H         1 RES1    0.0000
     27 C16        1.9898   11.1761    3.3682 C.3       1 RES1    0.0000
     28 H12        1.7455   11.9407    3.9472 H         1 RES1    0.0000
     29 H13        1.9726   11.4206    2.4086 H         1 RES1    0.0000
     30 C17        2.3040    9.7642    4.8776 C.3       1 RES1    0.0000
     31 H14        2.0999   10.3501    5.6488 H         1 RES1    0.0000
     32 H15        2.5429    8.8475    5.1646 H         1 RES1    0.0000
     33 C18        1.2692    9.8336    3.7159 C.3       1 RES1    0.0000
     34 H16        0.2849    9.7962    3.8875 H         1 RES1    0.0000
     35 C19        9.5048    4.2873    2.1873 C.ar      2 RES2    0.0000
     36 C20       10.5054    5.0386    1.5550 C.ar      2 RES2    0.0000
     37 C21       11.2967    3.0701    3.2975 C.ar      2 RES2    0.0000
     38 C22        9.9291    3.2657    3.1190 C.ar      2 RES2    0.0000
     39 C23       12.2741    3.8365    2.6506 C.ar      2 RES2    0.0000
     40 C24       12.5181    5.8761    0.8921 C.3       2 RES2    0.0000
     41 H17       13.5120    5.9722    0.8368 H         2 RES2    0.0000
     42 C25        8.9212    2.5393    3.8398 C.ar      2 RES2    0.0000
     43 H18        9.1848    1.8814    4.4717 H         2 RES2    0.0000
     44 C26        7.6022    2.7749    3.6361 C.ar      2 RES2    0.0000
     45 H19        6.9527    2.2983    4.1401 H         2 RES2    0.0000
     46 C27       11.8690    4.8412    1.7846 C.ar      2 RES2    0.0000
     47 C28       10.4983    6.1775    0.5598 C.3       2 RES2    0.0000
     48 H20        9.6426    6.5536    0.2053 H         2 RES2    0.0000
     49 C29       12.1206    2.0779    4.0831 C.3       2 RES2    0.0000
     50 H21       11.6876    1.3808    4.6541 H         2 RES2    0.0000
     51 C30       11.5891    7.0987    1.1938 C.3       2 RES2    0.0000
     52 H22       11.4590    7.2951    2.1560 H         2 RES2    0.0000
     53 H23       11.7958    7.9166    0.6736 H         2 RES2    0.0000
     54 C31       11.6341    5.7170   -0.3942 C.3       2 RES2    0.0000
     55 H24       11.8461    6.3509   -1.1245 H         2 RES2    0.0000
     56 H25       11.5466    4.7879   -0.7263 H         2 RES2    0.0000
     57 C32       13.2231    3.0265    4.6589 C.3       2 RES2    0.0000
     58 H26       13.9251    2.5740    5.1892 H         2 RES2    0.0000
     59 H27       12.8800    3.8356    5.1138 H         2 RES2    0.0000
     60 C33        8.0978    4.4660    1.9762 C.ar      2 RES2    0.0000
     61 H28        7.7959    5.1053    1.3420 H         2 RES2    0.0000
     62 C34       13.5679    3.2212    3.1433 C.3       2 RES2    0.0000
     63 H29       14.4596    3.5653    2.8472 H         2 RES2    0.0000
     64 C35       13.1821    1.6982    3.0130 C.3       2 RES2    0.0000
     65 H30       12.8109    1.4377    2.1332 H         2 RES2    0.0000
     66 H31       13.8771    1.0652    3.3226 H         2 RES2    0.0000
     67 C36        7.1879    3.7298    2.6735 C.ar      2 RES2    0.0000
     68 H32        6.2604    3.8587    2.5121 H         2 RES2    0.0000
@<TRIPOS>BOND
     1    1    2 ar
     2    2    3 ar
     3    3    4 1
     4    5    1 ar
     5    6    5 1
     6    7    3 ar
     7    8    7 1
     8    9    5 ar
     9   10    9 1
    10   11   12 ar
    11   12    2 ar
    12   13    1 ar
    13   14   13 1
    14   15   14 1
    15   16   11 ar
    16   17   14 1
    17   18   17 1
    18   19   17 1
    19   20   16 1
    20   21   20 1
    21   22   14 1
    22   23   22 1
    23   24   22 1
    24   25   12 1
    25   26   25 1
    26   27   25 1
    27   28   27 1
    28   29   27 1
    29   30   25 1
    30   31   30 1
    31   32   30 1
    32   33   11 1
    33   34   33 1
    34   35   36 ar
    35   36   46 ar
    36   37   38 ar
    37   38   35 ar
    38   39   37 ar
    39   40   41 1
    40   42   38 ar
    41   43   42 1
    42   44   42 ar
    43   45   44 1
    44   46   39 ar
    45   47   36 1
    46   48   47 1
    47   49   37 1
    48   50   49 1
    49   51   40 1
    50   52   51 1
    51   53   51 1
    52   54   40 1
    53   55   54 1
    54   56   54 1
    55   57   49 1
    56   58   57 1
    57   59   57 1
    58   60   35 ar
    59   61   60 1
    60   62   39 1
    61   63   62 1
    62   64   49 1
    63   65   64 1
    64   66   64 1
    65   67   44 ar
    66   68   67 1
    67    7    9 ar
    68   13   16 ar
    69   17   20 1
    70   20   22 1
    71   27   33 1
    72   30   33 1
    73   40   46 1
    74   47   51 1
    75   47   54 1
    76   57   62 1
    77   60   67 ar
    78   62   64 1
@<TRIPOS>SUBSTRUCTURE
     1 RES1 1
     2 RES2 35

@<TRIPOS>CRYSIN
  15.8250    8.8911   17.7660  90.0000  99.0890  90.0000 231 1

