# MOL2 file generated by ConQuest
# Please check atom types

@<TRIPOS>MOLECULE
LAWRAE
   244   264     2
SMALL
NO_CHARGES
****
Generated from CSD

@<TRIPOS>ATOM
      1 C1         2.9233    4.4458    4.0441 C.3       1 RES1    0.0000
      2 C2         4.3161    4.9592    3.7409 C.ar      1 RES1    0.0000
      3 C3         5.0745    5.9280    4.4010 C.ar      1 RES1    0.0000
      4 H1         4.7091    6.4028    5.1391 H         1 RES1    0.0000
      5 C4         6.3552    6.1897    3.9748 C.ar      1 RES1    0.0000
      6 H2         6.8543    6.8718    4.4079 H         1 RES1    0.0000
      7 C5         6.9422    5.4845    2.9248 C.ar      1 RES1    0.0000
      8 H3         7.8380    5.6636    2.6631 H         1 RES1    0.0000
      9 C6         6.1862    4.5068    2.2629 C.ar      1 RES1    0.0000
     10 H4         6.5586    4.0238    1.5334 H         1 RES1    0.0000
     11 C7         4.9159    4.2562    2.6735 C.ar      1 RES1    0.0000
     12 C8         3.8964    3.3061    2.1555 C.ar      1 RES1    0.0000
     13 C9         3.9890    2.4019    1.0899 C.ar      1 RES1    0.0000
     14 H5         4.7926    2.3103    0.5926 H         1 RES1    0.0000
     15 C10        2.8668    1.6418    0.7866 C.ar      1 RES1    0.0000
     16 C11        2.6734    0.6445   -0.2651 C.ar      1 RES1    0.0000
     17 C12        3.4816    0.1162   -1.2302 C.ar      1 RES1    0.0000
     18 H6         4.3867    0.3903   -1.3168 H         1 RES1    0.0000
     19 C13        2.9174   -0.8679   -2.1121 C.ar      1 RES1    0.0000
     20 H7         3.4707   -1.2611   -2.7758 H         1 RES1    0.0000
     21 C14        1.5960   -1.2586   -2.0238 C.ar      1 RES1    0.0000
     22 H8         1.2638   -1.9156   -2.6250 H         1 RES1    0.0000
     23 C15        0.7410   -0.7065   -1.0725 C.ar      1 RES1    0.0000
     24 C16        1.2976    0.2597   -0.1698 C.ar      1 RES1    0.0000
     25 C17        0.6716    0.9309    0.8715 C.ar      1 RES1    0.0000
     26 C18        1.6630    1.8179    1.5057 C.ar      1 RES1    0.0000
     27 C19        1.6072    2.7031    2.5886 C.ar      1 RES1    0.0000
     28 H9         0.8063    2.8022    3.0894 H         1 RES1    0.0000
     29 C20        2.7257    3.4288    2.9126 C.ar      1 RES1    0.0000
     30 C21        1.8729    5.5696    4.0857 C.3       1 RES1    0.0000
     31 H10        1.0468    5.1968    4.4825 H         1 RES1    0.0000
     32 H11        2.2038    6.2692    4.7025 H         1 RES1    0.0000
     33 C22        1.4949    6.2454    2.7723 C.3       1 RES1    0.0000
     34 H12        2.3203    6.4754    2.2750 H         1 RES1    0.0000
     35 H13        0.9745    5.6113    2.2178 H         1 RES1    0.0000
     36 C23        0.6720    7.5101    2.9906 C.3       1 RES1    0.0000
     37 H14       -0.0591    7.2966    3.6230 H         1 RES1    0.0000
     38 H15        1.2522    8.1831    3.4272 H         1 RES1    0.0000
     39 C24        0.0636    8.1386    1.7656 C.3       1 RES1    0.0000
     40 H16       -0.5942    7.5118    1.3723 H         1 RES1    0.0000
     41 H17        0.7755    8.2916    1.0933 H         1 RES1    0.0000
     42 C25       -0.6282    9.4636    2.0706 C.3       1 RES1    0.0000
     43 H18       -0.9637    9.8566    1.2371 H         1 RES1    0.0000
     44 H19        0.0111   10.0776    2.4864 H         1 RES1    0.0000
     45 H20       -1.3776    9.3064    2.6822 H         1 RES1    0.0000
     46 C26        2.9036    3.7438    5.4320 C.3       1 RES1    0.0000
     47 H21        3.0329    4.4363    6.1285 H         1 RES1    0.0000
     48 H22        2.0028    3.3567    5.5671 H         1 RES1    0.0000
     49 C27        3.9201    2.6571    5.6572 C.3       1 RES1    0.0000
     50 H23        4.8206    3.0041    5.4389 H         1 RES1    0.0000
     51 H24        3.7275    1.9005    5.0490 H         1 RES1    0.0000
     52 C28        3.9103    2.1522    7.1161 C.3       1 RES1    0.0000
     53 H25        4.5997    1.4506    7.2166 H         1 RES1    0.0000
     54 H26        4.1519    2.9015    7.7156 H         1 RES1    0.0000
     55 C29        2.5869    1.5971    7.5406 C.3       1 RES1    0.0000
     56 H27        2.2823    0.9324    6.8736 H         1 RES1    0.0000
     57 H28        1.9195    2.3284    7.5684 H         1 RES1    0.0000
     58 C30        2.6590    0.9301    8.9216 C.3       1 RES1    0.0000
     59 H29        1.7758    0.5805    9.1624 H         1 RES1    0.0000
     60 H30        2.9427    1.5897    9.5887 H         1 RES1    0.0000
     61 H31        3.3061    0.1950    8.8939 H         1 RES1    0.0000
     62 C31       -0.6754    1.0161   12.3870 C.3       2 RES2    0.0000
     63 C32       -2.1626    0.7412   12.4216 C.ar      2 RES2    0.0000
     64 C33       -2.8908   -0.1530   13.1909 C.ar      2 RES2    0.0000
     65 H32       -2.4456   -0.6791   13.8459 H         2 RES2    0.0000
     66 C34       -4.2504   -0.2892   13.0211 C.ar      2 RES2    0.0000
     67 H33       -4.7356   -0.8986   13.5652 H         2 RES2    0.0000
     68 C35       -4.9176    0.4599   12.0577 C.ar      2 RES2    0.0000
     69 H34       -5.8554    0.3587   11.9469 H         2 RES2    0.0000
     70 C36       -4.2202    1.3518   11.2607 C.ar      2 RES2    0.0000
     71 H35       -4.6701    1.8495   10.5884 H         2 RES2    0.0000
     72 C37       -2.8577    1.5083   11.4548 C.ar      2 RES2    0.0000
     73 C38       -1.8595    2.4136   10.8033 C.ar      2 RES2    0.0000
     74 C39       -2.0256    3.3694    9.8313 C.ar      2 RES2    0.0000
     75 H36       -2.8792    3.5164    9.4397 H         2 RES2    0.0000
     76 C40       -0.9292    4.1177    9.4327 C.ar      2 RES2    0.0000
     77 C41       -0.7733    5.1979    8.4382 C.ar      2 RES2    0.0000
     78 C42       -1.6244    5.8074    7.5614 C.ar      2 RES2    0.0000
     79 H37       -2.5317    5.5317    7.4991 H         2 RES2    0.0000
     80 C43       -1.1320    6.8660    6.7384 C.ar      2 RES2    0.0000
     81 H38       -1.7234    7.2908    6.1302 H         2 RES2    0.0000
     82 C44        0.1681    7.2836    6.8060 C.ar      2 RES2    0.0000
     83 H39        0.4571    7.9928    6.2429 H         2 RES2    0.0000
     84 C45        1.1021    6.6769    7.7018 C.ar      2 RES2    0.0000
     85 C46        0.5686    5.6299    8.5005 C.ar      2 RES2    0.0000
     86 C47        1.3065    4.8418    9.4518 C.ar      2 RES2    0.0000
     87 C48        0.3557    3.8961   10.0288 C.ar      2 RES2    0.0000
     88 C49        0.5024    2.9004   11.0025 C.ar      2 RES2    0.0000
     89 H40        1.3498    2.7314   11.3976 H         2 RES2    0.0000
     90 C50       -0.6117    2.1661   11.3803 C.ar      2 RES2    0.0000
     91 C51       -0.1205    1.4073   13.7696 C.3       2 RES2    0.0000
     92 H41       -0.2152    0.6315   14.3778 H         2 RES2    0.0000
     93 H42        0.8462    1.5996   13.6795 H         2 RES2    0.0000
     94 C52       -0.8005    2.6201   14.4194 C.3       2 RES2    0.0000
     95 H43       -0.6494    3.4202   13.8580 H         2 RES2    0.0000
     96 H44       -1.7761    2.4608   14.4714 H         2 RES2    0.0000
     97 C53       -0.2561    2.8712   15.8125 C.3       2 RES2    0.0000
     98 H45        0.7175    3.0412   15.7518 H         2 RES2    0.0000
     99 H46       -0.3882    2.0577   16.3617 H         2 RES2    0.0000
    100 C54       -0.9261    4.0545   16.5056 C.3       2 RES2    0.0000
    101 H47       -0.3665    4.3354   17.2731 H         2 RES2    0.0000
    102 H48       -0.9719    4.8140   15.8714 H         2 RES2    0.0000
    103 C55       -2.3078    3.7517   16.9994 C.3       2 RES2    0.0000
    104 H49       -2.6785    4.5435   17.4412 H         2 RES2    0.0000
    105 H50       -2.2713    3.0087   17.6370 H         2 RES2    0.0000
    106 H51       -2.8784    3.5035   16.2422 H         2 RES2    0.0000
    107 C56        0.1116   -0.2236   11.8914 C.3       2 RES2    0.0000
    108 H52        1.0525    0.0439   11.7407 H         2 RES2    0.0000
    109 H53        0.1084   -0.9035   12.6122 H         2 RES2    0.0000
    110 C57       -0.4140   -0.8699   10.6196 C.3       2 RES2    0.0000
    111 H54       -1.3308   -1.2038   10.7877 H         2 RES2    0.0000
    112 H55       -0.4716   -0.1793    9.9127 H         2 RES2    0.0000
    113 C58        0.4310   -2.0128   10.1119 C.3       2 RES2    0.0000
    114 H56        1.3041   -1.6498    9.8191 H         2 RES2    0.0000
    115 H57       -0.0119   -2.3996    9.3149 H         2 RES2    0.0000
    116 C59        0.6878   -3.1424   11.1204 C.3       2 RES2    0.0000
    117 H58        1.2334   -3.8422   10.6820 H         2 RES2    0.0000
    118 H59        1.2143   -2.7801   11.8758 H         2 RES2    0.0000
    119 C60       -0.5713   -3.7762   11.6644 C.3       2 RES2    0.0000
    120 H60       -0.3347   -4.4505   12.3332 H         2 RES2    0.0000
    121 H61       -1.0655   -4.2013   10.9315 H         2 RES2    0.0000
    122 H62       -1.1313   -3.0865   12.0785 H         2 RES2    0.0000
    123 C1A       -2.9233   -4.4458   -4.0441 C.3       1 RES1    0.0000
    124 C2A       -4.3161   -4.9592   -3.7409 C.ar      1 RES1    0.0000
    125 C3A       -5.0745   -5.9280   -4.4010 C.ar      1 RES1    0.0000
    126 H1A       -4.7091   -6.4028   -5.1391 H         1 RES1    0.0000
    127 C4A       -6.3552   -6.1897   -3.9748 C.ar      1 RES1    0.0000
    128 H2A       -6.8543   -6.8718   -4.4079 H         1 RES1    0.0000
    129 C5A       -6.9422   -5.4845   -2.9248 C.ar      1 RES1    0.0000
    130 H3A       -7.8380   -5.6636   -2.6631 H         1 RES1    0.0000
    131 C6A       -6.1862   -4.5068   -2.2629 C.ar      1 RES1    0.0000
    132 H4A       -6.5586   -4.0238   -1.5334 H         1 RES1    0.0000
    133 C7A       -4.9159   -4.2562   -2.6735 C.ar      1 RES1    0.0000
    134 C8A       -3.8964   -3.3061   -2.1555 C.ar      1 RES1    0.0000
    135 C9A       -3.9890   -2.4019   -1.0899 C.ar      1 RES1    0.0000
    136 H5A       -4.7926   -2.3103   -0.5926 H         1 RES1    0.0000
    137 C10A      -2.8668   -1.6418   -0.7866 C.ar      1 RES1    0.0000
    138 C11A      -2.6734   -0.6445    0.2651 C.ar      1 RES1    0.0000
    139 C12A      -3.4816   -0.1162    1.2302 C.ar      1 RES1    0.0000
    140 H6A       -4.3867   -0.3903    1.3168 H         1 RES1    0.0000
    141 C13A      -2.9174    0.8679    2.1121 C.ar      1 RES1    0.0000
    142 H7A       -3.4707    1.2611    2.7758 H         1 RES1    0.0000
    143 C14A      -1.5960    1.2586    2.0238 C.ar      1 RES1    0.0000
    144 H8A       -1.2638    1.9156    2.6250 H         1 RES1    0.0000
    145 C15A      -0.7410    0.7065    1.0725 C.ar      1 RES1    0.0000
    146 C16A      -1.2976   -0.2597    0.1698 C.ar      1 RES1    0.0000
    147 C17A      -0.6716   -0.9309   -0.8715 C.ar      1 RES1    0.0000
    148 C18A      -1.6630   -1.8179   -1.5057 C.ar      1 RES1    0.0000
    149 C19A      -1.6072   -2.7031   -2.5886 C.ar      1 RES1    0.0000
    150 H9A       -0.8063   -2.8022   -3.0894 H         1 RES1    0.0000
    151 C20A      -2.7257   -3.4288   -2.9126 C.ar      1 RES1    0.0000
    152 C21A      -1.8729   -5.5696   -4.0857 C.3       1 RES1    0.0000
    153 H10A      -1.0468   -5.1968   -4.4825 H         1 RES1    0.0000
    154 H11A      -2.2038   -6.2692   -4.7025 H         1 RES1    0.0000
    155 C22A      -1.4949   -6.2454   -2.7723 C.3       1 RES1    0.0000
    156 H12A      -2.3203   -6.4754   -2.2750 H         1 RES1    0.0000
    157 H13A      -0.9745   -5.6113   -2.2178 H         1 RES1    0.0000
    158 C23A      -0.6720   -7.5101   -2.9906 C.3       1 RES1    0.0000
    159 H14A       0.0591   -7.2966   -3.6230 H         1 RES1    0.0000
    160 H15A      -1.2522   -8.1831   -3.4272 H         1 RES1    0.0000
    161 C24A      -0.0636   -8.1386   -1.7656 C.3       1 RES1    0.0000
    162 H16A       0.5942   -7.5118   -1.3723 H         1 RES1    0.0000
    163 H17A      -0.7755   -8.2916   -1.0933 H         1 RES1    0.0000
    164 C25A       0.6282   -9.4636   -2.0706 C.3       1 RES1    0.0000
    165 H18A       0.9637   -9.8566   -1.2371 H         1 RES1    0.0000
    166 H19A      -0.0111  -10.0776   -2.4864 H         1 RES1    0.0000
    167 H20A       1.3776   -9.3064   -2.6822 H         1 RES1    0.0000
    168 C26A      -2.9036   -3.7438   -5.4320 C.3       1 RES1    0.0000
    169 H21A      -3.0329   -4.4363   -6.1285 H         1 RES1    0.0000
    170 H22A      -2.0028   -3.3567   -5.5671 H         1 RES1    0.0000
    171 C27A      -3.9201   -2.6571   -5.6572 C.3       1 RES1    0.0000
    172 H23A      -4.8206   -3.0041   -5.4389 H         1 RES1    0.0000
    173 H24A      -3.7275   -1.9005   -5.0490 H         1 RES1    0.0000
    174 C28A      -3.9103   -2.1522   -7.1161 C.3       1 RES1    0.0000
    175 H25A      -4.5997   -1.4506   -7.2166 H         1 RES1    0.0000
    176 H26A      -4.1519   -2.9015   -7.7156 H         1 RES1    0.0000
    177 C29A      -2.5869   -1.5971   -7.5406 C.3       1 RES1    0.0000
    178 H27A      -2.2823   -0.9324   -6.8736 H         1 RES1    0.0000
    179 H28A      -1.9195   -2.3284   -7.5684 H         1 RES1    0.0000
    180 C30A      -2.6590   -0.9301   -8.9216 C.3       1 RES1    0.0000
    181 H29A      -1.7758   -0.5805   -9.1624 H         1 RES1    0.0000
    182 H30A      -2.9427   -1.5897   -9.5887 H         1 RES1    0.0000
    183 H31A      -3.3061   -0.1950   -8.8939 H         1 RES1    0.0000
    184 C31A       4.4316   10.7911    4.9399 C.3       2 RES2    0.0000
    185 C32A       5.9188   11.0660    4.9052 C.ar      2 RES2    0.0000
    186 C33A       6.6470   11.9601    4.1359 C.ar      2 RES2    0.0000
    187 H32A       6.2017   12.4863    3.4810 H         2 RES2    0.0000
    188 C34A       8.0066   12.0963    4.3057 C.ar      2 RES2    0.0000
    189 H33A       8.4918   12.7057    3.7617 H         2 RES2    0.0000
    190 C35A       8.6737   11.3472    5.2691 C.ar      2 RES2    0.0000
    191 H34A       9.6116   11.4484    5.3800 H         2 RES2    0.0000
    192 C36A       7.9764   10.4554    6.0661 C.ar      2 RES2    0.0000
    193 H35A       8.4263    9.9577    6.7384 H         2 RES2    0.0000
    194 C37A       6.6139   10.2988    5.8721 C.ar      2 RES2    0.0000
    195 C38A       5.6157    9.3936    6.5236 C.ar      2 RES2    0.0000
    196 C39A       5.7818    8.4377    7.4956 C.ar      2 RES2    0.0000
    197 H36A       6.6354    8.2907    7.8872 H         2 RES2    0.0000
    198 C40A       4.6854    7.6894    7.8941 C.ar      2 RES2    0.0000
    199 C41A       4.5295    6.6093    8.8887 C.ar      2 RES2    0.0000
    200 C42A       5.3806    5.9998    9.7654 C.ar      2 RES2    0.0000
    201 H37A       6.2879    6.2755    9.8278 H         2 RES2    0.0000
    202 C43A       4.8882    4.9411   10.5884 C.ar      2 RES2    0.0000
    203 H38A       5.4795    4.5163   11.1966 H         2 RES2    0.0000
    204 C44A       3.5881    4.5235   10.5209 C.ar      2 RES2    0.0000
    205 H39A       3.2991    3.8143   11.0840 H         2 RES2    0.0000
    206 C45A       2.6540    5.1303    9.6251 C.ar      2 RES2    0.0000
    207 C46A       3.1876    6.1773    8.8263 C.ar      2 RES2    0.0000
    208 C47A       2.4496    6.9653    7.8751 C.ar      2 RES2    0.0000
    209 C48A       3.4005    7.9111    7.2981 C.ar      2 RES2    0.0000
    210 C49A       3.2538    8.9067    6.3243 C.ar      2 RES2    0.0000
    211 H40A       2.4064    9.0757    5.9292 H         2 RES2    0.0000
    212 C50A       4.3679    9.6410    5.9466 C.ar      2 RES2    0.0000
    213 C51A       3.8767   10.3998    3.5572 C.3       2 RES2    0.0000
    214 H41A       3.9714   11.1756    2.9490 H         2 RES2    0.0000
    215 H42A       2.9100   10.2075    3.6473 H         2 RES2    0.0000
    216 C52A       4.5567    9.1870    2.9074 C.3       2 RES2    0.0000
    217 H43A       4.4055    8.3870    3.4688 H         2 RES2    0.0000
    218 H44A       5.5322    9.3463    2.8555 H         2 RES2    0.0000
    219 C53A       4.0123    8.9360    1.5144 C.3       2 RES2    0.0000
    220 H45A       3.0387    8.7659    1.5750 H         2 RES2    0.0000
    221 H46A       4.1444    9.7494    0.9651 H         2 RES2    0.0000
    222 C54A       4.6823    7.7526    0.8213 C.3       2 RES2    0.0000
    223 H47A       4.1227    7.4717    0.0537 H         2 RES2    0.0000
    224 H48A       4.7281    6.9932    1.4555 H         2 RES2    0.0000
    225 C55A       6.0640    8.0554    0.3275 C.3       2 RES2    0.0000
    226 H49A       6.4347    7.2636   -0.1144 H         2 RES2    0.0000
    227 H50A       6.0275    8.7984   -0.3102 H         2 RES2    0.0000
    228 H51A       6.6346    8.3036    1.0847 H         2 RES2    0.0000
    229 C56A       3.6446   12.0308    5.4354 C.3       2 RES2    0.0000
    230 H52A       2.7037   11.7632    5.5862 H         2 RES2    0.0000
    231 H53A       3.6477   12.7106    4.7146 H         2 RES2    0.0000
    232 C57A       4.1702   12.6770    6.7072 C.3       2 RES2    0.0000
    233 H54A       5.0869   13.0109    6.5392 H         2 RES2    0.0000
    234 H55A       4.2278   11.9864    7.4142 H         2 RES2    0.0000
    235 C58A       3.3252   13.8199    7.2149 C.3       2 RES2    0.0000
    236 H56A       2.4521   13.4570    7.5077 H         2 RES2    0.0000
    237 H57A       3.7681   14.2067    8.0119 H         2 RES2    0.0000
    238 C59A       3.0683   14.9495    6.2065 C.3       2 RES2    0.0000
    239 H58A       2.5228   15.6493    6.6448 H         2 RES2    0.0000
    240 H59A       2.5419   14.5872    5.4510 H         2 RES2    0.0000
    241 C60A       4.3275   15.5833    5.6624 C.3       2 RES2    0.0000
    242 H60A       4.0909   16.2576    4.9936 H         2 RES2    0.0000
    243 H61A       4.8217   16.0084    6.3953 H         2 RES2    0.0000
    244 H62A       4.8875   14.8937    5.2483 H         2 RES2    0.0000
@<TRIPOS>BOND
     1    1    2 1
     2    2    3 ar
     3    3    4 1
     4    5    3 ar
     5    6    5 1
     6    7    5 ar
     7    8    7 1
     8    9    7 ar
     9   10    9 1
    10   11    2 ar
    11   12   11 1
    12   13   12 ar
    13   14   13 1
    14   15   13 ar
    15   16   15 1
    16   17   16 ar
    17   18   17 1
    18   19   17 ar
    19   20   19 1
    20   21   19 ar
    21   22   21 1
    22   23   21 ar
    23   24   16 ar
    24   25   24 ar
    25   26   15 ar
    26   27   26 ar
    27   28   27 1
    28   29    1 1
    29   30    1 1
    30   31   30 1
    31   32   30 1
    32   33   30 1
    33   34   33 1
    34   35   33 1
    35   36   33 1
    36   37   36 1
    37   38   36 1
    38   39   36 1
    39   40   39 1
    40   41   39 1
    41   42   39 1
    42   43   42 1
    43   44   42 1
    44   45   42 1
    45   46    1 1
    46   47   46 1
    47   48   46 1
    48   49   46 1
    49   50   49 1
    50   51   49 1
    51   52   49 1
    52   53   52 1
    53   54   52 1
    54   55   52 1
    55   56   55 1
    56   57   55 1
    57   58   55 1
    58   59   58 1
    59   60   58 1
    60   61   58 1
    61   62   63 1
    62   63   64 ar
    63   64   65 1
    64   66   64 ar
    65   67   66 1
    66   68   66 ar
    67   69   68 1
    68   70   68 ar
    69   71   70 1
    70   72   63 ar
    71   73   72 1
    72   74   73 ar
    73   75   74 1
    74   76   74 ar
    75   77   76 1
    76   78   77 ar
    77   79   78 1
    78   80   78 ar
    79   81   80 1
    80   82   80 ar
    81   83   82 1
    82   84   82 ar
    83   85   77 ar
    84   86   85 ar
    85   87   76 ar
    86   88   87 ar
    87   89   88 1
    88   90   62 1
    89   91   62 1
    90   92   91 1
    91   93   91 1
    92   94   91 1
    93   95   94 1
    94   96   94 1
    95   97   94 1
    96   98   97 1
    97   99   97 1
    98  100   97 1
    99  101  100 1
   100  102  100 1
   101  103  100 1
   102  104  103 1
   103  105  103 1
   104  106  103 1
   105  107   62 1
   106  108  107 1
   107  109  107 1
   108  110  107 1
   109  111  110 1
   110  112  110 1
   111  113  110 1
   112  114  113 1
   113  115  113 1
   114  116  113 1
   115  117  116 1
   116  118  116 1
   117  119  116 1
   118  120  119 1
   119  121  119 1
   120  122  119 1
   121  123  124 1
   122  124  125 ar
   123  125  126 1
   124  127  125 ar
   125  128  127 1
   126  129  127 ar
   127  130  129 1
   128  131  129 ar
   129  132  131 1
   130  133  124 ar
   131  134  133 1
   132  135  134 ar
   133  136  135 1
   134  137  135 ar
   135  138  137 1
   136  139  138 ar
   137  140  139 1
   138  141  139 ar
   139  142  141 1
   140  143  141 ar
   141  144  143 1
   142  145   25 ar
   143  146  138 ar
   144  147   23 ar
   145  148  137 ar
   146  149  148 ar
   147  150  149 1
   148  151  123 1
   149  152  123 1
   150  153  152 1
   151  154  152 1
   152  155  152 1
   153  156  155 1
   154  157  155 1
   155  158  155 1
   156  159  158 1
   157  160  158 1
   158  161  158 1
   159  162  161 1
   160  163  161 1
   161  164  161 1
   162  165  164 1
   163  166  164 1
   164  167  164 1
   165  168  123 1
   166  169  168 1
   167  170  168 1
   168  171  168 1
   169  172  171 1
   170  173  171 1
   171  174  171 1
   172  175  174 1
   173  176  174 1
   174  177  174 1
   175  178  177 1
   176  179  177 1
   177  180  177 1
   178  181  180 1
   179  182  180 1
   180  183  180 1
   181  184  185 1
   182  185  186 ar
   183  186  187 1
   184  188  186 ar
   185  189  188 1
   186  190  188 ar
   187  191  190 1
   188  192  190 ar
   189  193  192 1
   190  194  185 ar
   191  195  194 1
   192  196  195 ar
   193  197  196 1
   194  198  196 ar
   195  199  198 1
   196  200  199 ar
   197  201  200 1
   198  202  200 ar
   199  203  202 1
   200  204  202 ar
   201  205  204 1
   202  206   86 ar
   203  207  199 ar
   204  208   84 ar
   205  209  198 ar
   206  210  209 ar
   207  211  210 1
   208  212  184 1
   209  213  184 1
   210  214  213 1
   211  215  213 1
   212  216  213 1
   213  217  216 1
   214  218  216 1
   215  219  216 1
   216  220  219 1
   217  221  219 1
   218  222  219 1
   219  223  222 1
   220  224  222 1
   221  225  222 1
   222  226  225 1
   223  227  225 1
   224  228  225 1
   225  229  184 1
   226  230  229 1
   227  231  229 1
   228  232  229 1
   229  233  232 1
   230  234  232 1
   231  235  232 1
   232  236  235 1
   233  237  235 1
   234  238  235 1
   235  239  238 1
   236  240  238 1
   237  241  238 1
   238  242  241 1
   239  243  241 1
   240  244  241 1
   241    9   11 ar
   242   12   29 ar
   243   23   24 ar
   244   25   26 1
   245   27   29 ar
   246   70   72 ar
   247   73   90 ar
   248   84   85 ar
   249   86   87 1
   250   88   90 ar
   251  131  133 ar
   252  134  151 ar
   253  143  145 ar
   254  145  146 ar
   255  146  147 ar
   256  147  148 1
   257  149  151 ar
   258  192  194 ar
   259  195  212 ar
   260  204  206 ar
   261  206  207 ar
   262  207  208 ar
   263  208  209 1
   264  210  212 ar
@<TRIPOS>SUBSTRUCTURE
     1 RES1 1
     2 RES2 62

@<TRIPOS>CRYSIN
   9.8829   13.6290   17.4190  91.4490  94.8750 109.9330   2 1

