# MOL2 file generated by ConQuest
# Please check atom types

@<TRIPOS>MOLECULE
LAYPIL
    44    50     1
SMALL
NO_CHARGES
****
Generated from CSD

@<TRIPOS>ATOM
      1 C1         8.5358   -0.1931    1.0950 C.3       1 RES1    0.0000
      2 C2         9.9728    0.0759    1.3930 C.2       1 RES1    0.0000
      3 C3        10.6585   -0.7825    2.1014 C.2       1 RES1    0.0000
      4 C4        10.0457   -1.9565    2.7139 C.3       1 RES1    0.0000
      5 C5         9.1284   -2.8535    1.8780 C.3       1 RES1    0.0000
      6 C6         8.9272   -2.6244    0.4192 C.3       1 RES1    0.0000
      7 C7         7.5485   -2.3720   -0.0889 C.3       1 RES1    0.0000
      8 C8         8.5223   -1.2553   -0.0011 C.3       1 RES1    0.0000
      9 C9         7.8343   -0.7005    2.3843 C.3       1 RES1    0.0000
     10 C10        8.5544   -1.9159    2.8815 C.3       1 RES1    0.0000
     11 C11        7.6925    0.3689    3.4507 C.ar      1 RES1    0.0000
     12 C12        6.6710    1.3844    3.3278 C.ar      1 RES1    0.0000
     13 C13        5.8003    1.4217    2.2210 C.ar      1 RES1    0.0000
     14 C14        4.8421    2.3780    2.1088 C.ar      1 RES1    0.0000
     15 C15        4.6946    3.3263    3.1081 C.ar      1 RES1    0.0000
     16 C16        5.5147    3.3156    4.1979 C.ar      1 RES1    0.0000
     17 C17        6.5285    2.3680    4.3425 C.ar      1 RES1    0.0000
     18 C18        7.4276    2.3833    5.4893 C.ar      1 RES1    0.0000
     19 C19        7.3872    3.3456    6.5159 C.ar      1 RES1    0.0000
     20 C20        8.2638    3.3176    7.5713 C.ar      1 RES1    0.0000
     21 C21        9.2176    2.3281    7.6484 C.ar      1 RES1    0.0000
     22 C22        9.2920    1.3838    6.6674 C.ar      1 RES1    0.0000
     23 C23        8.4093    1.3871    5.5682 C.ar      1 RES1    0.0000
     24 C24        8.4967    0.3996    4.5385 C.ar      1 RES1    0.0000
     25 H1         8.0927    0.6526    0.7508 H         1 RES1    0.0000
     26 H2        10.3551    0.9057    0.9922 H         1 RES1    0.0000
     27 H3        11.5772   -0.6726    2.2860 H         1 RES1    0.0000
     28 H4        10.5356   -2.4173    3.4301 H         1 RES1    0.0000
     29 H5         9.1351   -3.7358    2.1631 H         1 RES1    0.0000
     30 H6         9.5142   -3.1032   -0.1743 H         1 RES1    0.0000
     31 H7         7.3263   -2.6770   -0.9765 H         1 RES1    0.0000
     32 H8         6.8592   -2.4839    0.6391 H         1 RES1    0.0000
     33 H9         8.8840   -0.9389   -0.8693 H         1 RES1    0.0000
     34 H10        6.9389   -0.9722    2.1050 H         1 RES1    0.0000
     35 H11        8.2451   -2.2708    3.6960 H         1 RES1    0.0000
     36 H12        5.8605    0.7725    1.5285 H         1 RES1    0.0000
     37 H13        4.2722    2.3640    1.3542 H         1 RES1    0.0000
     38 H14        4.0279    4.0222    2.9988 H         1 RES1    0.0000
     39 H15        5.4213    4.0088    4.8647 H         1 RES1    0.0000
     40 H16        6.7498    4.0555    6.4513 H         1 RES1    0.0000
     41 H17        8.2351    4.0421    8.2926 H         1 RES1    0.0000
     42 H18        9.8037    2.3241    8.4021 H         1 RES1    0.0000
     43 H19        9.9651    0.6393    6.7194 H         1 RES1    0.0000
     44 H20        9.1552   -0.2930    4.6770 H         1 RES1    0.0000
@<TRIPOS>BOND
     1    1    2 1
     2    2    3 2
     3    3    4 1
     4    4    5 1
     5    5    6 1
     6    6    7 1
     7    7    8 1
     8    8    1 1
     9    9    1 1
    10   10    4 1
    11   11    9 1
    12   12   11 ar
    13   13   12 ar
    14   14   13 ar
    15   15   14 ar
    16   16   15 ar
    17   17   12 ar
    18   18   17 ar
    19   19   18 ar
    20   20   19 ar
    21   21   20 ar
    22   22   21 ar
    23   23   18 ar
    24   24   11 ar
    25   25    1 1
    26   26    2 1
    27   27    3 1
    28   28    4 1
    29   29    5 1
    30   30    6 1
    31   31    7 1
    32   32    7 1
    33   33    8 1
    34   34    9 1
    35   35   10 1
    36   36   13 1
    37   37   14 1
    38   38   15 1
    39   39   16 1
    40   40   19 1
    41   41   20 1
    42   42   21 1
    43   43   22 1
    44   44   24 1
    45    5   10 1
    46    6    8 1
    47    9   10 1
    48   16   17 ar
    49   22   23 ar
    50   23   24 ar
@<TRIPOS>SUBSTRUCTURE
     1 RES1 1

@<TRIPOS>CRYSIN
  22.1830    6.6592   22.3620  90.0000  92.1700  90.0000  15 1

