# MOL2 file generated by ConQuest
# Please check atom types

@<TRIPOS>MOLECULE
LEFVAT10
    52    55     1
SMALL
NO_CHARGES
****
Generated from CSD

@<TRIPOS>ATOM
      1 C1        -1.2041    4.2261   10.7844 C.3       1 RES1    0.0000
      2 C2        -1.6903    3.6494    9.4526 C.3       1 RES1    0.0000
      3 C3        -1.0364    2.2936    9.0800 C.3       1 RES1    0.0000
      4 C4        -2.0114    1.0957    9.0885 C.3       1 RES1    0.0000
      5 C5        -1.3922   -0.2507    9.6042 C.3       1 RES1    0.0000
      6 C6        -1.9147   -0.6964   10.9842 C.3       1 RES1    0.0000
      7 C7        -1.7262    0.4383   11.9716 C.ar      1 RES1    0.0000
      8 C8        -2.8533    1.2536   12.2522 C.ar      1 RES1    0.0000
      9 C9        -4.1541    0.7122   12.5199 C.ar      1 RES1    0.0000
     10 C10       -5.2001    1.5628   12.6333 C.ar      1 RES1    0.0000
     11 C11       -5.0471    2.9446   12.4987 C.ar      1 RES1    0.0000
     12 C12       -3.8348    3.5296   12.2918 C.ar      1 RES1    0.0000
     13 C13       -2.6846    2.6855   12.1742 C.ar      1 RES1    0.0000
     14 C14       -1.3993    3.1916   11.8611 C.ar      1 RES1    0.0000
     15 C15       -0.2712    2.4014   12.2238 C.ar      1 RES1    0.0000
     16 C16        1.0246    2.9678   12.4930 C.ar      1 RES1    0.0000
     17 C17        2.0543    2.1358   12.7197 C.ar      1 RES1    0.0000
     18 C18        1.9111    0.7438   12.7055 C.ar      1 RES1    0.0000
     19 C19        0.7265    0.1309   12.4519 C.ar      1 RES1    0.0000
     20 C20       -0.4311    0.9713   12.2394 C.ar      1 RES1    0.0000
     21 C21       -4.3602   -0.7661   12.8174 C.3       1 RES1    0.0000
     22 C22       -3.7768    5.0321   12.3513 C.3       1 RES1    0.0000
     23 C23        1.2207    4.4591   12.6559 C.3       1 RES1    0.0000
     24 C24        0.6713   -1.3799   12.5610 C.3       1 RES1    0.0000
     25 H1        -1.6905    5.3023   10.9941 H         1 RES1    0.0000
     26 H2        -0.2583    4.4944   10.6116 H         1 RES1    0.0000
     27 H3        -2.7301    3.5380    9.5206 H         1 RES1    0.0000
     28 H4        -1.5087    4.2716    8.5997 H         1 RES1    0.0000
     29 H5        -0.7163    2.2101    8.2456 H         1 RES1    0.0000
     30 H6        -0.2282    2.1358    9.7332 H         1 RES1    0.0000
     31 H7        -2.2487    0.7800    8.2314 H         1 RES1    0.0000
     32 H8        -2.8219    1.2722    9.8040 H         1 RES1    0.0000
     33 H9        -1.6208   -1.0586    8.8973 H         1 RES1    0.0000
     34 H10       -0.4534   -0.2136    9.6907 H         1 RES1    0.0000
     35 H11       -2.8981   -0.9193   10.8099 H         1 RES1    0.0000
     36 H12       -1.3958   -1.5879   11.1499 H         1 RES1    0.0000
     37 H13       -6.1088    1.1329   12.7792 H         1 RES1    0.0000
     38 H14       -5.7830    3.5194   12.6942 H         1 RES1    0.0000
     39 H15        2.8277    2.5165   12.9209 H         1 RES1    0.0000
     40 H16        2.6359    0.1671   12.8359 H         1 RES1    0.0000
     41 H17       -3.5640   -1.1515   13.1617 H         1 RES1    0.0000
     42 H18       -4.6203   -1.1886   11.9858 H         1 RES1    0.0000
     43 H19       -5.0797   -0.8357   13.4026 H         1 RES1    0.0000
     44 H20       -3.0038    5.3673   12.7509 H         1 RES1    0.0000
     45 H21       -3.8575    5.4230   11.4333 H         1 RES1    0.0000
     46 H22       -4.6102    5.3116   12.8075 H         1 RES1    0.0000
     47 H23        0.3893    5.0052   12.8925 H         1 RES1    0.0000
     48 H24        1.4664    4.8659   11.8725 H         1 RES1    0.0000
     49 H25        1.9552    4.6801   13.4167 H         1 RES1    0.0000
     50 H26        1.6036   -1.8665   13.0625 H         1 RES1    0.0000
     51 H27        0.8581   -1.7179   11.6883 H         1 RES1    0.0000
     52 H28       -0.1003   -1.6808   12.9492 H         1 RES1    0.0000
@<TRIPOS>BOND
     1    1    2 1
     2    2    3 1
     3    3    4 1
     4    4    5 1
     5    5    6 1
     6    6    7 1
     7    7    8 ar
     8    8    9 ar
     9    9   10 ar
    10   10   11 ar
    11   11   12 ar
    12   12   13 ar
    13   13    8 ar
    14   14    1 1
    15   15   14 ar
    16   16   15 ar
    17   17   16 ar
    18   18   17 ar
    19   19   18 ar
    20   20    7 ar
    21   21    9 1
    22   22   12 1
    23   23   16 1
    24   24   19 1
    25   25    1 1
    26   26    1 1
    27   27    2 1
    28   28    2 1
    29   29    3 1
    30   30    3 1
    31   31    4 1
    32   32    4 1
    33   33    5 1
    34   34    5 1
    35   35    6 1
    36   36    6 1
    37   37   10 1
    38   38   11 1
    39   39   17 1
    40   40   18 1
    41   41   21 1
    42   42   21 1
    43   43   21 1
    44   44   22 1
    45   45   22 1
    46   46   22 1
    47   47   23 1
    48   48   23 1
    49   49   23 1
    50   50   24 1
    51   51   24 1
    52   52   24 1
    53   13   14 ar
    54   15   20 ar
    55   19   20 ar
@<TRIPOS>SUBSTRUCTURE
     1 RES1 1

@<TRIPOS>CRYSIN
  13.6200    9.2860   15.6450  90.0000 115.1000  90.0000  14 1

