# MOL2 file generated by ConQuest
# Please check atom types

@<TRIPOS>MOLECULE
LEHYUT
   114   124     2
SMALL
NO_CHARGES
****
Generated from CSD

@<TRIPOS>ATOM
      1 C1         5.1733    4.3309    7.2178 C.3       1 RES1    0.0000
      2 H1         5.8250    4.3707    7.9358 H         1 RES1    0.0000
      3 H2         5.0127    3.4014    6.9900 H         1 RES1    0.0000
      4 C2         5.6411    5.0877    6.0393 C.ar      1 RES1    0.0000
      5 C3         6.8229    4.8191    5.3181 C.ar      1 RES1    0.0000
      6 H3         7.4255    4.1790    5.6203 H         1 RES1    0.0000
      7 C4         7.0665    5.5081    4.1774 C.ar      1 RES1    0.0000
      8 H4         7.8645    5.3652    3.7211 H         1 RES1    0.0000
      9 C5         6.1329    6.4383    3.6661 C.ar      1 RES1    0.0000
     10 C6         6.3485    7.0668    2.4367 C.ar      1 RES1    0.0000
     11 H5         7.1624    6.9457    2.0028 H         1 RES1    0.0000
     12 C7         5.4108    7.8372    1.8670 C.ar      1 RES1    0.0000
     13 H6         5.5817    8.2513    1.0513 H         1 RES1    0.0000
     14 C8         4.1731    8.0216    2.5010 C.ar      1 RES1    0.0000
     15 H7         3.5094    8.5243    2.0876 H         1 RES1    0.0000
     16 C9         3.9412    7.4616    3.7232 C.ar      1 RES1    0.0000
     17 H8         3.1128    7.5894    4.1262 H         1 RES1    0.0000
     18 C10        4.9168    6.6956    4.3956 C.ar      1 RES1    0.0000
     19 C11        4.7495    6.0649    5.6636 C.ar      1 RES1    0.0000
     20 C12        3.7082    6.1359    6.7526 C.ar      1 RES1    0.0000
     21 C13        2.7825    7.1110    7.0415 C.ar      1 RES1    0.0000
     22 C14        1.8930    6.8846    8.1322 C.ar      1 RES1    0.0000
     23 C15        0.8919    7.8327    8.4551 C.ar      1 RES1    0.0000
     24 H9         0.8585    8.6274    7.9735 H         1 RES1    0.0000
     25 C16       -0.0177    7.6310    9.4354 C.ar      1 RES1    0.0000
     26 H10       -0.6904    8.2549    9.5901 H         1 RES1    0.0000
     27 C17        0.0673    6.4846   10.2043 C.ar      1 RES1    0.0000
     28 H11       -0.5461    6.3435   10.8882 H         1 RES1    0.0000
     29 C18        1.0255    5.5696    9.9726 C.ar      1 RES1    0.0000
     30 H12        1.0678    4.8245   10.5265 H         1 RES1    0.0000
     31 C19        1.9818    5.6867    8.9190 C.ar      1 RES1    0.0000
     32 C20        3.0336    4.7341    8.6737 C.ar      1 RES1    0.0000
     33 C21        3.8838    5.0177    7.6214 C.ar      1 RES1    0.0000
     34 C22        2.7425    8.4334    6.3494 C.ar      1 RES1    0.0000
     35 C23        3.8432    9.2563    6.3807 C.ar      1 RES1    0.0000
     36 H13        4.5939    8.9909    6.8619 H         1 RES1    0.0000
     37 C24        3.8622   10.4574    5.7220 C.ar      1 RES1    0.0000
     38 H14        4.6199   10.9963    5.7522 H         1 RES1    0.0000
     39 C25        2.7596   10.8588    5.0211 C.ar      1 RES1    0.0000
     40 H15        2.7744   11.6672    4.5614 H         1 RES1    0.0000
     41 C26        1.6287   10.0758    4.9893 C.ar      1 RES1    0.0000
     42 H16        0.8743   10.3616    4.5256 H         1 RES1    0.0000
     43 C27        1.6246    8.8683    5.6500 C.ar      1 RES1    0.0000
     44 H17        0.8623    8.3363    5.6278 H         1 RES1    0.0000
     45 C28        3.1432    3.4846    9.5825 C.3       1 RES1    0.0000
     46 C29        4.2435    2.4864    9.2038 C.3       1 RES1    0.0000
     47 H18        4.2269    1.7450    9.8143 H         1 RES1    0.0000
     48 H19        5.0990    2.9186    9.2509 H         1 RES1    0.0000
     49 H20        4.0937    2.1682    8.3108 H         1 RES1    0.0000
     50 C30        3.4297    3.9114   11.0371 C.3       1 RES1    0.0000
     51 H21        2.7399    4.5081   11.3385 H         1 RES1    0.0000
     52 H22        4.2783    4.3580   11.0785 H         1 RES1    0.0000
     53 H23        3.4496    3.1338   11.6004 H         1 RES1    0.0000
     54 C31        1.8564    2.6347    9.4846 C.3       1 RES1    0.0000
     55 H24        1.1177    3.1284    9.8501 H         1 RES1    0.0000
     56 H25        1.9727    1.8210    9.9820 H         1 RES1    0.0000
     57 H26        1.6797    2.4267    8.5651 H         1 RES1    0.0000
     58 C32       -1.5014    0.8517    0.4147 C.3       2 RES2    0.0000
     59 H27       -2.1838    1.5407    0.4013 H         2 RES2    0.0000
     60 H28       -1.3766    0.5154   -0.4861 H         2 RES2    0.0000
     61 C33       -1.8748   -0.2436    1.3398 C.ar      2 RES2    0.0000
     62 C34       -3.0213   -1.0307    1.2331 C.ar      2 RES2    0.0000
     63 H29       -3.6396   -0.8680    0.5577 H         2 RES2    0.0000
     64 C35       -3.2298   -2.0325    2.1196 C.ar      2 RES2    0.0000
     65 H30       -4.0188   -2.5226    2.0819 H         2 RES2    0.0000
     66 C36       -2.2605   -2.3403    3.0967 C.ar      2 RES2    0.0000
     67 C37       -2.4644   -3.4123    3.9811 C.ar      2 RES2    0.0000
     68 H31       -3.2765   -3.8643    3.9717 H         2 RES2    0.0000
     69 C38       -1.4960   -3.7974    4.8516 C.ar      2 RES2    0.0000
     70 H32       -1.6585   -4.4828    5.4582 H         2 RES2    0.0000
     71 C39       -0.2634   -3.1627    4.8271 C.ar      2 RES2    0.0000
     72 H33        0.4273   -3.4792    5.3640 H         2 RES2    0.0000
     73 C40       -0.0510   -2.0691    4.0190 C.ar      2 RES2    0.0000
     74 H34        0.7783   -1.6492    4.0339 H         2 RES2    0.0000
     75 C41       -1.0483   -1.5763    3.1779 C.ar      2 RES2    0.0000
     76 C42       -0.9348   -0.4242    2.3259 C.ar      2 RES2    0.0000
     77 C43        0.0591    0.6805    2.2125 C.ar      2 RES2    0.0000
     78 C44        1.0147    1.1481    3.0847 C.ar      2 RES2    0.0000
     79 C45        1.8682    2.2117    2.6398 C.ar      2 RES2    0.0000
     80 C46        2.9234    2.6687    3.4818 C.ar      2 RES2    0.0000
     81 H35        3.0179    2.2983    4.3297 H         2 RES2    0.0000
     82 C47        3.7972    3.6311    3.0786 C.ar      2 RES2    0.0000
     83 H36        4.5017    3.8860    3.6288 H         2 RES2    0.0000
     84 C48        3.6289    4.2242    1.8477 C.ar      2 RES2    0.0000
     85 H37        4.2133    4.8951    1.5770 H         2 RES2    0.0000
     86 C49        2.6267    3.8437    1.0297 C.ar      2 RES2    0.0000
     87 H38        2.5390    4.2694    0.2073 H         2 RES2    0.0000
     88 C50        1.6934    2.8162    1.3677 C.ar      2 RES2    0.0000
     89 C51        0.5924    2.4177    0.5170 C.ar      2 RES2    0.0000
     90 C52       -0.1982    1.3918    0.9758 C.ar      2 RES2    0.0000
     91 C53        1.1308    0.6696    4.4919 C.ar      2 RES2    0.0000
     92 C54        2.2891    0.0481    4.9776 C.ar      2 RES2    0.0000
     93 H39        3.0332   -0.0398    4.4258 H         2 RES2    0.0000
     94 C55        2.3316   -0.4304    6.2609 C.ar      2 RES2    0.0000
     95 H40        3.0992   -0.8535    6.5717 H         2 RES2    0.0000
     96 C56        1.2421   -0.2875    7.0899 C.ar      2 RES2    0.0000
     97 H41        1.2751   -0.6166    7.9584 H         2 RES2    0.0000
     98 C57        0.1082    0.3363    6.6358 C.ar      2 RES2    0.0000
     99 H42       -0.6241    0.4394    7.2010 H         2 RES2    0.0000
    100 C58        0.0540    0.8139    5.3439 C.ar      2 RES2    0.0000
    101 H43       -0.7171    1.2387    5.0419 H         2 RES2    0.0000
    102 C59        0.4061    3.1338   -0.8571 C.3       2 RES2    0.0000
    103 C60        0.1707    4.6528   -0.6613 C.3       2 RES2    0.0000
    104 H44        0.2539    5.1012   -1.5073 H         2 RES2    0.0000
    105 H45        0.8220    5.0018   -0.0490 H         2 RES2    0.0000
    106 H46       -0.7105    4.7974   -0.3090 H         2 RES2    0.0000
    107 C61        1.6283    2.8408   -1.7496 C.3       2 RES2    0.0000
    108 H47        1.7236    1.8915   -1.8596 H         2 RES2    0.0000
    109 H48        2.4190    3.1953   -1.3377 H         2 RES2    0.0000
    110 H49        1.5033    3.2513   -2.6076 H         2 RES2    0.0000
    111 C62       -0.7824    2.6618   -1.7032 C.3       2 RES2    0.0000
    112 H50       -0.8222    3.1754   -2.5134 H         2 RES2    0.0000
    113 H51       -1.5964    2.7848   -1.2077 H         2 RES2    0.0000
    114 H52       -0.6744    1.7342   -1.9180 H         2 RES2    0.0000
@<TRIPOS>BOND
     1    1    2 1
     2    3    1 1
     3    4    1 1
     4    5    4 ar
     5    6    5 1
     6    7    5 ar
     7    8    7 1
     8    9    7 ar
     9   10    9 ar
    10   11   10 1
    11   12   10 ar
    12   13   12 1
    13   14   12 ar
    14   15   14 1
    15   16   14 ar
    16   17   16 1
    17   18    9 ar
    18   19    4 ar
    19   20   19 1
    20   21   20 ar
    21   22   21 ar
    22   23   22 ar
    23   24   23 1
    24   25   23 ar
    25   26   25 1
    26   27   25 ar
    27   28   27 1
    28   29   27 ar
    29   30   29 1
    30   31   22 ar
    31   32   31 ar
    32   33    1 1
    33   34   21 1
    34   35   34 ar
    35   36   35 1
    36   37   35 ar
    37   38   37 1
    38   39   37 ar
    39   40   39 1
    40   41   39 ar
    41   42   41 1
    42   43   34 ar
    43   44   43 1
    44   45   32 1
    45   46   45 1
    46   47   46 1
    47   48   46 1
    48   49   46 1
    49   50   45 1
    50   51   50 1
    51   52   50 1
    52   53   50 1
    53   54   45 1
    54   55   54 1
    55   56   54 1
    56   57   54 1
    57   58   59 1
    58   60   58 1
    59   61   58 1
    60   62   61 ar
    61   63   62 1
    62   64   62 ar
    63   65   64 1
    64   66   64 ar
    65   67   66 ar
    66   68   67 1
    67   69   67 ar
    68   70   69 1
    69   71   69 ar
    70   72   71 1
    71   73   71 ar
    72   74   73 1
    73   75   66 ar
    74   76   61 ar
    75   77   76 1
    76   78   77 ar
    77   79   78 ar
    78   80   79 ar
    79   81   80 1
    80   82   80 ar
    81   83   82 1
    82   84   82 ar
    83   85   84 1
    84   86   84 ar
    85   87   86 1
    86   88   79 ar
    87   89   88 ar
    88   90   58 1
    89   91   78 1
    90   92   91 ar
    91   93   92 1
    92   94   92 ar
    93   95   94 1
    94   96   94 ar
    95   97   96 1
    96   98   96 ar
    97   99   98 1
    98  100   91 ar
    99  101  100 1
   100  102   89 1
   101  103  102 1
   102  104  103 1
   103  105  103 1
   104  106  103 1
   105  107  102 1
   106  108  107 1
   107  109  107 1
   108  110  107 1
   109  111  102 1
   110  112  111 1
   111  113  111 1
   112  114  111 1
   113   16   18 ar
   114   18   19 ar
   115   20   33 ar
   116   29   31 ar
   117   32   33 ar
   118   41   43 ar
   119   73   75 ar
   120   75   76 ar
   121   77   90 ar
   122   86   88 ar
   123   89   90 ar
   124   98  100 ar
@<TRIPOS>SUBSTRUCTURE
     1 RES1 1
     2 RES2 58

@<TRIPOS>CRYSIN
   6.3082   18.0830   18.9418  90.0000  95.9130  90.0000   4 1

