# MOL2 file generated by ConQuest
# Please check atom types

@<TRIPOS>MOLECULE
LEHZEE
   100   112     2
SMALL
NO_CHARGES
****
Generated from CSD

@<TRIPOS>ATOM
      1 C1         2.4227    3.5875    1.1614 C.3       1 RES1    0.0000
      2 C2         1.8281    2.8709   -0.0698 C.ar      1 RES1    0.0000
      3 C3         0.7221    2.0421   -0.0524 C.ar      1 RES1    0.0000
      4 H1         0.2723    1.8937    0.7477 H         1 RES1    0.0000
      5 C4         0.2710    1.4238   -1.2210 C.ar      1 RES1    0.0000
      6 H2        -0.4769    0.8707   -1.1976 H         1 RES1    0.0000
      7 C5         0.9363    1.6357   -2.4070 C.ar      1 RES1    0.0000
      8 H3         0.6559    1.2062   -3.1827 H         1 RES1    0.0000
      9 C6         2.0151    2.4816   -2.4395 C.ar      1 RES1    0.0000
     10 H4         2.4591    2.6247   -3.2439 H         1 RES1    0.0000
     11 C7         2.4544    3.1264   -1.2990 C.ar      1 RES1    0.0000
     12 C8         3.5300    4.1792   -1.3358 C.3       1 RES1    0.0000
     13 H5         3.6393    4.4997   -2.2448 H         1 RES1    0.0000
     14 H6         4.3718    3.7938   -1.0488 H         1 RES1    0.0000
     15 C9         3.1699    5.3313   -0.4354 C.ar      1 RES1    0.0000
     16 C10        2.5547    5.0532    0.7692 C.ar      1 RES1    0.0000
     17 C11        3.4101    6.6628   -0.8092 C.ar      1 RES1    0.0000
     18 H7         3.8321    6.8434   -1.6178 H         1 RES1    0.0000
     19 C12        3.0339    7.6909   -0.0025 C.ar      1 RES1    0.0000
     20 H8         3.2241    8.5661   -0.2564 H         1 RES1    0.0000
     21 C13        2.3592    7.4503    1.2134 C.ar      1 RES1    0.0000
     22 C14        2.0975    6.1089    1.6023 C.ar      1 RES1    0.0000
     23 C15        1.9109    8.5133    2.0365 C.ar      1 RES1    0.0000
     24 H9         2.0877    9.3946    1.8014 H         1 RES1    0.0000
     25 C16        1.2243    8.2341    3.1655 C.ar      1 RES1    0.0000
     26 H10        0.9389    8.9368    3.7054 H         1 RES1    0.0000
     27 C17        0.9317    6.9221    3.5474 C.ar      1 RES1    0.0000
     28 H11        0.4403    6.7726    4.3224 H         1 RES1    0.0000
     29 C18        1.3568    5.8405    2.7973 C.ar      1 RES1    0.0000
     30 C19        1.1045    4.4531    3.1987 C.ar      1 RES1    0.0000
     31 C20        0.3811    4.1492    4.3692 C.ar      1 RES1    0.0000
     32 H12       -0.0128    4.8414    4.8501 H         1 RES1    0.0000
     33 C21        0.2405    2.8681    4.8184 C.ar      1 RES1    0.0000
     34 H13       -0.2407    2.7038    5.5978 H         1 RES1    0.0000
     35 C22        0.8015    1.8141    4.1319 C.ar      1 RES1    0.0000
     36 H14        0.7253    0.9444    4.4498 H         1 RES1    0.0000
     37 C23        1.4784    2.0822    2.9640 C.ar      1 RES1    0.0000
     38 H15        1.8519    1.3742    2.4912 H         1 RES1    0.0000
     39 C24        1.6263    3.3742    2.4610 C.ar      1 RES1    0.0000
     40 C25        3.8421    3.0161    1.4484 C.ar      1 RES1    0.0000
     41 C26        4.1915    1.7046    1.1589 C.ar      1 RES1    0.0000
     42 H16        3.5792    1.1563    0.7229 H         1 RES1    0.0000
     43 C27        5.4257    1.1987    1.5042 C.ar      1 RES1    0.0000
     44 H17        5.6325    0.3128    1.3101 H         1 RES1    0.0000
     45 C28        6.3533    1.9927    2.1318 C.ar      1 RES1    0.0000
     46 H18        7.1867    1.6501    2.3622 H         1 RES1    0.0000
     47 C29        6.0347    3.2999    2.4148 C.ar      1 RES1    0.0000
     48 H19        6.6597    3.8442    2.8353 H         1 RES1    0.0000
     49 C30        4.7868    3.8143    2.0802 C.ar      1 RES1    0.0000
     50 H20        4.5833    4.6995    2.2811 H         1 RES1    0.0000
     51 C31        7.0547   11.0844    7.1394 C.3       2 RES2    0.0000
     52 C32        6.5209   11.7945    8.4014 C.ar      2 RES2    0.0000
     53 C33        5.5105   12.7380    8.4158 C.ar      2 RES2    0.0000
     54 H21        5.0978   12.9816    7.6193 H         2 RES2    0.0000
     55 C34        5.1052   13.3272    9.6098 C.ar      2 RES2    0.0000
     56 H22        4.4106   13.9458    9.6109 H         2 RES2    0.0000
     57 C35        5.7284   12.9981   10.7828 C.ar      2 RES2    0.0000
     58 H23        5.4795   13.4181   11.5745 H         2 RES2    0.0000
     59 C36        6.7226   12.0457   10.7917 C.ar      2 RES2    0.0000
     60 H24        7.1381   11.8244   11.5927 H         2 RES2    0.0000
     61 C37        7.1136   11.4091    9.6146 C.ar      2 RES2    0.0000
     62 C38        8.0822   10.2610    9.6124 C.3       2 RES2    0.0000
     63 H25        8.1511    9.8916   10.5075 H         2 RES2    0.0000
     64 H26        8.9600   10.5765    9.3479 H         2 RES2    0.0000
     65 C39        7.6176    9.1883    8.6548 C.ar      2 RES2    0.0000
     66 C40        7.0437    9.5866    7.4591 C.ar      2 RES2    0.0000
     67 C41        7.7354    7.8290    8.9626 C.ar      2 RES2    0.0000
     68 H27        8.1399    7.5696    9.7598 H         2 RES2    0.0000
     69 C42        7.2631    6.8788    8.1066 C.ar      2 RES2    0.0000
     70 H28        7.3675    5.9780    8.3157 H         2 RES2    0.0000
     71 C43        6.6197    7.2441    6.9091 C.ar      2 RES2    0.0000
     72 C44        6.4858    8.6249    6.5814 C.ar      2 RES2    0.0000
     73 C45        6.0721    6.2762    6.0352 C.ar      2 RES2    0.0000
     74 H29        6.1633    5.3726    6.2314 H         2 RES2    0.0000
     75 C46        5.4141    6.6627    4.9113 C.ar      2 RES2    0.0000
     76 H30        5.0634    6.0150    4.3423 H         2 RES2    0.0000
     77 C47        5.2530    8.0164    4.5957 C.ar      2 RES2    0.0000
     78 H31        4.7815    8.2514    3.8295 H         2 RES2    0.0000
     79 C48        5.7801    9.0134    5.3942 C.ar      2 RES2    0.0000
     80 C49        5.6671   10.4476    5.0643 C.ar      2 RES2    0.0000
     81 C50        4.9888   10.8885    3.9094 C.ar      2 RES2    0.0000
     82 H32        4.5412   10.2626    3.3878 H         2 RES2    0.0000
     83 C51        4.9625   12.1961    3.5259 C.ar      2 RES2    0.0000
     84 H33        4.4953   12.4451    2.7609 H         2 RES2    0.0000
     85 C52        5.6262   13.1494    4.2692 C.ar      2 RES2    0.0000
     86 H34        5.6332   14.0395    3.9999 H         2 RES2    0.0000
     87 C53        6.2794   12.7556    5.4220 C.ar      2 RES2    0.0000
     88 H35        6.7264   13.3956    5.9270 H         2 RES2    0.0000
     89 C54        6.2907   11.4306    5.8498 C.ar      2 RES2    0.0000
     90 C55        8.5272   11.5041    6.8783 C.ar      2 RES2    0.0000
     91 C56        9.0709   12.6800    7.3622 C.ar      2 RES2    0.0000
     92 H36        8.5614   13.2331    7.9087 H         2 RES2    0.0000
     93 C57       10.3766   13.0422    7.0360 C.ar      2 RES2    0.0000
     94 H37       10.7310   13.8360    7.3662 H         2 RES2    0.0000
     95 C58       11.1393   12.2422    6.2357 C.ar      2 RES2    0.0000
     96 H38       12.0058   12.4955    6.0130 H         2 RES2    0.0000
     97 C59       10.6240   11.0658    5.7639 C.ar      2 RES2    0.0000
     98 H39       11.1451   10.5095    5.2322 H         2 RES2    0.0000
     99 C60        9.3255   10.7036    6.0792 C.ar      2 RES2    0.0000
    100 H40        8.9826    9.9050    5.7467 H         2 RES2    0.0000
@<TRIPOS>BOND
     1    1    2 1
     2    2    3 ar
     3    3    4 1
     4    5    3 ar
     5    6    5 1
     6    7    5 ar
     7    8    7 1
     8    9    7 ar
     9   10    9 1
    10   11    2 ar
    11   12   11 1
    12   13   12 1
    13   14   12 1
    14   15   12 1
    15   16    1 1
    16   17   15 ar
    17   18   17 1
    18   19   17 ar
    19   20   19 1
    20   21   19 ar
    21   22   16 ar
    22   23   21 ar
    23   24   23 1
    24   25   23 ar
    25   26   25 1
    26   27   25 ar
    27   28   27 1
    28   29   22 ar
    29   30   29 1
    30   31   30 ar
    31   32   31 1
    32   33   31 ar
    33   34   33 1
    34   35   33 ar
    35   36   35 1
    36   37   35 ar
    37   38   37 1
    38   39    1 1
    39   40    1 1
    40   41   40 ar
    41   42   41 1
    42   43   41 ar
    43   44   43 1
    44   45   43 ar
    45   46   45 1
    46   47   45 ar
    47   48   47 1
    48   49   40 ar
    49   50   49 1
    50   51   52 1
    51   52   53 ar
    52   53   54 1
    53   55   53 ar
    54   56   55 1
    55   57   55 ar
    56   58   57 1
    57   59   57 ar
    58   60   59 1
    59   61   52 ar
    60   62   61 1
    61   63   62 1
    62   64   62 1
    63   65   62 1
    64   66   51 1
    65   67   65 ar
    66   68   67 1
    67   69   67 ar
    68   70   69 1
    69   71   69 ar
    70   72   66 ar
    71   73   71 ar
    72   74   73 1
    73   75   73 ar
    74   76   75 1
    75   77   75 ar
    76   78   77 1
    77   79   72 ar
    78   80   79 1
    79   81   80 ar
    80   82   81 1
    81   83   81 ar
    82   84   83 1
    83   85   83 ar
    84   86   85 1
    85   87   85 ar
    86   88   87 1
    87   89   51 1
    88   90   51 1
    89   91   90 ar
    90   92   91 1
    91   93   91 ar
    92   94   93 1
    93   95   93 ar
    94   96   95 1
    95   97   95 ar
    96   98   97 1
    97   99   90 ar
    98  100   99 1
    99    9   11 ar
   100   15   16 ar
   101   21   22 ar
   102   27   29 ar
   103   30   39 ar
   104   37   39 ar
   105   47   49 ar
   106   59   61 ar
   107   65   66 ar
   108   71   72 ar
   109   77   79 ar
   110   80   89 ar
   111   87   89 ar
   112   97   99 ar
@<TRIPOS>SUBSTRUCTURE
     1 RES1 1
     2 RES2 51

@<TRIPOS>CRYSIN
   8.6979   13.9822   16.6375  83.8950  89.8610  82.5130   2 1

