# MOL2 file generated by ConQuest
# Please check atom types

@<TRIPOS>MOLECULE
LENNEX
    74    83     1
SMALL
NO_CHARGES
****
Generated from CSD

@<TRIPOS>ATOM
      1 C1         6.8626    5.6588    1.4826 C.ar      1 RES1    0.0000
      2 C2         6.2032    6.8194    1.8402 C.ar      1 RES1    0.0000
      3 C3         5.1538    7.3122    1.0459 C.ar      1 RES1    0.0000
      4 C4         4.7960    6.6607   -0.1170 C.ar      1 RES1    0.0000
      5 C5         6.3788    4.8396    0.4154 C.ar      1 RES1    0.0000
      6 C6         8.1459    5.4925    2.2757 C.3       1 RES1    0.0000
      7 C7         9.0058    6.7528    2.0942 C.3       1 RES1    0.0000
      8 C8         7.7908    5.3571    3.7662 C.3       1 RES1    0.0000
      9 C9         6.8312    7.5568    3.0005 C.3       1 RES1    0.0000
     10 C10        8.2307    7.9941    2.5608 C.3       1 RES1    0.0000
     11 C11        6.9784    6.5926    4.1896 C.3       1 RES1    0.0000
     12 C12        4.4386    8.6278    1.2627 C.3       1 RES1    0.0000
     13 C13        4.8618    9.5902    0.1523 C.3       1 RES1    0.0000
     14 C14        2.9271    8.3795    1.1378 C.3       1 RES1    0.0000
     15 C15        3.9300    7.5453   -0.9941 C.3       1 RES1    0.0000
     16 C16        4.6504    8.8900   -1.1933 C.3       1 RES1    0.0000
     17 C17        2.6099    7.8169   -0.2564 C.3       1 RES1    0.0000
     18 H1         8.6868    4.7365    1.9492 H         1 RES1    0.0000
     19 H2         9.2780    6.8504    1.1147 H         1 RES1    0.0000
     20 H3         9.8287    6.6445    2.6375 H         1 RES1    0.0000
     21 H4         7.2030    4.5382    3.8984 H         1 RES1    0.0000
     22 H5         8.6416    5.2870    4.3552 H         1 RES1    0.0000
     23 H6         6.3400    8.3452    3.2588 H         1 RES1    0.0000
     24 H7         8.1634    8.6444    1.8213 H         1 RES1    0.0000
     25 H8         8.6803    8.4357    3.2710 H         1 RES1    0.0000
     26 H9         6.0230    6.2546    4.4649 H         1 RES1    0.0000
     27 H10        7.3867    7.0952    4.9217 H         1 RES1    0.0000
     28 H11        4.6357    9.0423    2.1198 H         1 RES1    0.0000
     29 H12        5.7956    9.8795    0.3046 H         1 RES1    0.0000
     30 H13        4.3320   10.4119    0.1827 H         1 RES1    0.0000
     31 H14        2.5923    7.7058    1.8274 H         1 RES1    0.0000
     32 H15        2.5248    9.2017    1.2548 H         1 RES1    0.0000
     33 H16        3.7692    7.1446   -1.8761 H         1 RES1    0.0000
     34 H17        5.5297    8.7237   -1.6629 H         1 RES1    0.0000
     35 H18        4.1768    9.4557   -1.7421 H         1 RES1    0.0000
     36 H19        2.1034    7.0588   -0.2315 H         1 RES1    0.0000
     37 H20        2.0939    8.4778   -0.7492 H         1 RES1    0.0000
     38 C5A        5.3095    5.3564   -0.4154 C.ar      1 RES1    0.0000
     39 C1A        4.8258    4.5372   -1.4826 C.ar      1 RES1    0.0000
     40 C2A        5.4852    3.3766   -1.8402 C.ar      1 RES1    0.0000
     41 C3A        6.5345    2.8838   -1.0459 C.ar      1 RES1    0.0000
     42 C4A        6.8923    3.5353    0.1170 C.ar      1 RES1    0.0000
     43 C15A       7.7583    2.6507    0.9941 C.3       1 RES1    0.0000
     44 C16A       7.0379    1.3060    1.1933 C.3       1 RES1    0.0000
     45 C13A       6.8265    0.6058   -0.1523 C.3       1 RES1    0.0000
     46 C12A       7.2497    1.5682   -1.2627 C.3       1 RES1    0.0000
     47 C14A       8.7612    1.8165   -1.1378 C.3       1 RES1    0.0000
     48 C17A       9.0784    2.3791    0.2564 C.3       1 RES1    0.0000
     49 H16A       7.9191    3.0514    1.8761 H         1 RES1    0.0000
     50 H19A       9.5849    3.1372    0.2315 H         1 RES1    0.0000
     51 H20A       9.5944    1.7183    0.7492 H         1 RES1    0.0000
     52 H14A       9.0960    2.4903   -1.8274 H         1 RES1    0.0000
     53 H15A       9.1636    0.9944   -1.2548 H         1 RES1    0.0000
     54 H11A       7.0526    1.1537   -2.1198 H         1 RES1    0.0000
     55 H12A       5.8927    0.3165   -0.3046 H         1 RES1    0.0000
     56 H13A       7.3563   -0.2159   -0.1827 H         1 RES1    0.0000
     57 H17A       6.1587    1.4723    1.6629 H         1 RES1    0.0000
     58 H18A       7.5115    0.7404    1.7421 H         1 RES1    0.0000
     59 C9A        4.8571    2.6392   -3.0005 C.3       1 RES1    0.0000
     60 C10A       3.4576    2.2019   -2.5608 C.3       1 RES1    0.0000
     61 C7A        2.6825    3.4432   -2.0942 C.3       1 RES1    0.0000
     62 C6A        3.5424    4.7036   -2.2757 C.3       1 RES1    0.0000
     63 C8A        3.8975    4.8389   -3.7662 C.3       1 RES1    0.0000
     64 C11A       4.7099    3.6034   -4.1896 C.3       1 RES1    0.0000
     65 H6A        5.3483    1.8508   -3.2588 H         1 RES1    0.0000
     66 H9A        5.6653    3.9414   -4.4649 H         1 RES1    0.0000
     67 H10A       4.3016    3.1008   -4.9217 H         1 RES1    0.0000
     68 H4A        4.4853    5.6579   -3.8984 H         1 RES1    0.0000
     69 H5A        3.0467    4.9091   -4.3552 H         1 RES1    0.0000
     70 H1A        3.0015    5.4595   -1.9492 H         1 RES1    0.0000
     71 H2A        2.4103    3.3456   -1.1147 H         1 RES1    0.0000
     72 H3A        1.8596    3.5515   -2.6375 H         1 RES1    0.0000
     73 H7A        3.5249    1.5516   -1.8213 H         1 RES1    0.0000
     74 H8A        3.0080    1.7603   -3.2710 H         1 RES1    0.0000
@<TRIPOS>BOND
     1    1    2 ar
     2    2    3 ar
     3    3    4 ar
     4    4   15 1
     5    5    1 ar
     6    6    1 1
     7    7    6 1
     8    8    6 1
     9    9    2 1
    10   10    7 1
    11   11    8 1
    12   12    3 1
    13   13   12 1
    14   14   12 1
    15   15   16 1
    16   16   13 1
    17   17   14 1
    18   18    6 1
    19   19    7 1
    20   20    7 1
    21   21    8 1
    22   22    8 1
    23   23    9 1
    24   24   10 1
    25   25   10 1
    26   26   11 1
    27   27   11 1
    28   28   12 1
    29   29   13 1
    30   30   13 1
    31   31   14 1
    32   32   14 1
    33   33   15 1
    34   34   16 1
    35   35   16 1
    36   36   17 1
    37   37   17 1
    38   38    4 ar
    39   39   38 ar
    40   40   39 ar
    41   41   40 ar
    42   42    5 ar
    43   43   42 1
    44   44   43 1
    45   45   44 1
    46   46   41 1
    47   47   46 1
    48   48   43 1
    49   49   43 1
    50   50   48 1
    51   51   48 1
    52   52   47 1
    53   53   47 1
    54   54   46 1
    55   55   45 1
    56   56   45 1
    57   57   44 1
    58   58   44 1
    59   59   40 1
    60   60   59 1
    61   61   60 1
    62   62   39 1
    63   63   62 1
    64   64   59 1
    65   65   59 1
    66   66   64 1
    67   67   64 1
    68   68   63 1
    69   69   63 1
    70   70   62 1
    71   71   61 1
    72   72   61 1
    73   73   60 1
    74   74   60 1
    75    5   38 ar
    76    9   10 1
    77    9   11 1
    78   15   17 1
    79   41   42 ar
    80   45   46 1
    81   47   48 1
    82   61   62 1
    83   63   64 1
@<TRIPOS>SUBSTRUCTURE
     1 RES1 1

@<TRIPOS>CRYSIN
   9.4820   10.4320    6.2630  98.1200 102.1500  77.7900   2 1

