# MOL2 file generated by ConQuest
# Please check atom types

@<TRIPOS>MOLECULE
LEPPIF02
    48    52     1
SMALL
NO_CHARGES
****
Generated from CSD

@<TRIPOS>ATOM
      1 C1        11.4728    0.4307    1.5935 C.ar      1 RES1    0.0000
      2 H1        11.0218   -0.4464    1.4811 H         1 RES1    0.0000
      3 C2        10.8032    1.5998    1.4260 C.ar      1 RES1    0.0000
      4 H2         9.8498    1.6129    1.1757 H         1 RES1    0.0000
      5 C3        11.4624    2.8528    1.6040 C.ar      1 RES1    0.0000
      6 C4        10.7777    4.0812    1.4505 C.ar      1 RES1    0.0000
      7 C5        11.4619    5.3115    1.6058 C.ar      1 RES1    0.0000
      8 C6        10.8027    6.5633    1.4456 C.ar      1 RES1    0.0000
      9 H3         9.8523    6.5655    1.2218 H         1 RES1    0.0000
     10 C7        11.4690    7.7354    1.6052 C.ar      1 RES1    0.0000
     11 H4        10.9975    8.6006    1.4804 H         1 RES1    0.0000
     12 C8         9.3762    4.0918    1.1617 C.1       1 RES1    0.0000
     13 C9         8.1972    4.1304    0.9557 C.1       1 RES1    0.0000
     14 C10        6.7792    4.1937    0.7358 C.ar      1 RES1    0.0000
     15 C11        5.9595    3.1306    1.1318 C.ar      1 RES1    0.0000
     16 H5         6.3631    2.3400    1.5499 H         1 RES1    0.0000
     17 C12        4.5940    3.2029    0.9274 C.ar      1 RES1    0.0000
     18 H6         4.0484    2.4539    1.2189 H         1 RES1    0.0000
     19 C13        4.0321    4.3151    0.3309 C.ar      1 RES1    0.0000
     20 H7         3.0515    4.3394    0.1772 H         1 RES1    0.0000
     21 C14        4.8376    5.3753   -0.0587 C.ar      1 RES1    0.0000
     22 H8         4.4471    6.1686   -0.4819 H         1 RES1    0.0000
     23 C15        6.2036    5.3172    0.1420 C.ar      1 RES1    0.0000
     24 H9         6.8130    6.0662   -0.1297 H         1 RES1    0.0000
     25 C1B       12.8418    0.4307    1.9499 C.ar      1 RES1    0.0000
     26 H1B       13.2928   -0.4464    2.0623 H         1 RES1    0.0000
     27 C2B       13.5114    1.5998    2.1174 C.ar      1 RES1    0.0000
     28 H2B       14.4648    1.6129    2.3677 H         1 RES1    0.0000
     29 C3B       12.8522    2.8528    1.9394 C.ar      1 RES1    0.0000
     30 C4B       13.5369    4.0812    2.0929 C.ar      1 RES1    0.0000
     31 C5B       12.8527    5.3115    1.9376 C.ar      1 RES1    0.0000
     32 C6B       13.5119    6.5633    2.0978 C.ar      1 RES1    0.0000
     33 H3B       14.4623    6.5655    2.3216 H         1 RES1    0.0000
     34 C7B       12.8456    7.7354    1.9382 C.ar      1 RES1    0.0000
     35 H4B       13.3171    8.6006    2.0630 H         1 RES1    0.0000
     36 C8B       14.9384    4.0918    2.3817 C.1       1 RES1    0.0000
     37 C9B       16.1174    4.1304    2.5877 C.1       1 RES1    0.0000
     38 C10B      17.5354    4.1937    2.8076 C.ar      1 RES1    0.0000
     39 C11B      18.3551    3.1306    2.4116 C.ar      1 RES1    0.0000
     40 H5B       17.9515    2.3400    1.9935 H         1 RES1    0.0000
     41 C12B      19.7206    3.2029    2.6160 C.ar      1 RES1    0.0000
     42 H6B       20.2662    2.4539    2.3245 H         1 RES1    0.0000
     43 C13B      20.2825    4.3151    3.2125 C.ar      1 RES1    0.0000
     44 H7B       21.2631    4.3394    3.3662 H         1 RES1    0.0000
     45 C14B      19.4770    5.3753    3.6021 C.ar      1 RES1    0.0000
     46 H8B       19.8675    6.1686    4.0253 H         1 RES1    0.0000
     47 C15B      18.1110    5.3172    3.4014 C.ar      1 RES1    0.0000
     48 H9B       17.5016    6.0662    3.6731 H         1 RES1    0.0000
@<TRIPOS>BOND
     1    1    2 1
     2    3    1 ar
     3    4    3 1
     4    5    3 ar
     5    6    5 ar
     6    7    6 ar
     7    8    7 ar
     8    9    8 1
     9   10    8 ar
    10   11   10 1
    11   12    6 1
    12   13   12 3
    13   14   13 1
    14   15   14 ar
    15   16   15 1
    16   17   15 ar
    17   18   17 1
    18   19   17 ar
    19   20   19 1
    20   21   19 ar
    21   22   21 1
    22   23   14 ar
    23   24   23 1
    24   25    1 ar
    25   26   25 1
    26   27   25 ar
    27   28   27 1
    28   29    5 ar
    29   30   29 ar
    30   31    7 ar
    31   32   31 ar
    32   33   32 1
    33   34   10 ar
    34   35   34 1
    35   36   30 1
    36   37   36 3
    37   38   37 1
    38   39   38 ar
    39   40   39 1
    40   41   39 ar
    41   42   41 1
    42   43   41 ar
    43   44   43 1
    44   45   43 ar
    45   46   45 1
    46   47   38 ar
    47   48   47 1
    48   21   23 ar
    49   27   29 ar
    50   30   31 ar
    51   32   34 ar
    52   45   47 ar
@<TRIPOS>SUBSTRUCTURE
     1 RES1 1

@<TRIPOS>CRYSIN
  24.3146   11.5043    7.0868  90.0000  90.0000  90.0000  60 1

