# MOL2 file generated by ConQuest
# Please check atom types

@<TRIPOS>MOLECULE
LEPPIF07
    48    52     1
SMALL
NO_CHARGES
****
Generated from CSD

@<TRIPOS>ATOM
      1 C1         8.9837    1.0243    8.2717 C.ar      1 RES1    0.0000
      2 C2         8.0248    2.0727    8.2495 C.ar      1 RES1    0.0000
      3 H1         7.5287    2.2198    7.4761 H         1 RES1    0.0000
      4 C3         7.8161    2.8622    9.3272 C.ar      1 RES1    0.0000
      5 H2         7.1785    3.5394    9.2909 H         1 RES1    0.0000
      6 C4         8.5621    2.6611   10.5083 C.ar      1 RES1    0.0000
      7 H3         8.4210    3.2131   11.2441 H         1 RES1    0.0000
      8 C5         9.4800    1.6726   10.5795 C.ar      1 RES1    0.0000
      9 H4         9.9543    1.5485   11.3691 H         1 RES1    0.0000
     10 C6         9.7345    0.8184    9.4701 C.ar      1 RES1    0.0000
     11 C7         9.2265    0.2065    7.1443 C.ar      1 RES1    0.0000
     12 C8         8.4798    0.4033    5.9417 C.1       1 RES1    0.0000
     13 C9         7.8612    0.5365    4.9288 C.1       1 RES1    0.0000
     14 C10        7.0634    0.6130    3.7390 C.ar      1 RES1    0.0000
     15 C11        6.1194    1.6004    3.5630 C.ar      1 RES1    0.0000
     16 H5         6.0283    2.2744    4.1980 H         1 RES1    0.0000
     17 C12        5.3052    1.5903    2.4428 C.ar      1 RES1    0.0000
     18 H6         4.6629    2.2535    2.3348 H         1 RES1    0.0000
     19 C13        5.4369    0.6226    1.5014 C.ar      1 RES1    0.0000
     20 H7         4.8728    0.6109    0.7616 H         1 RES1    0.0000
     21 C14        6.4003   -0.3327    1.6452 C.ar      1 RES1    0.0000
     22 H8         6.5120   -0.9789    0.9866 H         1 RES1    0.0000
     23 C15        7.2034   -0.3461    2.7549 C.ar      1 RES1    0.0000
     24 H9         7.8506   -1.0083    2.8464 H         1 RES1    0.0000
     25 C1D       10.9500   -1.0243    8.3937 C.ar      1 RES1    0.0000
     26 C2D       11.9088   -2.0727    8.4158 C.ar      1 RES1    0.0000
     27 H1D       12.4049   -2.2198    9.1893 H         1 RES1    0.0000
     28 C3D       12.1175   -2.8622    7.3381 C.ar      1 RES1    0.0000
     29 H2D       12.7551   -3.5394    7.3744 H         1 RES1    0.0000
     30 C4D       11.3716   -2.6611    6.1570 C.ar      1 RES1    0.0000
     31 H3D       11.5127   -3.2131    5.4212 H         1 RES1    0.0000
     32 C5D       10.4537   -1.6726    6.0858 C.ar      1 RES1    0.0000
     33 H4D        9.9794   -1.5485    5.2962 H         1 RES1    0.0000
     34 C6D       10.1991   -0.8184    7.1953 C.ar      1 RES1    0.0000
     35 C7D       10.7071   -0.2065    9.5211 C.ar      1 RES1    0.0000
     36 C8D       11.4539   -0.4033   10.7236 C.1       1 RES1    0.0000
     37 C9D       12.0724   -0.5365   11.7366 C.1       1 RES1    0.0000
     38 C10D      12.8702   -0.6130   12.9263 C.ar      1 RES1    0.0000
     39 C11D      13.8142   -1.6004   13.1023 C.ar      1 RES1    0.0000
     40 H5D       13.9053   -2.2744   12.4673 H         1 RES1    0.0000
     41 C12D      14.6285   -1.5903   14.2225 C.ar      1 RES1    0.0000
     42 H6D       15.2707   -2.2535   14.3305 H         1 RES1    0.0000
     43 C13D      14.4968   -0.6226   15.1639 C.ar      1 RES1    0.0000
     44 H7D       15.0608   -0.6109   15.9037 H         1 RES1    0.0000
     45 C14D      13.5333    0.3327   15.0201 C.ar      1 RES1    0.0000
     46 H8D       13.4216    0.9789   15.6787 H         1 RES1    0.0000
     47 C15D      12.7302    0.3461   13.9104 C.ar      1 RES1    0.0000
     48 H9D       12.0830    1.0083   13.8189 H         1 RES1    0.0000
@<TRIPOS>BOND
     1    1    2 ar
     2    2    3 1
     3    4    2 ar
     4    5    4 1
     5    6    4 ar
     6    7    6 1
     7    8    6 ar
     8    9    8 1
     9   10    1 ar
    10   11    1 ar
    11   12   11 1
    12   13   12 3
    13   14   13 1
    14   15   14 ar
    15   16   15 1
    16   17   15 ar
    17   18   17 1
    18   19   17 ar
    19   20   19 1
    20   21   19 ar
    21   22   21 1
    22   23   14 ar
    23   24   23 1
    24   25   26 ar
    25   26   27 1
    26   28   26 ar
    27   29   28 1
    28   30   28 ar
    29   31   30 1
    30   32   30 ar
    31   33   32 1
    32   34   11 ar
    33   35   10 ar
    34   36   35 1
    35   37   36 3
    36   38   37 1
    37   39   38 ar
    38   40   39 1
    39   41   39 ar
    40   42   41 1
    41   43   41 ar
    42   44   43 1
    43   45   43 ar
    44   46   45 1
    45   47   38 ar
    46   48   47 1
    47    8   10 ar
    48   21   23 ar
    49   25   34 ar
    50   25   35 ar
    51   32   34 ar
    52   45   47 ar
@<TRIPOS>SUBSTRUCTURE
     1 RES1 1

@<TRIPOS>CRYSIN
  22.8350    5.3490   16.9160  90.0000  99.8760  90.0000  15 1

