# MOL2 file generated by ConQuest
# Please check atom types

@<TRIPOS>MOLECULE
LEPPIF03
    48    52     1
SMALL
NO_CHARGES
****
Generated from CSD

@<TRIPOS>ATOM
      1 C1        11.3416    5.3873    6.0482 C.ar      1 RES1    0.0000
      2 H1        11.4629    5.9898    5.2451 H         1 RES1    0.0000
      3 C2        10.4276    4.3738    5.9919 C.ar      1 RES1    0.0000
      4 H2         9.8796    4.2379    5.1709 H         1 RES1    0.0000
      5 C3        10.2184    3.5054    7.1081 C.ar      1 RES1    0.0000
      6 C4         9.2543    2.4676    7.0756 C.ar      1 RES1    0.0000
      7 C5         9.0440    1.6396    8.2058 C.ar      1 RES1    0.0000
      8 C6         8.0911    0.5745    8.1919 C.ar      1 RES1    0.0000
      9 H3         7.5568    0.4179    7.3719 H         1 RES1    0.0000
     10 C7         7.9195   -0.2340    9.2774 C.ar      1 RES1    0.0000
     11 H4         7.2778   -0.9912    9.2545 H         1 RES1    0.0000
     12 C8         8.4869    2.2628    5.8863 C.1       1 RES1    0.0000
     13 C9         7.8461    2.1276    4.8770 C.1       1 RES1    0.0000
     14 C10        7.0336    2.0623    3.6975 C.ar      1 RES1    0.0000
     15 C11        7.1447    3.0659    2.7295 C.ar      1 RES1    0.0000
     16 H5         7.8020    3.7878    2.8395 H         1 RES1    0.0000
     17 C12        6.3073    3.0641    1.6239 C.ar      1 RES1    0.0000
     18 H6         6.3943    3.7985    0.9619 H         1 RES1    0.0000
     19 C13        5.3563    2.0644    1.4681 C.ar      1 RES1    0.0000
     20 H7         4.7594    2.0787    0.6550 H         1 RES1    0.0000
     21 C14        5.2631    1.0471    2.4068 C.ar      1 RES1    0.0000
     22 H8         4.5999    0.3054    2.3000 H         1 RES1    0.0000
     23 C15        6.0962    1.0402    3.5208 C.ar      1 RES1    0.0000
     24 H9         6.0219    0.3107    4.1875 H         1 RES1    0.0000
     25 C1D        8.6928   -0.0297   10.4512 C.ar      1 RES1    0.0000
     26 H1D        8.5715   -0.6322   11.2542 H         1 RES1    0.0000
     27 C2D        9.6068    0.9838   10.5074 C.ar      1 RES1    0.0000
     28 H2D       10.1548    1.1197   11.3284 H         1 RES1    0.0000
     29 C3D        9.8160    1.8522    9.3912 C.ar      1 RES1    0.0000
     30 C4D       10.7801    2.8900    9.4237 C.ar      1 RES1    0.0000
     31 C5D       10.9904    3.7180    8.2935 C.ar      1 RES1    0.0000
     32 C6D       11.9433    4.7831    8.3074 C.ar      1 RES1    0.0000
     33 H3D       12.4776    4.9397    9.1274 H         1 RES1    0.0000
     34 C7D       12.1149    5.5916    7.2219 C.ar      1 RES1    0.0000
     35 H4D       12.7566    6.3488    7.2448 H         1 RES1    0.0000
     36 C8D       11.5475    3.0948   10.6130 C.1       1 RES1    0.0000
     37 C9D       12.1883    3.2300   11.6223 C.1       1 RES1    0.0000
     38 C10D      13.0008    3.2953   12.8018 C.ar      1 RES1    0.0000
     39 C11D      12.8897    2.2917   13.7698 C.ar      1 RES1    0.0000
     40 H5D       12.2324    1.5698   13.6598 H         1 RES1    0.0000
     41 C12D      13.7271    2.2935   14.8754 C.ar      1 RES1    0.0000
     42 H6D       13.6401    1.5591   15.5374 H         1 RES1    0.0000
     43 C13D      14.6781    3.2932   15.0312 C.ar      1 RES1    0.0000
     44 H7D       15.2750    3.2789   15.8443 H         1 RES1    0.0000
     45 C14D      14.7712    4.3105   14.0926 C.ar      1 RES1    0.0000
     46 H8D       15.4345    5.0522   14.1993 H         1 RES1    0.0000
     47 C15D      13.9382    4.3174   12.9785 C.ar      1 RES1    0.0000
     48 H9D       14.0125    5.0469   12.3118 H         1 RES1    0.0000
@<TRIPOS>BOND
     1    1    2 1
     2    3    1 ar
     3    4    3 1
     4    5    3 ar
     5    6    5 ar
     6    7    6 ar
     7    8    7 ar
     8    9    8 1
     9   10    8 ar
    10   11   10 1
    11   12    6 1
    12   13   12 3
    13   14   13 1
    14   15   14 ar
    15   16   15 1
    16   17   15 ar
    17   18   17 1
    18   19   17 ar
    19   20   19 1
    20   21   19 ar
    21   22   21 1
    22   23   14 ar
    23   24   23 1
    24   25   10 ar
    25   26   25 1
    26   27   25 ar
    27   28   27 1
    28   29    7 ar
    29   30   29 ar
    30   31    5 ar
    31   32   31 ar
    32   33   32 1
    33   34    1 ar
    34   35   34 1
    35   36   30 1
    36   37   36 3
    37   38   37 1
    38   39   38 ar
    39   40   39 1
    40   41   39 ar
    41   42   41 1
    42   43   41 ar
    43   44   43 1
    44   45   43 ar
    45   46   45 1
    46   47   38 ar
    47   48   47 1
    48   21   23 ar
    49   27   29 ar
    50   30   31 ar
    51   32   34 ar
    52   45   47 ar
@<TRIPOS>SUBSTRUCTURE
     1 RES1 1

@<TRIPOS>CRYSIN
  22.4208    5.3576   16.6710  90.0000  98.2300  90.0000  15 1

