# MOL2 file generated by ConQuest
# Please check atom types

@<TRIPOS>MOLECULE
LETCOE
    44    48     1
SMALL
NO_CHARGES
****
Generated from CSD

@<TRIPOS>ATOM
      1 C1         3.6263    1.6605    9.0700 C.ar      1 RES1    0.0000
      2 C2         2.6052    2.2654    8.3249 C.ar      1 RES1    0.0000
      3 H1         1.9891    1.7196    7.7853 H         1 RES1    0.0000
      4 C3         2.4685    3.6546    8.2763 C.ar      1 RES1    0.0000
      5 C4         3.3586    4.4455    9.0163 C.ar      1 RES1    0.0000
      6 H2         3.2641    5.4356    9.0087 H         1 RES1    0.0000
      7 C5         4.3726    3.8555    9.7635 C.ar      1 RES1    0.0000
      8 H3         4.9659    4.3980   10.3089 H         1 RES1    0.0000
      9 C6         4.5200    2.4684    9.7765 C.ar      1 RES1    0.0000
     10 H4         5.2657    2.0601   10.3067 H         1 RES1    0.0000
     11 C7         3.7699    0.1789    9.0777 C.ar      1 RES1    0.0000
     12 C8         4.9531   -0.3946    8.6549 C.ar      1 RES1    0.0000
     13 H5         5.7073    0.1864    8.3764 H         1 RES1    0.0000
     14 C9         5.0998   -1.7991    8.5746 C.ar      1 RES1    0.0000
     15 H6         5.9621   -2.1707    8.2320 H         1 RES1    0.0000
     16 C10        4.0653   -2.6216    8.9316 C.ar      1 RES1    0.0000
     17 H7         4.1522   -3.6104    8.8587 H         1 RES1    0.0000
     18 C11        2.8505   -2.0793    9.4171 C.ar      1 RES1    0.0000
     19 C12        1.7816   -2.9204    9.8334 C.ar      1 RES1    0.0000
     20 H8         1.9238   -3.9032    9.7388 H         1 RES1    0.0000
     21 C13        0.6330   -2.3969   10.3543 C.ar      1 RES1    0.0000
     22 H9        -0.1026   -2.9847   10.6711 H         1 RES1    0.0000
     23 C14        0.4841   -0.9943   10.4749 C.ar      1 RES1    0.0000
     24 H10       -0.3412   -0.6190   10.8645 H         1 RES1    0.0000
     25 C15        1.4832   -0.1538   10.0534 C.ar      1 RES1    0.0000
     26 H11        1.3723    0.8440   10.1566 H         1 RES1    0.0000
     27 C16        2.6961   -0.6634    9.5082 C.ar      1 RES1    0.0000
     28 C17        1.3529    4.2548    7.4916 C.ar      1 RES1    0.0000
     29 C18        0.0641    3.8125    7.7098 C.ar      1 RES1    0.0000
     30 H12       -0.0972    3.0824    8.3598 H         1 RES1    0.0000
     31 C19       -1.0335    4.3828    7.0302 C.ar      1 RES1    0.0000
     32 H13       -1.9577    4.0162    7.1885 H         1 RES1    0.0000
     33 C20       -0.8400    5.4237    6.1600 C.ar      1 RES1    0.0000
     34 H14       -1.6192    5.8387    5.6539 H         1 RES1    0.0000
     35 C21        0.4659    5.9056    5.8928 C.ar      1 RES1    0.0000
     36 C22        0.6839    6.9691    4.9755 C.ar      1 RES1    0.0000
     37 H15       -0.0986    7.4299    4.5772 H         1 RES1    0.0000
     38 C23        1.9457    7.3736    4.6545 C.ar      1 RES1    0.0000
     39 H16        2.1010    8.1126    3.9526 H         1 RES1    0.0000
     40 C24        3.0632    6.7293    5.2358 C.ar      1 RES1    0.0000
     41 H17        3.9993    7.0097    4.9750 H         1 RES1    0.0000
     42 C25        2.8845    5.7201    6.1557 C.ar      1 RES1    0.0000
     43 H18        3.6798    5.2722    6.5518 H         1 RES1    0.0000
     44 C26        1.5863    5.2912    6.5289 C.ar      1 RES1    0.0000
@<TRIPOS>BOND
     1    1    2 ar
     2    2    3 1
     3    4    2 ar
     4    5    4 ar
     5    6    5 1
     6    7    5 ar
     7    8    7 1
     8    9    1 ar
     9   10    9 1
    10   11    1 1
    11   12   11 ar
    12   13   12 1
    13   14   12 ar
    14   15   14 1
    15   16   14 ar
    16   17   16 1
    17   18   16 ar
    18   19   18 ar
    19   20   19 1
    20   21   19 ar
    21   22   21 1
    22   23   21 ar
    23   24   23 1
    24   25   23 ar
    25   26   25 1
    26   27   11 ar
    27   28    4 1
    28   29   28 ar
    29   30   29 1
    30   31   29 ar
    31   32   31 1
    32   33   31 ar
    33   34   33 1
    34   35   33 ar
    35   36   35 ar
    36   37   36 1
    37   38   36 ar
    38   39   38 1
    39   40   38 ar
    40   41   40 1
    41   42   40 ar
    42   43   42 1
    43   44   28 ar
    44    7    9 ar
    45   18   27 ar
    46   25   27 ar
    47   35   44 ar
    48   42   44 ar
@<TRIPOS>SUBSTRUCTURE
     1 RES1 1

@<TRIPOS>CRYSIN
   7.6272   10.8453   11.8454 106.0798  96.2976 108.4307   2 1

