# MOL2 file generated by ConQuest
# Please check atom types

@<TRIPOS>MOLECULE
LETCUK
    44    48     1
SMALL
NO_CHARGES
****
Generated from CSD

@<TRIPOS>ATOM
      1 C1        16.4435    5.8156    5.8560 C.ar      1 RES1    0.0000
      2 C2        16.3341    6.3753    4.5751 C.ar      1 RES1    0.0000
      3 H1        16.8133    7.1940    4.3827 H         1 RES1    0.0000
      4 C3        15.5160    5.8106    3.5898 C.ar      1 RES1    0.0000
      5 C4        14.8164    4.6371    3.8947 C.ar      1 RES1    0.0000
      6 H2        14.2462    4.2007    3.1907 H         1 RES1    0.0000
      7 C5        14.9299    4.0597    5.1563 C.ar      1 RES1    0.0000
      8 H3        14.4536    3.2487    5.3402 H         1 RES1    0.0000
      9 C6        15.7322    4.6402    6.1327 C.ar      1 RES1    0.0000
     10 H4        15.8201    4.2123    7.0207 H         1 RES1    0.0000
     11 C7        16.9108    6.4878    8.2208 C.ar      1 RES1    0.0000
     12 H5        16.0587    6.0715    8.5115 H         1 RES1    0.0000
     13 C8        17.2844    6.4712    6.8894 C.ar      1 RES1    0.0000
     14 C9        18.5006    7.1131    6.5161 C.ar      1 RES1    0.0000
     15 H6        18.7788    7.0824    5.5583 H         1 RES1    0.0000
     16 C10       19.2933    7.7324    7.4460 C.ar      1 RES1    0.0000
     17 H7        20.1531    8.1799    7.1806 H         1 RES1    0.0000
     18 C11       18.9167    7.7645    8.8174 C.ar      1 RES1    0.0000
     19 C12       19.7100    8.4065    9.8015 C.ar      1 RES1    0.0000
     20 H8        20.5628    8.8702    9.5198 H         1 RES1    0.0000
     21 C13       19.3259    8.4095   11.1190 C.ar      1 RES1    0.0000
     22 H9        19.9145    8.8487   11.8053 H         1 RES1    0.0000
     23 C14       18.1259    7.7735   11.5086 C.ar      1 RES1    0.0000
     24 H10       17.8609    7.7414   12.4715 H         1 RES1    0.0000
     25 C15       17.3295    7.1537   10.5778 C.ar      1 RES1    0.0000
     26 H11       16.5047    6.7127   10.8388 H         1 RES1    0.0000
     27 C16       17.7053    7.1299    9.2063 C.ar      1 RES1    0.0000
     28 C17       14.1886    6.4300    1.5659 C.ar      1 RES1    0.0000
     29 H12       13.3749    5.9768    1.9314 H         1 RES1    0.0000
     30 C18       15.3850    6.4581    2.2593 C.ar      1 RES1    0.0000
     31 C19       16.4980    7.1399    1.6892 C.ar      1 RES1    0.0000
     32 H13       17.3863    7.1565    2.1704 H         1 RES1    0.0000
     33 C20       16.3935    7.7559    0.4692 C.ar      1 RES1    0.0000
     34 H14       17.1711    8.2308    0.0822 H         1 RES1    0.0000
     35 C21       15.1667    7.7544   -0.2447 C.ar      1 RES1    0.0000
     36 C22       15.0171    8.4362   -1.4776 C.ar      1 RES1    0.0000
     37 H15       15.8150    8.9086   -1.8329 H         1 RES1    0.0000
     38 C23       13.8087    8.4615   -2.1231 C.ar      1 RES1    0.0000
     39 H16       13.7146    8.9970   -2.9860 H         1 RES1    0.0000
     40 C24       12.6924    7.7912   -1.5734 C.ar      1 RES1    0.0000
     41 H17       11.8139    7.8316   -2.0345 H         1 RES1    0.0000
     42 C25       12.8078    7.1133   -0.3848 C.ar      1 RES1    0.0000
     43 H18       12.0213    6.6743    0.0209 H         1 RES1    0.0000
     44 C26       14.0478    7.0794    0.3122 C.ar      1 RES1    0.0000
@<TRIPOS>BOND
     1    1    2 ar
     2    2    3 1
     3    4    2 ar
     4    5    4 ar
     5    6    5 1
     6    7    5 ar
     7    8    7 1
     8    9    1 ar
     9   10    9 1
    10   11   12 1
    11   13    1 1
    12   14   13 ar
    13   15   14 1
    14   16   14 ar
    15   17   16 1
    16   18   16 ar
    17   19   18 ar
    18   20   19 1
    19   21   19 ar
    20   22   21 1
    21   23   21 ar
    22   24   23 1
    23   25   23 ar
    24   26   25 1
    25   27   11 ar
    26   28   29 1
    27   30    4 1
    28   31   30 ar
    29   32   31 1
    30   33   31 ar
    31   34   33 1
    32   35   33 ar
    33   36   35 ar
    34   37   36 1
    35   38   36 ar
    36   39   38 1
    37   40   38 ar
    38   41   40 1
    39   42   40 ar
    40   43   42 1
    41   44   28 ar
    42    7    9 ar
    43   11   13 ar
    44   18   27 ar
    45   25   27 ar
    46   28   30 ar
    47   35   44 ar
    48   42   44 ar
@<TRIPOS>SUBSTRUCTURE
     1 RES1 1

@<TRIPOS>CRYSIN
  25.9304    8.9300   14.9377  90.0000  90.0000  90.0000  60 1

