# MOL2 file generated by ConQuest
# Please check atom types

@<TRIPOS>MOLECULE
LEWWOC
    86    96     1
SMALL
NO_CHARGES
****
Generated from CSD

@<TRIPOS>ATOM
      1 C1        -1.4007    9.1793    5.6244 C.ar      1 RES1    0.0000
      2 C2        -1.6716    8.3999    3.3380 C.ar      1 RES1    0.0000
      3 C3        -0.5882    9.1684    6.8406 C.ar      1 RES1    0.0000
      4 C4        -3.0551    8.7407    3.4021 C.ar      1 RES1    0.0000
      5 C5        -3.5623    9.4011    4.5154 C.ar      1 RES1    0.0000
      6 C6        -2.7731    9.4865    5.7098 C.ar      1 RES1    0.0000
      7 C7        -3.3017   10.0008    6.9747 C.ar      1 RES1    0.0000
      8 C8        -3.9064    8.6740    2.1711 C.ar      1 RES1    0.0000
      9 C9         0.5779    9.1854    3.9736 C.ar      1 RES1    0.0000
     10 C10       -2.3928   10.3816    7.9924 C.ar      1 RES1    0.0000
     11 C11       -1.0804    7.5760    2.2785 C.ar      1 RES1    0.0000
     12 C12       -1.0153    9.9391    7.9212 C.ar      1 RES1    0.0000
     13 C13        0.6365    8.4146    6.9587 C.ar      1 RES1    0.0000
     14 C14        0.3207    7.5900    2.0951 C.ar      1 RES1    0.0000
     15 C15        1.1383    8.4870    2.8959 C.ar      1 RES1    0.0000
     16 C16       -4.8476   10.1409    4.3182 C.ar      1 RES1    0.0000
     17 C17        1.3666   10.2071    4.6330 C.ar      1 RES1    0.0000
     18 C18        1.5396    8.7315    8.0147 C.ar      1 RES1    0.0000
     19 C19       -4.6705   10.1598    7.2375 C.ar      1 RES1    0.0000
     20 H1        -5.2896    9.8286    6.6276 H         1 RES1    0.0000
     21 C20        0.8715    6.7534    1.1076 C.ar      1 RES1    0.0000
     22 H2         1.7893    6.7744    0.9587 H         1 RES1    0.0000
     23 C21       -3.7158    9.5986    1.1590 C.ar      1 RES1    0.0000
     24 H3        -3.0421   10.2346    1.2394 H         1 RES1    0.0000
     25 C22       -1.8358    6.6590    1.5276 C.ar      1 RES1    0.0000
     26 H4        -2.7524    6.6042    1.6756 H         1 RES1    0.0000
     27 C23        0.8229   11.2148    5.4609 C.ar      1 RES1    0.0000
     28 H5        -0.1000   11.2696    5.5612 H         1 RES1    0.0000
     29 C24        0.9665    7.3200    6.1361 C.ar      1 RES1    0.0000
     30 H6         0.3668    7.0509    5.4783 H         1 RES1    0.0000
     31 C25       -5.1217   10.7914    8.3707 C.ar      1 RES1    0.0000
     32 H7        -6.0353   10.8868    8.5159 H         1 RES1    0.0000
     33 C26        1.1465    9.6856    8.9765 C.ar      1 RES1    0.0000
     34 H8         1.7553    9.9535    9.6264 H         1 RES1    0.0000
     35 C27       -4.2216   11.2853    9.2956 C.ar      1 RES1    0.0000
     36 H9        -4.5234   11.7646   10.0332 H         1 RES1    0.0000
     37 C28       -0.0882   10.2163    8.9745 C.ar      1 RES1    0.0000
     38 H10       -0.3451   10.7748    9.6722 H         1 RES1    0.0000
     39 C29       -2.8883   11.0646    9.1193 C.ar      1 RES1    0.0000
     40 H11       -2.2898   11.3735    9.7605 H         1 RES1    0.0000
     41 C30        2.7585   10.2666    4.3765 C.ar      1 RES1    0.0000
     42 C31       -4.9220    7.7472    2.0178 C.ar      1 RES1    0.0000
     43 H12       -5.0785    7.1202    2.6865 H         1 RES1    0.0000
     44 C32       -1.2684    5.8443    0.5864 C.ar      1 RES1    0.0000
     45 H13       -1.7951    5.2505    0.1019 H         1 RES1    0.0000
     46 C33       -4.5144    9.5890    0.0297 C.ar      1 RES1    0.0000
     47 H14       -4.3678   10.2205   -0.6371 H         1 RES1    0.0000
     48 C34       -6.0796    9.5103    4.2238 C.ar      1 RES1    0.0000
     49 H15       -6.1441    8.5978    4.3911 H         1 RES1    0.0000
     50 C35       -5.5228    8.6629   -0.1279 C.ar      1 RES1    0.0000
     51 C36        0.0975    5.9108    0.3607 C.ar      1 RES1    0.0000
     52 H16        0.4866    5.3825   -0.2984 H         1 RES1    0.0000
     53 C37       -5.7057    7.7445    0.8791 C.ar      1 RES1    0.0000
     54 H17       -6.3749    7.1044    0.7919 H         1 RES1    0.0000
     55 C38        3.5547   11.1937    5.0846 C.ar      1 RES1    0.0000
     56 H18        4.4740   11.2032    4.9437 H         1 RES1    0.0000
     57 C39       -4.8000   11.5094    4.1051 C.ar      1 RES1    0.0000
     58 H19       -3.9910   11.9602    4.1898 H         1 RES1    0.0000
     59 C40        2.5263    8.6459    2.6175 C.ar      1 RES1    0.0000
     60 H20        2.9008    8.1865    1.9008 H         1 RES1    0.0000
     61 C41        1.6180   12.1109    6.1179 C.ar      1 RES1    0.0000
     62 H21        1.2320   12.7517    6.6704 H         1 RES1    0.0000
     63 C42        2.1434    6.6436    6.2792 C.ar      1 RES1    0.0000
     64 H22        2.3275    5.9131    5.7339 H         1 RES1    0.0000
     65 C43        3.0104   12.0720    5.9661 C.ar      1 RES1    0.0000
     66 H23        3.5546   12.6399    6.4623 H         1 RES1    0.0000
     67 C44        2.7658    8.0523    8.1002 C.ar      1 RES1    0.0000
     68 H24        3.3765    8.2983    8.7570 H         1 RES1    0.0000
     69 C45        3.3078    9.4435    3.3650 C.ar      1 RES1    0.0000
     70 H25        4.2255    9.4547    3.2150 H         1 RES1    0.0000
     71 C46       -7.2121   10.2258    3.8835 C.ar      1 RES1    0.0000
     72 H26       -8.0299    9.7866    3.8274 H         1 RES1    0.0000
     73 C47        3.0791    7.0483    7.2490 C.ar      1 RES1    0.0000
     74 H27        3.9071    6.6286    7.3045 H         1 RES1    0.0000
     75 C48       -7.1516   11.5780    3.6259 C.ar      1 RES1    0.0000
     76 C49       -5.9404   12.2108    3.7683 C.ar      1 RES1    0.0000
     77 H28       -5.8877   13.1298    3.6353 H         1 RES1    0.0000
     78 C50       -0.8194    8.9155    4.3300 C.ar      1 RES1    0.0000
     79 C51       -6.3934    8.6353   -1.3713 C.3       1 RES1    0.0000
     80 H29       -6.8787    9.4601   -1.4409 H         1 RES1    0.0000
     81 H30       -7.0125    7.9035   -1.3119 H         1 RES1    0.0000
     82 H31       -5.8394    8.5228   -2.1473 H         1 RES1    0.0000
     83 C52       -8.3913   12.3414    3.1938 C.3       1 RES1    0.0000
     84 H32       -8.6492   12.0606    2.3129 H         1 RES1    0.0000
     85 H33       -8.2016   13.2823    3.1873 H         1 RES1    0.0000
     86 H34       -9.1069   12.1636    3.8086 H         1 RES1    0.0000
@<TRIPOS>BOND
     1    1    3 ar
     2    2    4 ar
     3    3   12 ar
     4    4    5 ar
     5    5    6 ar
     6    6    1 ar
     7    7    6 ar
     8    8    4 1
     9    9   15 ar
    10   10    7 ar
    11   11    2 ar
    12   12   10 ar
    13   13    3 ar
    14   14   11 ar
    15   15   14 ar
    16   16    5 1
    17   17    9 ar
    18   18   13 ar
    19   19    7 ar
    20   20   19 1
    21   21   14 ar
    22   22   21 1
    23   23    8 ar
    24   24   23 1
    25   25   11 ar
    26   26   25 1
    27   27   17 ar
    28   28   27 1
    29   29   13 ar
    30   30   29 1
    31   31   19 ar
    32   32   31 1
    33   33   18 ar
    34   34   33 1
    35   35   31 ar
    36   36   35 1
    37   37   12 ar
    38   38   37 1
    39   39   10 ar
    40   40   39 1
    41   41   17 ar
    42   42    8 ar
    43   43   42 1
    44   44   25 ar
    45   45   44 1
    46   46   23 ar
    47   47   46 1
    48   48   16 ar
    49   49   48 1
    50   50   46 ar
    51   51   21 ar
    52   52   51 1
    53   53   42 ar
    54   54   53 1
    55   55   41 ar
    56   56   55 1
    57   57   16 ar
    58   58   57 1
    59   59   15 ar
    60   60   59 1
    61   61   27 ar
    62   62   61 1
    63   63   29 ar
    64   64   63 1
    65   65   55 ar
    66   66   65 1
    67   67   18 ar
    68   68   67 1
    69   69   41 ar
    70   70   69 1
    71   71   48 ar
    72   72   71 1
    73   73   63 ar
    74   74   73 1
    75   75   71 ar
    76   76   57 ar
    77   77   76 1
    78   78    1 ar
    79   79   50 1
    80   80   79 1
    81   81   79 1
    82   82   79 1
    83   83   75 1
    84   84   83 1
    85   85   83 1
    86   86   83 1
    87    2   78 ar
    88    9   78 ar
    89   33   37 ar
    90   35   39 ar
    91   44   51 ar
    92   50   53 ar
    93   59   69 ar
    94   61   65 ar
    95   67   73 ar
    96   75   76 ar
@<TRIPOS>SUBSTRUCTURE
     1 RES1 1

@<TRIPOS>CRYSIN
  16.0670   15.8650   15.3360  90.0000 116.7440  90.0000  14 1

