# MOL2 file generated by ConQuest
# Please check atom types

@<TRIPOS>MOLECULE
LEWWES
   172   192     2
SMALL
NO_CHARGES
****
Generated from CSD

@<TRIPOS>ATOM
      1 C1         5.1623    8.7154   22.0993 C.ar      1 RES1    0.0000
      2 C2         6.4694    9.4054   22.1737 C.ar      1 RES1    0.0000
      3 C3         4.4631    8.4460   20.8762 C.ar      1 RES1    0.0000
      4 C4         7.3121    9.6454   21.0688 C.ar      1 RES1    0.0000
      5 H1         7.0697    9.3117   20.2352 H         1 RES1    0.0000
      6 C5         4.9321    8.9799   19.5557 C.ar      1 RES1    0.0000
      7 C6         5.1522    7.3925   25.6364 C.ar      1 RES1    0.0000
      8 C7         5.5453    8.1813   18.6000 C.ar      1 RES1    0.0000
      9 H2         5.6414    7.2699   18.7587 H         1 RES1    0.0000
     10 C8         6.9182    9.8524   23.4513 C.ar      1 RES1    0.0000
     11 C9         4.5600    8.2812   23.3021 C.ar      1 RES1    0.0000
     12 C10        8.4835   10.3610   21.1891 C.ar      1 RES1    0.0000
     13 H3         9.0282   10.4814   20.4449 H         1 RES1    0.0000
     14 C11        5.2150   10.8643   18.0693 C.ar      1 RES1    0.0000
     15 H4         5.0791   11.7667   17.8903 H         1 RES1    0.0000
     16 C12        4.7584   10.3358   19.2725 C.ar      1 RES1    0.0000
     17 H5         4.3356   10.8878   19.8900 H         1 RES1    0.0000
     18 C13        5.8717   10.0775   17.1260 C.ar      1 RES1    0.0000
     19 C14        5.3414    8.3204   24.5393 C.ar      1 RES1    0.0000
     20 C15        6.0190    8.7212   17.4100 C.ar      1 RES1    0.0000
     21 H6         6.4418    8.1682   16.7932 H         1 RES1    0.0000
     22 C16        6.3306    9.2989   24.6598 C.ar      1 RES1    0.0000
     23 C17        8.0850   10.6467   23.5212 C.ar      1 RES1    0.0000
     24 H7         8.3369   11.0060   24.3412 H         1 RES1    0.0000
     25 C18        4.5530    6.1249   25.4715 C.ar      1 RES1    0.0000
     26 H8         4.2347    5.8738   24.6345 H         1 RES1    0.0000
     27 C19        6.8151    9.6261   25.9706 C.ar      1 RES1    0.0000
     28 H9         7.4073   10.3354   26.0752 H         1 RES1    0.0000
     29 C20        8.8602   10.9049   22.4138 C.ar      1 RES1    0.0000
     30 H10        9.6218   11.4338   22.4826 H         1 RES1    0.0000
     31 C21        4.4336    5.2539   26.5328 C.ar      1 RES1    0.0000
     32 H11        4.0466    4.4182   26.4033 H         1 RES1    0.0000
     33 C22        5.6686    7.7282   26.9202 C.ar      1 RES1    0.0000
     34 C23        6.4236    8.9188   27.0580 C.ar      1 RES1    0.0000
     35 H12        6.6544    9.2192   27.9074 H         1 RES1    0.0000
     36 C24        5.4941    6.8277   27.9984 C.ar      1 RES1    0.0000
     37 H13        5.7951    7.0653   28.8458 H         1 RES1    0.0000
     38 C25        4.8941    5.6219   27.8133 C.ar      1 RES1    0.0000
     39 H14        4.7868    5.0404   28.5311 H         1 RES1    0.0000
     40 C26        6.3802   10.6580   15.8314 C.3       1 RES1    0.0000
     41 H15        5.6578   10.7208   15.2027 H         1 RES1    0.0000
     42 H16        7.0672   10.0903   15.4741 H         1 RES1    0.0000
     43 H17        6.7409   11.5332   15.9929 H         1 RES1    0.0000
     44 C27        6.6244   13.9188   19.0882 C.ar      2 RES2    0.0000
     45 C28        6.2670   14.5194   17.8500 C.ar      2 RES2    0.0000
     46 C29        3.5405   14.5862   21.1967 C.ar      2 RES2    0.0000
     47 C30        5.6879   13.9412   20.2053 C.ar      2 RES2    0.0000
     48 C31        4.4382   15.7300   16.5142 C.ar      2 RES2    0.0000
     49 C32        4.9894   15.2462   17.7486 C.ar      2 RES2    0.0000
     50 C33        4.5251   14.7176   20.1419 C.ar      2 RES2    0.0000
     51 C34        3.8987   13.9052   22.3979 C.ar      2 RES2    0.0000
     52 C35        4.3235   15.5750   18.9533 C.ar      2 RES2    0.0000
     53 C36        2.1947   15.0078   21.0923 C.ar      2 RES2    0.0000
     54 H18        1.9006   15.3893   20.2967 H         2 RES2    0.0000
     55 C37        5.1383   13.2218   22.4629 C.ar      2 RES2    0.0000
     56 H19        5.3869   12.7935   23.2500 H         2 RES2    0.0000
     57 C38        5.8461   14.1825   12.7205 C.ar      2 RES2    0.0000
     58 C39        5.9678   13.1858   21.3874 C.ar      2 RES2    0.0000
     59 H20        6.7335   12.6589   21.4206 H         2 RES2    0.0000
     60 C40        4.9336   15.2262   15.1843 C.ar      2 RES2    0.0000
     61 C41        5.5554   16.0360   14.2471 C.ar      2 RES2    0.0000
     62 H21        5.6694   16.9404   14.4315 H         2 RES2    0.0000
     63 C42        8.4524   13.8893   16.9792 C.ar      2 RES2    0.0000
     64 H22        9.0678   13.9008   16.2824 H         2 RES2    0.0000
     65 C43        7.2361   14.5026   16.8206 C.ar      2 RES2    0.0000
     66 H23        7.0435   14.9200   16.0121 H         2 RES2    0.0000
     67 C44        2.9823   13.8263   23.4707 C.ar      2 RES2    0.0000
     68 H24        3.2458   13.4267   24.2680 H         2 RES2    0.0000
     69 C45        4.7545   13.8881   14.8632 C.ar      2 RES2    0.0000
     70 H25        4.3289   13.3252   15.4691 H         2 RES2    0.0000
     71 C46        8.7734   13.2523   18.1670 C.ar      2 RES2    0.0000
     72 H26        9.5861   12.8100   18.2597 H         2 RES2    0.0000
     73 C47        6.0104   15.5281   13.0426 C.ar      2 RES2    0.0000
     74 H27        6.4324   16.0945   12.4379 H         2 RES2    0.0000
     75 C48        1.3117   14.8697   22.1325 C.ar      2 RES2    0.0000
     76 H28        0.4287   15.1410   22.0234 H         2 RES2    0.0000
     77 C49        7.8741   13.2830   19.2069 C.ar      2 RES2    0.0000
     78 H29        8.0977   12.8723   20.0108 H         2 RES2    0.0000
     79 C50        1.7203   14.3251   23.3577 C.ar      2 RES2    0.0000
     80 H30        1.1384   14.3047   24.0827 H         2 RES2    0.0000
     81 C51        5.2019   13.3747   13.6474 C.ar      2 RES2    0.0000
     82 H31        5.0670   12.4751   13.4537 H         2 RES2    0.0000
     83 C52        6.3314   13.6295   11.4025 C.3       2 RES2    0.0000
     84 H32        5.6158   13.6507   10.7631 H         2 RES2    0.0000
     85 H33        6.6248   12.7232   11.5241 H         2 RES2    0.0000
     86 H34        7.0631   14.1619   11.0818 H         2 RES2    0.0000
     87 C1A        2.5901    7.4257   22.0993 C.ar      1 RES1    0.0000
     88 C2A        1.2830    6.7357   22.1737 C.ar      1 RES1    0.0000
     89 C3A        3.2893    7.6951   20.8762 C.ar      1 RES1    0.0000
     90 C4A        0.4403    6.4957   21.0688 C.ar      1 RES1    0.0000
     91 H1A        0.6827    6.8294   20.2352 H         1 RES1    0.0000
     92 C5A        2.8203    7.1612   19.5557 C.ar      1 RES1    0.0000
     93 C6A        2.6002    8.7486   25.6364 C.ar      1 RES1    0.0000
     94 C7A        2.2071    7.9598   18.6000 C.ar      1 RES1    0.0000
     95 H2A        2.1110    8.8712   18.7587 H         1 RES1    0.0000
     96 C8A        0.8342    6.2887   23.4513 C.ar      1 RES1    0.0000
     97 C9A        3.1924    7.8599   23.3021 C.ar      1 RES1    0.0000
     98 C10A      -0.7311    5.7801   21.1891 C.ar      1 RES1    0.0000
     99 H3A       -1.2758    5.6597   20.4449 H         1 RES1    0.0000
    100 C11A       2.5374    5.2768   18.0693 C.ar      1 RES1    0.0000
    101 H4A        2.6733    4.3744   17.8903 H         1 RES1    0.0000
    102 C12A       2.9940    5.8053   19.2725 C.ar      1 RES1    0.0000
    103 H5A        3.4168    5.2533   19.8900 H         1 RES1    0.0000
    104 C13A       1.8807    6.0636   17.1260 C.ar      1 RES1    0.0000
    105 C14A       2.4110    7.8207   24.5393 C.ar      1 RES1    0.0000
    106 C15A       1.7334    7.4199   17.4100 C.ar      1 RES1    0.0000
    107 H6A        1.3106    7.9729   16.7932 H         1 RES1    0.0000
    108 C16A       1.4218    6.8422   24.6598 C.ar      1 RES1    0.0000
    109 C17A      -0.3326    5.4944   23.5212 C.ar      1 RES1    0.0000
    110 H7A       -0.5845    5.1351   24.3412 H         1 RES1    0.0000
    111 C18A       3.1994   10.0162   25.4715 C.ar      1 RES1    0.0000
    112 H8A        3.5177   10.2673   24.6345 H         1 RES1    0.0000
    113 C19A       0.9373    6.5150   25.9706 C.ar      1 RES1    0.0000
    114 H9A        0.3451    5.8057   26.0752 H         1 RES1    0.0000
    115 C20A      -1.1078    5.2362   22.4138 C.ar      1 RES1    0.0000
    116 H10A      -1.8694    4.7073   22.4826 H         1 RES1    0.0000
    117 C21A       3.3188   10.8872   26.5328 C.ar      1 RES1    0.0000
    118 H11A       3.7058   11.7229   26.4033 H         1 RES1    0.0000
    119 C22A       2.0838    8.4129   26.9202 C.ar      1 RES1    0.0000
    120 C23A       1.3288    7.2223   27.0580 C.ar      1 RES1    0.0000
    121 H12A       1.0980    6.9219   27.9074 H         1 RES1    0.0000
    122 C24A       2.2583    9.3134   27.9984 C.ar      1 RES1    0.0000
    123 H13A       1.9573    9.0758   28.8458 H         1 RES1    0.0000
    124 C25A       2.8583   10.5192   27.8133 C.ar      1 RES1    0.0000
    125 H14A       2.9656   11.1007   28.5311 H         1 RES1    0.0000
    126 C26A       1.3722    5.4831   15.8314 C.3       1 RES1    0.0000
    127 H15A       2.0946    5.4203   15.2027 H         1 RES1    0.0000
    128 H16A       0.6852    6.0508   15.4741 H         1 RES1    0.0000
    129 H17A       1.0115    4.6079   15.9929 H         1 RES1    0.0000
    130 C27A       1.1280   18.3634   19.0882 C.ar      2 RES2    0.0000
    131 C28A       1.4854   17.7628   17.8500 C.ar      2 RES2    0.0000
    132 C29A       4.2119   17.6960   21.1967 C.ar      2 RES2    0.0000
    133 C30A       2.0645   18.3410   20.2053 C.ar      2 RES2    0.0000
    134 C31A       3.3142   16.5522   16.5142 C.ar      2 RES2    0.0000
    135 C32A       2.7630   17.0360   17.7486 C.ar      2 RES2    0.0000
    136 C33A       3.2273   17.5646   20.1419 C.ar      2 RES2    0.0000
    137 C34A       3.8537   18.3770   22.3979 C.ar      2 RES2    0.0000
    138 C35A       3.4289   16.7072   18.9533 C.ar      2 RES2    0.0000
    139 C36A       5.5577   17.2744   21.0923 C.ar      2 RES2    0.0000
    140 H18A       5.8518   16.8929   20.2967 H         2 RES2    0.0000
    141 C37A       2.6141   19.0604   22.4629 C.ar      2 RES2    0.0000
    142 H19A       2.3655   19.4887   23.2500 H         2 RES2    0.0000
    143 C38A       1.9063   18.0997   12.7205 C.ar      2 RES2    0.0000
    144 C39A       1.7846   19.0964   21.3874 C.ar      2 RES2    0.0000
    145 H20A       1.0189   19.6233   21.4206 H         2 RES2    0.0000
    146 C40A       2.8188   17.0560   15.1843 C.ar      2 RES2    0.0000
    147 C41A       2.1970   16.2462   14.2471 C.ar      2 RES2    0.0000
    148 H21A       2.0830   15.3418   14.4315 H         2 RES2    0.0000
    149 C42A      -0.7000   18.3929   16.9792 C.ar      2 RES2    0.0000
    150 H22A      -1.3154   18.3814   16.2824 H         2 RES2    0.0000
    151 C43A       0.5163   17.7796   16.8206 C.ar      2 RES2    0.0000
    152 H23A       0.7089   17.3622   16.0121 H         2 RES2    0.0000
    153 C44A       4.7701   18.4559   23.4707 C.ar      2 RES2    0.0000
    154 H24A       4.5066   18.8555   24.2680 H         2 RES2    0.0000
    155 C45A       2.9979   18.3941   14.8632 C.ar      2 RES2    0.0000
    156 H25A       3.4235   18.9570   15.4691 H         2 RES2    0.0000
    157 C46A      -1.0210   19.0299   18.1670 C.ar      2 RES2    0.0000
    158 H26A      -1.8337   19.4722   18.2597 H         2 RES2    0.0000
    159 C47A       1.7420   16.7541   13.0426 C.ar      2 RES2    0.0000
    160 H27A       1.3200   16.1877   12.4379 H         2 RES2    0.0000
    161 C48A       6.4407   17.4125   22.1325 C.ar      2 RES2    0.0000
    162 H28A       7.3237   17.1412   22.0234 H         2 RES2    0.0000
    163 C49A      -0.1217   18.9992   19.2069 C.ar      2 RES2    0.0000
    164 H29A      -0.3453   19.4099   20.0108 H         2 RES2    0.0000
    165 C50A       6.0321   17.9571   23.3577 C.ar      2 RES2    0.0000
    166 H30A       6.6140   17.9775   24.0827 H         2 RES2    0.0000
    167 C51A       2.5505   18.9075   13.6474 C.ar      2 RES2    0.0000
    168 H31A       2.6854   19.8071   13.4537 H         2 RES2    0.0000
    169 C52A       1.4210   18.6527   11.4025 C.3       2 RES2    0.0000
    170 H32A       2.1366   18.6315   10.7631 H         2 RES2    0.0000
    171 H33A       1.1276   19.5590   11.5241 H         2 RES2    0.0000
    172 H34A       0.6893   18.1203   11.0818 H         2 RES2    0.0000
@<TRIPOS>BOND
     1    1    2 ar
     2    2    4 ar
     3    3    1 ar
     4    4    5 1
     5    6    3 1
     6    7   19 ar
     7    8    6 ar
     8    9    8 1
     9   10    2 ar
    10   11    1 ar
    11   12    4 ar
    12   13   12 1
    13   14   15 1
    14   16    6 ar
    15   17   16 1
    16   18   14 ar
    17   19   11 ar
    18   20    8 ar
    19   21   20 1
    20   22   10 ar
    21   23   10 ar
    22   24   23 1
    23   25    7 ar
    24   26   25 1
    25   27   22 ar
    26   28   27 1
    27   29   12 ar
    28   30   29 1
    29   31   25 ar
    30   32   31 1
    31   33    7 ar
    32   34   27 ar
    33   35   34 1
    34   36   33 ar
    35   37   36 1
    36   38   31 ar
    37   39   38 1
    38   40   18 1
    39   41   40 1
    40   42   40 1
    41   43   40 1
    42   44   45 ar
    43   45   49 ar
    44   46   50 ar
    45   47   44 ar
    46   48   49 ar
    47   49   52 ar
    48   50   47 ar
    49   51   46 ar
    50   52   50 ar
    51   53   46 ar
    52   54   53 1
    53   55   51 ar
    54   56   55 1
    55   57   73 ar
    56   58   47 ar
    57   59   58 1
    58   60   48 1
    59   61   60 ar
    60   62   61 1
    61   63   64 1
    62   65   45 ar
    63   66   65 1
    64   67   51 ar
    65   68   67 1
    66   69   60 ar
    67   70   69 1
    68   71   63 ar
    69   72   71 1
    70   73   61 ar
    71   74   73 1
    72   75   53 ar
    73   76   75 1
    74   77   44 ar
    75   78   77 1
    76   79   67 ar
    77   80   79 1
    78   81   57 ar
    79   82   81 1
    80   83   57 1
    81   84   83 1
    82   85   83 1
    83   86   83 1
    84   87   88 ar
    85   88   90 ar
    86   89    3 ar
    87   90   91 1
    88   92   89 1
    89   93  105 ar
    90   94   92 ar
    91   95   94 1
    92   96   88 ar
    93   97   11 ar
    94   98   90 ar
    95   99   98 1
    96  100  101 1
    97  102   92 ar
    98  103  102 1
    99  104  100 ar
   100  105   97 ar
   101  106   94 ar
   102  107  106 1
   103  108   96 ar
   104  109   96 ar
   105  110  109 1
   106  111   93 ar
   107  112  111 1
   108  113  108 ar
   109  114  113 1
   110  115   98 ar
   111  116  115 1
   112  117  111 ar
   113  118  117 1
   114  119   93 ar
   115  120  113 ar
   116  121  120 1
   117  122  119 ar
   118  123  122 1
   119  124  117 ar
   120  125  124 1
   121  126  104 1
   122  127  126 1
   123  128  126 1
   124  129  126 1
   125  130  131 ar
   126  131  135 ar
   127  132  136 ar
   128  133  130 ar
   129  134   48 ar
   130  135  134 ar
   131  136  133 ar
   132  137  132 ar
   133  138   52 ar
   134  139  132 ar
   135  140  139 1
   136  141  137 ar
   137  142  141 1
   138  143  159 ar
   139  144  133 ar
   140  145  144 1
   141  146  134 1
   142  147  146 ar
   143  148  147 1
   144  149  150 1
   145  151  131 ar
   146  152  151 1
   147  153  137 ar
   148  154  153 1
   149  155  146 ar
   150  156  155 1
   151  157  149 ar
   152  158  157 1
   153  159  147 ar
   154  160  159 1
   155  161  139 ar
   156  162  161 1
   157  163  130 ar
   158  164  163 1
   159  165  153 ar
   160  166  165 1
   161  167  143 ar
   162  168  167 1
   163  169  143 1
   164  170  169 1
   165  171  169 1
   166  172  169 1
   167   14   16 ar
   168   18   20 ar
   169   19   22 ar
   170   23   29 ar
   171   33   34 ar
   172   36   38 ar
   173   55   58 ar
   174   63   65 ar
   175   69   81 ar
   176   71   77 ar
   177   75   79 ar
   178   87   89 ar
   179   87   97 ar
   180  100  102 ar
   181  104  106 ar
   182  105  108 ar
   183  109  115 ar
   184  119  120 ar
   185  122  124 ar
   186  135  138 ar
   187  136  138 ar
   188  141  144 ar
   189  149  151 ar
   190  155  167 ar
   191  157  163 ar
   192  161  165 ar
@<TRIPOS>SUBSTRUCTURE
     1 RES1 1
     2 RES2 44

@<TRIPOS>CRYSIN
   7.7524   16.1411   26.9760  90.0000  90.0000  90.0000  18 1

