# MOL2 file generated by ConQuest
# Please check atom types

@<TRIPOS>MOLECULE
LEWWIW
   172   192     2
SMALL
NO_CHARGES
****
Generated from CSD

@<TRIPOS>ATOM
      1 C1         5.2017   16.0334   23.0286 C.ar      1 RES1    0.0000
      2 C2         3.3466   15.0824   20.6227 C.ar      1 RES1    0.0000
      3 C3         5.1546   13.6424   23.6001 C.ar      1 RES1    0.0000
      4 C4         4.6583   14.7036   22.8263 C.ar      1 RES1    0.0000
      5 C5         4.5855   17.2144   22.6067 C.ar      1 RES1    0.0000
      6 H1         3.7261   17.1738   22.2526 H         1 RES1    0.0000
      7 C6         4.5057   12.3319   23.5384 C.ar      1 RES1    0.0000
      8 C7         4.1402   17.2028   19.5191 C.ar      1 RES1    0.0000
      9 H2         3.2539   17.4735   19.4491 H         1 RES1    0.0000
     10 C8         2.6573   13.3795   22.2309 C.ar      1 RES1    0.0000
     11 C9        -0.3337   14.6591   20.2304 C.ar      1 RES1    0.0000
     12 C10        2.1112   14.8698   19.9413 C.ar      1 RES1    0.0000
     13 C11        1.3132   13.4820   21.7662 C.ar      1 RES1    0.0000
     14 C12        6.7455   16.3891   19.6245 C.ar      1 RES1    0.0000
     15 H3         7.6281   16.0945   19.6269 H         1 RES1    0.0000
     16 C13        0.5971   14.9858   17.9573 C.ar      1 RES1    0.0000
     17 C14        4.4263   15.9445   20.0517 C.ar      1 RES1    0.0000
     18 C15        1.0352   14.3479   20.6962 C.ar      1 RES1    0.0000
     19 C16        6.4267   16.1668   23.7604 C.ar      1 RES1    0.0000
     20 C17        3.5458   14.4446   21.8793 C.ar      1 RES1    0.0000
     21 C18        1.9089   15.0573   18.4842 C.ar      1 RES1    0.0000
     22 C19        5.1355   18.0475   19.0945 C.ar      1 RES1    0.0000
     23 H4         4.9133   18.8840   18.7527 H         1 RES1    0.0000
     24 C20       -1.4290   14.8621   21.1596 C.ar      1 RES1    0.0000
     25 C21        6.2800   13.8570   24.4371 C.ar      1 RES1    0.0000
     26 H5         6.5821   13.1638   24.9787 H         1 RES1    0.0000
     27 C22        3.2316   12.2063   22.9097 C.ar      1 RES1    0.0000
     28 C23        0.2921   12.5600   22.3430 C.ar      1 RES1    0.0000
     29 C24        6.9232   15.0457   24.4657 C.ar      1 RES1    0.0000
     30 H6         7.7083   15.1282   24.9574 H         1 RES1    0.0000
     31 C25        5.7447   15.5405   20.0685 C.ar      1 RES1    0.0000
     32 H7         5.9640   14.6918   20.3806 H         1 RES1    0.0000
     33 C26        6.4597   17.6725   19.1706 C.ar      1 RES1    0.0000
     34 C27        7.0531   17.4270   23.8098 C.ar      1 RES1    0.0000
     35 H8         7.8765   17.5077   24.2336 H         1 RES1    0.0000
     36 C28        3.2874    9.8230   23.3532 C.ar      1 RES1    0.0000
     37 H9         2.8903    8.9864   23.2777 H         1 RES1    0.0000
     38 C29        4.5075    9.9486   24.0144 C.ar      1 RES1    0.0000
     39 H10        4.9137    9.2062   24.4025 H         1 RES1    0.0000
     40 C30       -0.5518   14.8795   18.8767 C.ar      1 RES1    0.0000
     41 C31        5.1003   11.1818   24.0853 C.ar      1 RES1    0.0000
     42 H11        5.9243   11.2612   24.5076 H         1 RES1    0.0000
     43 C32       -2.9564   14.9471   19.2467 C.ar      1 RES1    0.0000
     44 H12       -3.8222   14.9222   18.9082 H         1 RES1    0.0000
     45 C33       -1.2229   15.1462   22.5240 C.ar      1 RES1    0.0000
     46 H13       -0.3572   15.1888   22.8602 H         1 RES1    0.0000
     47 C34       -2.7378   14.9645   20.6453 C.ar      1 RES1    0.0000
     48 C35        2.6645   10.9209   22.8153 C.ar      1 RES1    0.0000
     49 H14        1.8525   10.8118   22.3754 H         1 RES1    0.0000
     50 C36        6.4913   18.5191   23.2587 C.ar      1 RES1    0.0000
     51 H15        6.9482   19.3288   23.2464 H         1 RES1    0.0000
     52 C37        0.4061   15.0167   16.5598 C.ar      1 RES1    0.0000
     53 H16       -0.4548   14.9748   16.2114 H         1 RES1    0.0000
     54 C38        2.9766   15.1288   17.5674 C.ar      1 RES1    0.0000
     55 H17        3.8504   15.1682   17.8833 H         1 RES1    0.0000
     56 C39        0.1113   12.4459   23.7232 C.ar      1 RES1    0.0000
     57 H18        0.5500   13.0354   24.2937 H         1 RES1    0.0000
     58 C40        5.2020   18.4186   22.6972 C.ar      1 RES1    0.0000
     59 H19        4.7708   19.1828   22.3901 H         1 RES1    0.0000
     60 C41       -0.4276   11.6921   21.5269 C.ar      1 RES1    0.0000
     61 H20       -0.3716   11.7804   20.6037 H         1 RES1    0.0000
     62 C42       -1.8866   14.9645   18.3939 C.ar      1 RES1    0.0000
     63 H21       -2.0364   15.0336   17.4793 H         1 RES1    0.0000
     64 C43       -0.7139   11.4660   24.2532 C.ar      1 RES1    0.0000
     65 H22       -0.8311   11.4196   25.1741 H         1 RES1    0.0000
     66 C44       -2.2917   15.3608   23.3584 C.ar      1 RES1    0.0000
     67 H23       -2.1394   15.5196   24.2612 H         1 RES1    0.0000
     68 C45        1.4762   15.1056   15.7122 C.ar      1 RES1    0.0000
     69 H24        1.3381   15.1462   14.7938 H         1 RES1    0.0000
     70 C46       -1.3680   10.5536   23.4424 C.ar      1 RES1    0.0000
     71 C47        2.7424   15.1385   16.2108 C.ar      1 RES1    0.0000
     72 H25        3.4637   15.1674   15.6237 H         1 RES1    0.0000
     73 C48       -1.2292   10.6967   22.0701 C.ar      1 RES1    0.0000
     74 H26       -1.6811   10.1138   21.5042 H         1 RES1    0.0000
     75 C49       -3.8214   15.1423   21.5374 C.ar      1 RES1    0.0000
     76 H27       -4.6935   15.1218   21.2165 H         1 RES1    0.0000
     77 C50       -3.5928   15.3453   22.8809 C.ar      1 RES1    0.0000
     78 H28       -4.3058   15.4720   23.4632 H         1 RES1    0.0000
     79 C51        7.5993   18.5887   18.7744 C.3       1 RES1    0.0000
     80 H29        7.8589   19.1237   19.5278 H         1 RES1    0.0000
     81 H30        7.3154   19.1619   18.0578 H         1 RES1    0.0000
     82 H31        8.3475   18.0613   18.4836 H         1 RES1    0.0000
     83 C52       -2.2339    9.4635   24.0144 C.3       1 RES1    0.0000
     84 H32       -1.8485    8.6079   23.8115 H         1 RES1    0.0000
     85 H33       -3.1126    9.5175   23.6322 H         1 RES1    0.0000
     86 H34       -2.2932    9.5685   24.9677 H         1 RES1    0.0000
     87 C53       10.6524   14.6243   14.6039 C.ar      2 RES2    0.0000
     88 C54        8.5859   13.6733   15.8138 C.ar      2 RES2    0.0000
     89 C55       11.7194   11.9917   14.8219 C.ar      2 RES2    0.0000
     90 C56       11.4700   11.0407   17.6251 C.ar      2 RES2    0.0000
     91 C57       10.6576   12.4382   15.7435 C.ar      2 RES2    0.0000
     92 C58        7.6271   14.6881   15.2738 C.ar      2 RES2    0.0000
     93 C59        8.1738   12.8016   16.8471 C.ar      2 RES2    0.0000
     94 C60        5.7474   12.3338   16.1714 C.ar      2 RES2    0.0000
     95 C61        8.8440   11.9936   19.0806 C.ar      2 RES2    0.0000
     96 C62        9.9138   13.6038   15.3535 C.ar      2 RES2    0.0000
     97 C63        9.1680   12.1618   17.6461 C.ar      2 RES2    0.0000
     98 C64        6.7525   12.5426   17.1872 C.ar      2 RES2    0.0000
     99 C65       12.3610   12.9350   14.0300 C.ar      2 RES2    0.0000
    100 C66        6.4257   12.2855   18.5275 C.ar      2 RES2    0.0000
    101 C67       10.3992   11.8583   17.0085 C.ar      2 RES2    0.0000
    102 C68        7.5083   12.1676   19.5112 C.ar      2 RES2    0.0000
    103 C69       12.6150   15.3279   13.3585 C.ar      2 RES2    0.0000
    104 H35       13.4100   15.1113   12.9276 H         2 RES2    0.0000
    105 C70       12.7849   11.5008   17.6183 C.ar      2 RES2    0.0000
    106 H36       12.9700   12.3398   17.2615 H         2 RES2    0.0000
    107 C71        7.2155   12.1425   20.8893 C.ar      2 RES2    0.0000
    108 H37        6.3321   12.2199   21.1702 H         2 RES2    0.0000
    109 C72       12.0349   10.5788   14.6669 C.ar      2 RES2    0.0000
    110 C73       11.8713   14.3035   13.9920 C.ar      2 RES2    0.0000
    111 C74        5.0606   12.1289   18.8715 C.ar      2 RES2    0.0000
    112 H38        4.8267   12.0495   19.7682 H         2 RES2    0.0000
    113 C75       10.2740   15.9889   14.6390 C.ar      2 RES2    0.0000
    114 H39        9.4942   16.2284   15.0839 H         2 RES2    0.0000
    115 C76        4.3928   12.1212   16.5519 C.ar      2 RES2    0.0000
    116 C77       12.1889   16.6326   13.3690 C.ar      2 RES2    0.0000
    117 H40       12.6830   17.2875   12.9286 H         2 RES2    0.0000
    118 C78       11.1910    9.5350   15.0922 C.ar      2 RES2    0.0000
    119 H41       10.3959    9.7421   15.5291 H         2 RES2    0.0000
    120 C79        6.8788   15.5096   16.1242 C.ar      2 RES2    0.0000
    121 H42        6.9673   15.4160   17.0464 H         2 RES2    0.0000
    122 C80       13.1667   10.2154   13.8912 C.ar      2 RES2    0.0000
    123 C81       11.2343    9.7708   18.1945 C.ar      2 RES2    0.0000
    124 H43       10.3691    9.4317   18.2266 H         2 RES2    0.0000
    125 C82        9.8244   11.8487   20.0680 C.ar      2 RES2    0.0000
    126 H44       10.7103   11.7388   19.8055 H         2 RES2    0.0000
    127 C83       13.8115   10.7469   18.1263 C.ar      2 RES2    0.0000
    128 H45       14.6778   11.0858   18.1011 H         2 RES2    0.0000
    129 C84        7.4584   14.8756   13.9096 C.ar      2 RES2    0.0000
    130 H46        7.9571   14.3585   13.3176 H         2 RES2    0.0000
    131 C85        9.5322   11.8583   21.4028 C.ar      2 RES2    0.0000
    132 H47       10.2129   11.7698   22.0295 H         2 RES2    0.0000
    133 C86        6.0724   12.1811   14.7991 C.ar      2 RES2    0.0000
    134 H48        6.9531   12.2934   14.5208 H         2 RES2    0.0000
    135 C87       11.5185    8.2013   14.8726 C.ar      2 RES2    0.0000
    136 H49       10.9610    7.5322   15.1983 H         2 RES2    0.0000
    137 C88       12.2893    9.0266   18.7062 C.ar      2 RES2    0.0000
    138 H50       12.1135    8.1934   19.0812 H         2 RES2    0.0000
    139 C89        6.0182   16.4490   15.6204 C.ar      2 RES2    0.0000
    140 H51        5.5412   16.9866   16.2095 H         2 RES2    0.0000
    141 C90       11.0266   16.9728   14.0303 C.ar      2 RES2    0.0000
    142 H52       10.7524   17.8606   14.0647 H         2 RES2    0.0000
    143 C91       12.6539    7.8592   14.1798 C.ar      2 RES2    0.0000
    144 H53       12.8658    6.9660   14.0355 H         2 RES2    0.0000
    145 C92        8.2110   12.0033   21.8234 C.ar      2 RES2    0.0000
    146 H54        8.0067   12.0067   22.7315 H         2 RES2    0.0000
    147 C93        5.8368   16.6191   14.2507 C.ar      2 RES2    0.0000
    148 C94        6.5641   15.8150   13.4005 C.ar      2 RES2    0.0000
    149 H55        6.4577   15.9013   12.4797 H         2 RES2    0.0000
    150 C95       13.4963   12.5097   13.2641 C.ar      2 RES2    0.0000
    151 H56       13.9637   13.1414   12.7663 H         2 RES2    0.0000
    152 C96        4.0909   12.0922   17.9400 C.ar      2 RES2    0.0000
    153 H57        3.2028   12.0470   18.2107 H         2 RES2    0.0000
    154 C97       13.9085   11.2301   13.2405 C.ar      2 RES2    0.0000
    155 H58       14.6917   11.0080   12.7919 H         2 RES2    0.0000
    156 C98        5.1103   11.8719   13.8781 C.ar      2 RES2    0.0000
    157 H59        5.3463   11.7552   12.9849 H         2 RES2    0.0000
    158 C99       13.4648    8.8450   13.7128 C.ar      2 RES2    0.0000
    159 H60       14.2417    8.6098   13.2588 H         2 RES2    0.0000
    160 C100       3.4290   11.8429   15.5784 C.ar      2 RES2    0.0000
    161 H61        2.5406   11.7331   15.8294 H         2 RES2    0.0000
    162 C101      13.5940    9.4905   18.6747 C.ar      2 RES2    0.0000
    163 C102       3.7749   11.7288   14.2664 C.ar      2 RES2    0.0000
    164 H62        3.1209   11.5575   13.6282 H         2 RES2    0.0000
    165 C103      14.7338    8.6923   19.2808 C.3       2 RES2    0.0000
    166 H63       15.1489    8.1589   18.5992 H         2 RES2    0.0000
    167 H64       14.3915    8.1191   19.9711 H         2 RES2    0.0000
    168 H65       15.3813    9.2932   19.6561 H         2 RES2    0.0000
    169 C104       4.8572   17.6416   13.7102 C.3       2 RES2    0.0000
    170 H66        3.9847   17.4720   14.0717 H         2 RES2    0.0000
    171 H67        4.8240   17.5755   12.7518 H         2 RES2    0.0000
    172 H68        5.1427   18.5227   13.9596 H         2 RES2    0.0000
@<TRIPOS>BOND
     1    1    4 ar
     2    2   12 ar
     3    3    4 ar
     4    4   20 1
     5    5    1 ar
     6    6    5 1
     7    7    3 1
     8    8    9 1
     9   10   13 ar
    10   11   18 1
    11   12   18 ar
    12   13   18 ar
    13   14   15 1
    14   16   21 ar
    15   17    2 1
    16   19    1 ar
    17   20    2 ar
    18   21   12 1
    19   22    8 ar
    20   23   22 1
    21   24   11 ar
    22   25    3 ar
    23   26   25 1
    24   27    7 ar
    25   28   13 1
    26   29   19 ar
    27   30   29 1
    28   31   14 ar
    29   32   31 1
    30   33   14 ar
    31   34   19 ar
    32   35   34 1
    33   36   37 1
    34   38   36 ar
    35   39   38 1
    36   40   11 ar
    37   41    7 ar
    38   42   41 1
    39   43   44 1
    40   45   24 ar
    41   46   45 1
    42   47   24 ar
    43   48   27 ar
    44   49   48 1
    45   50   34 ar
    46   51   50 1
    47   52   16 ar
    48   53   52 1
    49   54   21 ar
    50   55   54 1
    51   56   28 ar
    52   57   56 1
    53   58    5 ar
    54   59   58 1
    55   60   28 ar
    56   61   60 1
    57   62   40 ar
    58   63   62 1
    59   64   56 ar
    60   65   64 1
    61   66   45 ar
    62   67   66 1
    63   68   52 ar
    64   69   68 1
    65   70   64 ar
    66   71   54 ar
    67   72   71 1
    68   73   60 ar
    69   74   73 1
    70   75   47 ar
    71   76   75 1
    72   77   66 ar
    73   78   77 1
    74   79   33 1
    75   80   79 1
    76   81   79 1
    77   82   79 1
    78   83   70 1
    79   84   83 1
    80   85   83 1
    81   86   83 1
    82   87   96 1
    83   88   92 1
    84   89   91 1
    85   90  101 1
    86   91   96 ar
    87   92  120 ar
    88   93   88 ar
    89   94   98 ar
    90   95   97 1
    91   96   88 ar
    92   97   93 ar
    93   98   93 1
    94   99   89 ar
    95  100   98 ar
    96  101   91 ar
    97  102   95 ar
    98  103  104 1
    99  105   90 ar
   100  106  105 1
   101  107  102 ar
   102  108  107 1
   103  109   89 ar
   104  110   87 ar
   105  111  100 ar
   106  112  111 1
   107  113   87 ar
   108  114  113 1
   109  115   94 ar
   110  116  103 ar
   111  117  116 1
   112  118  109 ar
   113  119  118 1
   114  120  121 1
   115  122  109 ar
   116  123   90 ar
   117  124  123 1
   118  125   95 ar
   119  126  125 1
   120  127  105 ar
   121  128  127 1
   122  129   92 ar
   123  130  129 1
   124  131  125 ar
   125  132  131 1
   126  133   94 ar
   127  134  133 1
   128  135  118 ar
   129  136  135 1
   130  137  123 ar
   131  138  137 1
   132  139  120 ar
   133  140  139 1
   134  141  113 ar
   135  142  141 1
   136  143  135 ar
   137  144  143 1
   138  145  107 ar
   139  146  145 1
   140  147  139 ar
   141  148  129 ar
   142  149  148 1
   143  150   99 ar
   144  151  150 1
   145  152  111 ar
   146  153  152 1
   147  154  122 ar
   148  155  154 1
   149  156  133 ar
   150  157  156 1
   151  158  122 ar
   152  159  158 1
   153  160  115 ar
   154  161  160 1
   155  162  127 ar
   156  163  156 ar
   157  164  163 1
   158  165  162 1
   159  166  165 1
   160  167  165 1
   161  168  165 1
   162  169  147 1
   163  170  169 1
   164  171  169 1
   165  172  169 1
   166    8   17 ar
   167   10   20 ar
   168   10   27 1
   169   16   40 1
   170   17   31 ar
   171   22   33 ar
   172   25   29 ar
   173   36   48 ar
   174   38   41 ar
   175   43   47 ar
   176   43   62 ar
   177   50   58 ar
   178   68   71 ar
   179   70   73 ar
   180   75   77 ar
   181   97  101 ar
   182   99  110 1
   183  100  102 1
   184  103  110 ar
   185  115  152 ar
   186  116  141 ar
   187  131  145 ar
   188  137  162 ar
   189  143  158 ar
   190  147  148 ar
   191  150  154 ar
   192  160  163 ar
@<TRIPOS>SUBSTRUCTURE
     1 RES1 1
     2 RES2 87

@<TRIPOS>CRYSIN
  13.8998   19.3290   26.7930  90.0000 101.6660  90.0000 231 1

