# MOL2 file generated by ConQuest
# Please check atom types

@<TRIPOS>MOLECULE
LEZGEC
   116   126     2
SMALL
NO_CHARGES
****
Generated from CSD

@<TRIPOS>ATOM
      1 C1         7.7645    1.7230    6.5975 C.ar      1 RES1    0.0000
      2 C2         6.5934    1.8900    5.8797 C.ar      1 RES1    0.0000
      3 C3         5.3280    1.5702    6.4732 C.ar      1 RES1    0.0000
      4 C4         5.2612    1.0776    7.7678 C.ar      1 RES1    0.0000
      5 C5         6.4557    0.9438    8.5387 C.ar      1 RES1    0.0000
      6 C6         6.4344    0.4370    9.8671 C.ar      1 RES1    0.0000
      7 C7         7.5868    0.3209   10.5891 C.ar      1 RES1    0.0000
      8 C8         8.8117    0.7070   10.0356 C.ar      1 RES1    0.0000
      9 C9         8.8827    1.1771    8.7508 C.ar      1 RES1    0.0000
     10 C10        7.7121    1.2884    7.9594 C.ar      1 RES1    0.0000
     11 C11        9.0825    1.9362    5.9275 C.ar      1 RES1    0.0000
     12 C12        9.9262    0.8443    5.6870 C.ar      1 RES1    0.0000
     13 C13       11.1008    1.0125    4.9595 C.ar      1 RES1    0.0000
     14 C14       11.4494    2.2571    4.4726 C.ar      1 RES1    0.0000
     15 C15       10.6351    3.3501    4.7281 C.ar      1 RES1    0.0000
     16 C16        9.4582    3.1831    5.4556 C.ar      1 RES1    0.0000
     17 C17        6.6240    2.3767    4.4676 C.ar      1 RES1    0.0000
     18 C18        7.1799    1.6224    3.4415 C.ar      1 RES1    0.0000
     19 C19        7.1651    2.0795    2.1326 C.ar      1 RES1    0.0000
     20 C20        6.6077    3.3181    1.8401 C.ar      1 RES1    0.0000
     21 C21        6.0674    4.0760    2.8528 C.ar      1 RES1    0.0000
     22 C22        6.0727    3.6189    4.1579 C.ar      1 RES1    0.0000
     23 C23        4.0782    1.7396    5.6735 C.ar      1 RES1    0.0000
     24 C24        3.8562    0.9770    4.5263 C.ar      1 RES1    0.0000
     25 C25        2.6800    1.1226    3.8043 C.ar      1 RES1    0.0000
     26 C26        1.7263    2.0333    4.1949 C.ar      1 RES1    0.0000
     27 C27        1.9456    2.8184    5.3186 C.ar      1 RES1    0.0000
     28 C28        3.1129    2.6656    6.0536 C.ar      1 RES1    0.0000
     29 C29        3.9530    0.6158    8.3286 C.ar      1 RES1    0.0000
     30 C30        3.3807   -0.5542    7.8326 C.ar      1 RES1    0.0000
     31 C31        2.1561   -0.9876    8.3158 C.ar      1 RES1    0.0000
     32 C32        1.4888   -0.2724    9.2970 C.ar      1 RES1    0.0000
     33 C33        2.0531    0.8763    9.7949 C.ar      1 RES1    0.0000
     34 C34        3.2857    1.3192    9.3210 C.ar      1 RES1    0.0000
     35 H1         5.6086    0.1764   10.2577 H         1 RES1    0.0000
     36 H2         7.5580   -0.0249   11.4740 H         1 RES1    0.0000
     37 H3         9.6022    0.6418   10.5558 H         1 RES1    0.0000
     38 H4         9.7229    1.4305    8.3880 H         1 RES1    0.0000
     39 H5         9.6965   -0.0142    6.0221 H         1 RES1    0.0000
     40 H6        11.6678    0.2653    4.7966 H         1 RES1    0.0000
     41 H7        12.2447    2.3637    3.9654 H         1 RES1    0.0000
     42 H8        10.8784    4.2098    4.4078 H         1 RES1    0.0000
     43 H9         8.9052    3.9363    5.6296 H         1 RES1    0.0000
     44 H10        7.5772    0.7816    3.6395 H         1 RES1    0.0000
     45 H11        7.5352    1.5466    1.4384 H         1 RES1    0.0000
     46 H12        6.5996    3.6402    0.9460 H         1 RES1    0.0000
     47 H13        5.6870    4.9227    2.6528 H         1 RES1    0.0000
     48 H14        5.6981    4.1554    4.8484 H         1 RES1    0.0000
     49 H15        4.5136    0.3564    4.2356 H         1 RES1    0.0000
     50 H16        2.5329    0.5885    3.0323 H         1 RES1    0.0000
     51 H17        0.9197    2.1245    3.7006 H         1 RES1    0.0000
     52 H18        1.2996    3.4626    5.5834 H         1 RES1    0.0000
     53 H19        3.2558    3.1997    6.8255 H         1 RES1    0.0000
     54 H20        3.8333   -1.0563    7.1625 H         1 RES1    0.0000
     55 H21        1.7679   -1.7846    7.9696 H         1 RES1    0.0000
     56 H22        0.6500   -0.5755    9.6246 H         1 RES1    0.0000
     57 H23        1.5976    1.3737   10.4632 H         1 RES1    0.0000
     58 H24        3.6723    2.1079    9.6839 H         1 RES1    0.0000
     59 C35       15.0020    2.3127    3.2319 C.ar      2 RES2    0.0000
     60 C36       14.8912    3.5076    3.9145 C.ar      2 RES2    0.0000
     61 C37       14.9107   -1.3737    3.9313 C.ar      2 RES2    0.0000
     62 C38       15.0272   -0.1824    3.2641 C.ar      2 RES2    0.0000
     63 C39       14.9088    1.0658    3.9230 C.ar      2 RES2    0.0000
     64 C40       14.9280    4.7972    3.1658 C.ar      2 RES2    0.0000
     65 C41       16.0682    5.1726    2.4418 C.ar      2 RES2    0.0000
     66 C42       16.0559    6.3390    1.6865 C.ar      2 RES2    0.0000
     67 C43       14.9261    7.1253    1.6309 C.ar      2 RES2    0.0000
     68 C44       13.8020    6.7748    2.3603 C.ar      2 RES2    0.0000
     69 C45       13.8097    5.6214    3.1323 C.ar      2 RES2    0.0000
     70 C46       15.1741    2.2654    1.7424 C.ar      2 RES2    0.0000
     71 C47       16.4025    1.9137    1.1866 C.ar      2 RES2    0.0000
     72 C48       16.5334    1.7870   -0.1907 C.ar      2 RES2    0.0000
     73 C49       15.4666    2.0037   -1.0145 C.ar      2 RES2    0.0000
     74 C50       14.2492    2.3755   -0.4758 C.ar      2 RES2    0.0000
     75 C51       14.0965    2.4998    0.9016 C.ar      2 RES2    0.0000
     76 H25       14.9940   -2.1955    3.4581 H         2 RES2    0.0000
     77 H26       15.1936   -0.1930    2.3289 H         2 RES2    0.0000
     78 H27       16.8472    4.6314    2.4677 H         2 RES2    0.0000
     79 H28       16.8332    6.5960    1.2033 H         2 RES2    0.0000
     80 H29       14.9180    7.9081    1.0922 H         2 RES2    0.0000
     81 H30       13.0263    7.3231    2.3344 H         2 RES2    0.0000
     82 H31       13.0408    5.3917    3.6414 H         2 RES2    0.0000
     83 H32       17.1535    1.7621    1.7494 H         2 RES2    0.0000
     84 H33       17.3754    1.5454   -0.5646 H         2 RES2    0.0000
     85 H34       15.5602    1.9006   -1.9531 H         2 RES2    0.0000
     86 H35       13.5116    2.5460   -1.0497 H         2 RES2    0.0000
     87 H36       13.2559    2.7473    1.2663 H         2 RES2    0.0000
     88 C36B      14.6866    3.5076    5.3418 C.ar      2 RES2    0.0000
     89 C39B      14.6690    1.0658    5.3333 C.ar      2 RES2    0.0000
     90 C37B      14.6672   -1.3737    5.3249 C.ar      2 RES2    0.0000
     91 C35B      14.5758    2.3127    6.0243 C.ar      2 RES2    0.0000
     92 C40B      14.6498    4.7972    6.0904 C.ar      2 RES2    0.0000
     93 C38B      14.5506   -0.1824    5.9921 C.ar      2 RES2    0.0000
     94 H25B      14.5838   -2.1955    5.7981 H         2 RES2    0.0000
     95 C46B      14.4037    2.2654    7.5138 C.ar      2 RES2    0.0000
     96 C41B      13.5096    5.1726    6.8144 C.ar      2 RES2    0.0000
     97 C45B      15.7681    5.6214    6.1239 C.ar      2 RES2    0.0000
     98 H26B      14.3842   -0.1930    6.9274 H         2 RES2    0.0000
     99 C47B      13.1754    1.9137    8.0696 C.ar      2 RES2    0.0000
    100 C51B      15.4814    2.4998    8.3547 C.ar      2 RES2    0.0000
    101 C42B      13.5219    6.3390    7.5697 C.ar      2 RES2    0.0000
    102 H27B      12.7306    4.6314    6.7885 H         2 RES2    0.0000
    103 C44B      15.7758    6.7748    6.8959 C.ar      2 RES2    0.0000
    104 H31B      16.5370    5.3917    5.6148 H         2 RES2    0.0000
    105 C48B      13.0444    1.7870    9.4469 C.ar      2 RES2    0.0000
    106 H32B      12.4243    1.7621    7.5068 H         2 RES2    0.0000
    107 C50B      15.3286    2.3755    9.7320 C.ar      2 RES2    0.0000
    108 H36B      16.3219    2.7473    7.9900 H         2 RES2    0.0000
    109 C43B      14.6517    7.1253    7.6253 C.ar      2 RES2    0.0000
    110 H28B      12.7446    6.5960    8.0529 H         2 RES2    0.0000
    111 H30B      16.5515    7.3231    6.9218 H         2 RES2    0.0000
    112 C49B      14.1113    2.0037   10.2707 C.ar      2 RES2    0.0000
    113 H33B      12.2024    1.5454    9.8209 H         2 RES2    0.0000
    114 H35B      16.0663    2.5460   10.3059 H         2 RES2    0.0000
    115 H29B      14.6598    7.9081    8.1640 H         2 RES2    0.0000
    116 H34B      14.0176    1.9006   11.2093 H         2 RES2    0.0000
@<TRIPOS>BOND
     1    1    2 ar
     2    2    3 ar
     3    3    4 ar
     4    4    5 ar
     5    5    6 ar
     6    6    7 ar
     7    7    8 ar
     8    8    9 ar
     9    9   10 ar
    10   10    1 ar
    11   11    1 1
    12   12   11 ar
    13   13   12 ar
    14   14   13 ar
    15   15   14 ar
    16   16   11 ar
    17   17    2 1
    18   18   17 ar
    19   19   18 ar
    20   20   19 ar
    21   21   20 ar
    22   22   17 ar
    23   23    3 1
    24   24   23 ar
    25   25   24 ar
    26   26   25 ar
    27   27   26 ar
    28   28   23 ar
    29   29    4 1
    30   30   29 ar
    31   31   30 ar
    32   32   31 ar
    33   33   32 ar
    34   34   29 ar
    35   35    6 1
    36   36    7 1
    37   37    8 1
    38   38    9 1
    39   39   12 1
    40   40   13 1
    41   41   14 1
    42   42   15 1
    43   43   16 1
    44   44   18 1
    45   45   19 1
    46   46   20 1
    47   47   21 1
    48   48   22 1
    49   49   24 1
    50   50   25 1
    51   51   26 1
    52   52   27 1
    53   53   28 1
    54   54   30 1
    55   55   31 1
    56   56   32 1
    57   57   33 1
    58   58   34 1
    59   59   60 ar
    60   60   64 1
    61   61   62 ar
    62   62   63 ar
    63   63   59 ar
    64   64   65 ar
    65   65   66 ar
    66   66   67 ar
    67   67   68 ar
    68   68   69 ar
    69   69   64 ar
    70   70   59 1
    71   71   70 ar
    72   72   71 ar
    73   73   72 ar
    74   74   73 ar
    75   75   70 ar
    76   76   61 1
    77   77   62 1
    78   78   65 1
    79   79   66 1
    80   80   67 1
    81   81   68 1
    82   82   69 1
    83   83   71 1
    84   84   72 1
    85   85   73 1
    86   86   74 1
    87   87   75 1
    88   88   60 ar
    89   89   63 ar
    90   90   61 ar
    91   91   88 ar
    92   92   88 1
    93   93   89 ar
    94   94   90 1
    95   95   91 1
    96   96   92 ar
    97   97   92 ar
    98   98   93 1
    99   99   95 ar
   100  100   95 ar
   101  101   96 ar
   102  102   96 1
   103  103   97 ar
   104  104   97 1
   105  105   99 ar
   106  106   99 1
   107  107  100 ar
   108  108  100 1
   109  109  101 ar
   110  110  101 1
   111  111  103 1
   112  112  105 ar
   113  113  105 1
   114  114  107 1
   115  115  109 1
   116  116  112 1
   117    5   10 ar
   118   15   16 ar
   119   21   22 ar
   120   27   28 ar
   121   33   34 ar
   122   74   75 ar
   123   89   91 ar
   124   90   93 ar
   125  103  109 ar
   126  107  112 ar
@<TRIPOS>SUBSTRUCTURE
     1 RES1 1
     2 RES2 59

@<TRIPOS>CRYSIN
  33.0570   11.8420   19.7770  90.0000 110.6000  90.0000  15 1

