# MOL2 file generated by ConQuest
# Please check atom types

@<TRIPOS>MOLECULE
LEZGEC01
    58    63     1
SMALL
NO_CHARGES
****
Generated from CSD

@<TRIPOS>ATOM
      1 C1         9.4470    7.5830    3.0930 C.ar      1 RES1    0.0000
      2 C2        10.3065    7.9461    4.1120 C.ar      1 RES1    0.0000
      3 C3        10.5972    9.3262    4.3589 C.ar      1 RES1    0.0000
      4 C4        10.0054   10.3099    3.5901 C.ar      1 RES1    0.0000
      5 C5         9.1035    9.9574    2.5374 C.ar      1 RES1    0.0000
      6 C6         8.4621   10.9273    1.7325 C.ar      1 RES1    0.0000
      7 H1         8.6309   11.8291    1.8825 H         1 RES1    0.0000
      8 C7         7.6048   10.5627    0.7451 C.ar      1 RES1    0.0000
      9 H2         7.1936   11.2181    0.2287 H         1 RES1    0.0000
     10 C8         7.3352    9.2243    0.4964 C.ar      1 RES1    0.0000
     11 H3         6.7442    8.9899   -0.1812 H         1 RES1    0.0000
     12 C9         7.9321    8.2539    1.2405 C.ar      1 RES1    0.0000
     13 H4         7.7513    7.3603    1.0585 H         1 RES1    0.0000
     14 C10        8.8267    8.5877    2.2918 C.ar      1 RES1    0.0000
     15 C11        9.2109    6.1423    2.7891 C.ar      1 RES1    0.0000
     16 C12        8.1343    5.4559    3.2864 C.ar      1 RES1    0.0000
     17 H5         7.5053    5.9052    3.8038 H         1 RES1    0.0000
     18 C13        7.9656    4.1139    3.0347 C.ar      1 RES1    0.0000
     19 H6         7.2313    3.6670    3.3896 H         1 RES1    0.0000
     20 C14        8.8608    3.4361    2.2741 C.ar      1 RES1    0.0000
     21 H7         8.7551    2.5262    2.1155 H         1 RES1    0.0000
     22 C15        9.9147    4.1113    1.7490 C.ar      1 RES1    0.0000
     23 H8        10.5285    3.6608    1.2138 H         1 RES1    0.0000
     24 C16       10.0873    5.4496    1.9967 C.ar      1 RES1    0.0000
     25 H9        10.8123    5.8940    1.6193 H         1 RES1    0.0000
     26 C17       10.9360    6.8948    4.9651 C.ar      1 RES1    0.0000
     27 C18       10.1897    6.2499    5.9272 C.ar      1 RES1    0.0000
     28 H10        9.2906    6.4663    6.0315 H         1 RES1    0.0000
     29 C19       10.7510    5.2936    6.7341 C.ar      1 RES1    0.0000
     30 H11       10.2314    4.8753    7.3833 H         1 RES1    0.0000
     31 C20       12.0490    4.9538    6.5963 C.ar      1 RES1    0.0000
     32 H12       12.4235    4.3079    7.1503 H         1 RES1    0.0000
     33 C21       12.8004    5.5574    5.6499 C.ar      1 RES1    0.0000
     34 H13       13.6930    5.3179    5.5454 H         1 RES1    0.0000
     35 C22       12.2491    6.5322    4.8341 C.ar      1 RES1    0.0000
     36 H14       12.7771    6.9451    4.1892 H         1 RES1    0.0000
     37 C23       11.5435    9.7068    5.4526 C.ar      1 RES1    0.0000
     38 C24       11.1886    9.5730    6.7855 C.ar      1 RES1    0.0000
     39 H15       10.3631    9.2031    7.0036 H         1 RES1    0.0000
     40 C25       12.0330    9.9772    7.7917 C.ar      1 RES1    0.0000
     41 H16       11.7752    9.8727    8.6790 H         1 RES1    0.0000
     42 C26       13.2330   10.5238    7.5042 C.ar      1 RES1    0.0000
     43 H17       13.7922   10.8104    8.1901 H         1 RES1    0.0000
     44 C27       13.6272   10.6554    6.1927 C.ar      1 RES1    0.0000
     45 H18       14.4584   11.0223    5.9912 H         1 RES1    0.0000
     46 C28       12.7841   10.2397    5.1669 C.ar      1 RES1    0.0000
     47 H19       13.0591   10.3216    4.2827 H         1 RES1    0.0000
     48 C29       10.2949   11.7493    3.8677 C.ar      1 RES1    0.0000
     49 C30        9.7132   12.3915    4.9365 C.ar      1 RES1    0.0000
     50 H20        9.0957   11.9438    5.4677 H         1 RES1    0.0000
     51 C31       10.0490   13.7081    5.2215 C.ar      1 RES1    0.0000
     52 H21        9.6508   14.1408    5.9423 H         1 RES1    0.0000
     53 C32       10.9618   14.3727    4.4452 C.ar      1 RES1    0.0000
     54 H22       11.1996   15.2480    4.6523 H         1 RES1    0.0000
     55 C33       11.5181   13.7537    3.3781 C.ar      1 RES1    0.0000
     56 H23       12.1290   14.2093    2.8446 H         1 RES1    0.0000
     57 C34       11.1826   12.4560    3.0783 C.ar      1 RES1    0.0000
     58 H24       11.5592   12.0460    2.3326 H         1 RES1    0.0000
@<TRIPOS>BOND
     1    1    2 ar
     2    2    3 ar
     3    3    4 ar
     4    4    5 ar
     5    5    6 ar
     6    6    7 1
     7    8    6 ar
     8    9    8 1
     9   10    8 ar
    10   11   10 1
    11   12   10 ar
    12   13   12 1
    13   14    1 ar
    14   15    1 1
    15   16   15 ar
    16   17   16 1
    17   18   16 ar
    18   19   18 1
    19   20   18 ar
    20   21   20 1
    21   22   20 ar
    22   23   22 1
    23   24   15 ar
    24   25   24 1
    25   26    2 1
    26   27   26 ar
    27   28   27 1
    28   29   27 ar
    29   30   29 1
    30   31   29 ar
    31   32   31 1
    32   33   31 ar
    33   34   33 1
    34   35   26 ar
    35   36   35 1
    36   37    3 1
    37   38   37 ar
    38   39   38 1
    39   40   38 ar
    40   41   40 1
    41   42   40 ar
    42   43   42 1
    43   44   42 ar
    44   45   44 1
    45   46   37 ar
    46   47   46 1
    47   48    4 1
    48   49   48 ar
    49   50   49 1
    50   51   49 ar
    51   52   51 1
    52   53   51 ar
    53   54   53 1
    54   55   53 ar
    55   56   55 1
    56   57   48 ar
    57   58   57 1
    58    5   14 ar
    59   12   14 ar
    60   22   24 ar
    61   33   35 ar
    62   44   46 ar
    63   55   57 ar
@<TRIPOS>SUBSTRUCTURE
     1 RES1 1

@<TRIPOS>CRYSIN
  13.8127   12.4687   14.3822  90.0000  90.6940  90.0000  14 1

