# MOL2 file generated by ConQuest
# Please check atom types

@<TRIPOS>MOLECULE
LIBNAN
   130   142     2
SMALL
NO_CHARGES
****
Generated from CSD

@<TRIPOS>ATOM
      1 C1        -0.3703   10.2709    0.3250 C.ar      1 RES1    0.0000
      2 C2         0.2814    9.9513    1.4710 C.ar      1 RES1    0.0000
      3 C3         0.9457   10.9766    2.1978 C.ar      1 RES1    0.0000
      4 C4         1.6330   10.7135    3.3958 C.ar      1 RES1    0.0000
      5 H1         1.6471    9.8440    3.7246 H         1 RES1    0.0000
      6 C5         2.2744   11.6855    4.0822 C.ar      1 RES1    0.0000
      7 H2         2.7208   11.4848    4.8725 H         1 RES1    0.0000
      8 C6         2.2598   12.9930    3.5919 C.ar      1 RES1    0.0000
      9 H3         2.7127   13.6618    4.0534 H         1 RES1    0.0000
     10 C7         1.5942   13.2986    2.4574 C.ar      1 RES1    0.0000
     11 H4         1.5662   14.1808    2.1690 H         1 RES1    0.0000
     12 C8         0.9391   12.2984    1.7017 C.ar      1 RES1    0.0000
     13 C9         0.2467   12.6193    0.4826 C.ar      1 RES1    0.0000
     14 C10       -0.4039   11.5975   -0.1673 C.ar      1 RES1    0.0000
     15 C11       -1.2528   11.5704   -1.3883 C.2       1 RES1    0.0000
     16 C12       -1.6965   10.3431   -1.5806 C.2       1 RES1    0.0000
     17 H5        -2.2884   10.1106   -2.2574 H         1 RES1    0.0000
     18 C13       -1.1431    9.3498   -0.5845 C.3       1 RES1    0.0000
     19 H6        -1.8744    8.9214   -0.0904 H         1 RES1    0.0000
     20 C14        0.3453    8.6084    1.9575 C.1       1 RES1    0.0000
     21 C15        0.5049    7.5443    2.4574 C.1       1 RES1    0.0000
     22 C16        0.8007    6.2426    3.0285 C.ar      1 RES1    0.0000
     23 C17        1.7413    5.4427    2.4728 C.ar      1 RES1    0.0000
     24 H7         2.2015    5.7330    1.7171 H         1 RES1    0.0000
     25 C18        2.0246    4.2179    3.0035 C.ar      1 RES1    0.0000
     26 H8         2.6461    3.6590    2.5958 H         1 RES1    0.0000
     27 C19        1.3766    3.8247    4.1495 C.ar      1 RES1    0.0000
     28 H9         1.5843    3.0013    4.5283 H         1 RES1    0.0000
     29 C20        0.4588    4.5936    4.7302 C.ar      1 RES1    0.0000
     30 H10        0.0227    4.3046    5.4994 H         1 RES1    0.0000
     31 C21        0.1619    5.8203    4.1803 C.ar      1 RES1    0.0000
     32 H11       -0.4711    6.3676    4.5860 H         1 RES1    0.0000
     33 C22        0.2780   14.0115   -0.0250 C.ar      1 RES1    0.0000
     34 C23        1.4583   14.5481   -0.4711 C.ar      1 RES1    0.0000
     35 H12        2.2267   14.0244   -0.4730 H         1 RES1    0.0000
     36 C24        1.5291   15.8678   -0.9268 C.ar      1 RES1    0.0000
     37 H13        2.3390   16.2379   -1.1979 H         1 RES1    0.0000
     38 C25        0.3782   16.5997   -0.9614 C.ar      1 RES1    0.0000
     39 H14        0.4013   17.4749   -1.2787 H         1 RES1    0.0000
     40 C26       -0.7928   16.0783   -0.5442 C.ar      1 RES1    0.0000
     41 H15       -1.5650   16.5936   -0.5845 H         1 RES1    0.0000
     42 C27       -0.8585   14.7789   -0.0558 C.ar      1 RES1    0.0000
     43 H16       -1.6663   14.4328    0.2480 H         1 RES1    0.0000
     44 C28       -1.5477   12.7132   -2.3074 C.ar      1 RES1    0.0000
     45 C29       -0.5190   13.3322   -2.9823 C.ar      1 RES1    0.0000
     46 H17        0.3549   13.0307   -2.8766 H         1 RES1    0.0000
     47 C30       -0.7852   14.4083   -3.8207 C.ar      1 RES1    0.0000
     48 H18       -0.0939   14.8346   -4.2745 H         1 RES1    0.0000
     49 C31       -2.0953   14.8361   -3.9707 C.ar      1 RES1    0.0000
     50 H19       -2.2816   15.5577   -4.5264 H         1 RES1    0.0000
     51 C32       -3.1070   14.2123   -3.3169 C.ar      1 RES1    0.0000
     52 H20       -3.9827   14.5047   -3.4246 H         1 RES1    0.0000
     53 C33       -2.8339   13.1415   -2.4901 C.ar      1 RES1    0.0000
     54 H21       -3.5311   12.7078   -2.0536 H         1 RES1    0.0000
     55 C34       -0.3144    8.3143   -1.2825 C.ar      1 RES1    0.0000
     56 C35        0.9178    8.6323   -1.7979 C.ar      1 RES1    0.0000
     57 H22        1.2708    9.4813   -1.6575 H         1 RES1    0.0000
     58 C36        1.6488    7.6944   -2.5285 C.ar      1 RES1    0.0000
     59 H23        2.4888    7.9173   -2.8593 H         1 RES1    0.0000
     60 C37        1.1332    6.4451   -2.7593 C.ar      1 RES1    0.0000
     61 H24        1.6097    5.8238   -3.2612 H         1 RES1    0.0000
     62 C38       -0.0894    6.1247   -2.2440 C.ar      1 RES1    0.0000
     63 H25       -0.4396    5.2759   -2.3920 H         1 RES1    0.0000
     64 C39       -0.8168    7.0415   -1.5056 C.ar      1 RES1    0.0000
     65 H26       -1.6455    6.8037   -1.1576 H         1 RES1    0.0000
     66 C40        5.8780    0.5624    9.1162 C.ar      2 RES2    0.0000
     67 C41        6.5795    0.2061    8.0029 C.ar      2 RES2    0.0000
     68 C42        7.2432    1.2156    7.2415 C.ar      2 RES2    0.0000
     69 C43        7.9568    0.9187    6.0781 C.ar      2 RES2    0.0000
     70 H27        8.0526    0.0316    5.8166 H         2 RES2    0.0000
     71 C44        8.5199    1.9080    5.3148 C.ar      2 RES2    0.0000
     72 H28        9.0074    1.6883    4.5533 H         2 RES2    0.0000
     73 C45        8.3637    3.2185    5.6705 C.ar      2 RES2    0.0000
     74 H29        8.7156    3.8880    5.1302 H         2 RES2    0.0000
     75 C46        7.7030    3.5504    6.7973 C.ar      2 RES2    0.0000
     76 H30        7.6327    4.4485    7.0280 H         2 RES2    0.0000
     77 C47        7.1133    2.5777    7.6453 C.ar      2 RES2    0.0000
     78 C48        6.3942    2.9301    8.8355 C.ar      2 RES2    0.0000
     79 C49        5.8005    1.9146    9.5585 C.ar      2 RES2    0.0000
     80 C50        4.9411    1.9490   10.7487 C.2       2 RES2    0.0000
     81 C51        4.4925    0.7020   10.9891 C.2       2 RES2    0.0000
     82 H31        3.8944    0.4941   11.6717 H         2 RES2    0.0000
     83 C52        5.0569   -0.3211   10.0450 C.3       2 RES2    0.0000
     84 H32        4.3299   -0.7459    9.5431 H         2 RES2    0.0000
     85 C53        6.6928   -1.1464    7.5856 C.1       2 RES2    0.0000
     86 C54        6.8759   -2.2645    7.1722 C.1       2 RES2    0.0000
     87 C55        7.1692   -3.5585    6.6454 C.ar      2 RES2    0.0000
     88 C56        6.2617   -4.2979    5.9262 C.ar      2 RES2    0.0000
     89 H33        5.4112   -3.9582    5.7686 H         2 RES2    0.0000
     90 C57        6.5998   -5.5259    5.4455 C.ar      2 RES2    0.0000
     91 H34        5.9578   -6.0185    4.9860 H         2 RES2    0.0000
     92 C58        7.8178   -6.0525    5.6109 C.ar      2 RES2    0.0000
     93 H35        8.0327   -6.8900    5.2686 H         2 RES2    0.0000
     94 C59        8.7287   -5.3155    6.2954 C.ar      2 RES2    0.0000
     95 H36        9.5846   -5.6583    6.4204 H         2 RES2    0.0000
     96 C60        8.4262   -4.0933    6.8030 C.ar      2 RES2    0.0000
     97 H37        9.0766   -3.6137    7.2645 H         2 RES2    0.0000
     98 C61        6.3178    4.3514    9.2528 C.ar      2 RES2    0.0000
     99 C62        5.1263    5.0468    9.2412 C.ar      2 RES2    0.0000
    100 H38        4.3506    4.6205    8.9547 H         2 RES2    0.0000
    101 C63        5.0644    6.3561    9.6489 C.ar      2 RES2    0.0000
    102 H39        4.2537    6.8110    9.6335 H         2 RES2    0.0000
    103 C64        6.1906    6.9875   10.0738 C.ar      2 RES2    0.0000
    104 H40        6.1436    7.8684   10.3699 H         2 RES2    0.0000
    105 C65        7.4009    6.3325   10.0680 C.ar      2 RES2    0.0000
    106 H41        8.1743    6.7710   10.3411 H         2 RES2    0.0000
    107 C66        7.4529    5.0131    9.6546 C.ar      2 RES2    0.0000
    108 H42        8.2691    4.5662    9.6508 H         2 RES2    0.0000
    109 C67        4.6203    3.1083   11.6236 C.ar      2 RES2    0.0000
    110 C68        3.2919    3.4598   11.8409 C.ar      2 RES2    0.0000
    111 H43        2.6158    2.9869   11.4121 H         2 RES2    0.0000
    112 C69        2.9697    4.5004   12.6870 C.ar      2 RES2    0.0000
    113 H44        2.0824    4.7495   12.8120 H         2 RES2    0.0000
    114 C70        3.9706    5.1600   13.3369 C.ar      2 RES2    0.0000
    115 H45        3.7570    5.8495   13.9234 H         2 RES2    0.0000
    116 C71        5.2898    4.8251   13.1388 C.ar      2 RES2    0.0000
    117 H46        5.9612    5.2900   13.5830 H         2 RES2    0.0000
    118 C72        5.6136    3.7930   12.2755 C.ar      2 RES2    0.0000
    119 H47        6.5045    3.5627   12.1390 H         2 RES2    0.0000
    120 C73        5.8330   -1.3671   10.7987 C.ar      2 RES2    0.0000
    121 C74        7.0411   -1.0939   11.3506 C.ar      2 RES2    0.0000
    122 H48        7.4287   -0.2583   11.2141 H         2 RES2    0.0000
    123 C75        7.7131   -2.0504   12.1216 C.ar      2 RES2    0.0000
    124 H49        8.5345   -1.8474   12.5081 H         2 RES2    0.0000
    125 C76        7.1601   -3.2724   12.2985 C.ar      2 RES2    0.0000
    126 H50        7.6140   -3.9208   12.7831 H         2 RES2    0.0000
    127 C77        5.9583   -3.5478   11.7736 C.ar      2 RES2    0.0000
    128 H51        5.5694   -4.3789   11.9217 H         2 RES2    0.0000
    129 C78        5.3011   -2.6129   11.0218 C.ar      2 RES2    0.0000
    130 H52        4.4750   -2.8257   10.6526 H         2 RES2    0.0000
@<TRIPOS>BOND
     1    1    2 ar
     2    2    3 ar
     3    3    4 ar
     4    4    5 1
     5    6    4 ar
     6    7    6 1
     7    8    6 ar
     8    9    8 1
     9   10    8 ar
    10   11   10 1
    11   12    3 ar
    12   13   12 ar
    13   14    1 ar
    14   15   14 1
    15   16   15 2
    16   17   16 1
    17   18    1 1
    18   19   18 1
    19   20    2 1
    20   21   20 3
    21   22   21 1
    22   23   22 ar
    23   24   23 1
    24   25   23 ar
    25   26   25 1
    26   27   25 ar
    27   28   27 1
    28   29   27 ar
    29   30   29 1
    30   31   22 ar
    31   32   31 1
    32   33   13 1
    33   34   33 ar
    34   35   34 1
    35   36   34 ar
    36   37   36 1
    37   38   36 ar
    38   39   38 1
    39   40   38 ar
    40   41   40 1
    41   42   33 ar
    42   43   42 1
    43   44   15 1
    44   45   44 ar
    45   46   45 1
    46   47   45 ar
    47   48   47 1
    48   49   47 ar
    49   50   49 1
    50   51   49 ar
    51   52   51 1
    52   53   44 ar
    53   54   53 1
    54   55   18 1
    55   56   55 ar
    56   57   56 1
    57   58   56 ar
    58   59   58 1
    59   60   58 ar
    60   61   60 1
    61   62   60 ar
    62   63   62 1
    63   64   55 ar
    64   65   64 1
    65   66   67 ar
    66   67   68 ar
    67   68   69 ar
    68   69   70 1
    69   71   69 ar
    70   72   71 1
    71   73   71 ar
    72   74   73 1
    73   75   73 ar
    74   76   75 1
    75   77   68 ar
    76   78   77 ar
    77   79   66 ar
    78   80   79 1
    79   81   80 2
    80   82   81 1
    81   83   66 1
    82   84   83 1
    83   85   67 1
    84   86   85 3
    85   87   86 1
    86   88   87 ar
    87   89   88 1
    88   90   88 ar
    89   91   90 1
    90   92   90 ar
    91   93   92 1
    92   94   92 ar
    93   95   94 1
    94   96   87 ar
    95   97   96 1
    96   98   78 1
    97   99   98 ar
    98  100   99 1
    99  101   99 ar
   100  102  101 1
   101  103  101 ar
   102  104  103 1
   103  105  103 ar
   104  106  105 1
   105  107   98 ar
   106  108  107 1
   107  109   80 1
   108  110  109 ar
   109  111  110 1
   110  112  110 ar
   111  113  112 1
   112  114  112 ar
   113  115  114 1
   114  116  114 ar
   115  117  116 1
   116  118  109 ar
   117  119  118 1
   118  120   83 1
   119  121  120 ar
   120  122  121 1
   121  123  121 ar
   122  124  123 1
   123  125  123 ar
   124  126  125 1
   125  127  125 ar
   126  128  127 1
   127  129  120 ar
   128  130  129 1
   129   10   12 ar
   130   13   14 ar
   131   16   18 1
   132   29   31 ar
   133   40   42 ar
   134   51   53 ar
   135   62   64 ar
   136   75   77 ar
   137   78   79 ar
   138   81   83 1
   139   94   96 ar
   140  105  107 ar
   141  116  118 ar
   142  127  129 ar
@<TRIPOS>SUBSTRUCTURE
     1 RES1 1
     2 RES2 66

@<TRIPOS>CRYSIN
  11.3980   12.6380   20.5470 107.1510  96.7680 103.6740   2 1

