# MOL2 file generated by ConQuest
# Please check atom types

@<TRIPOS>MOLECULE
LIHDEL
    48    53     1
SMALL
NO_CHARGES
****
Generated from CSD

@<TRIPOS>ATOM
      1 C1         7.4733    0.7877    1.1094 C.3       1 RES1    0.0000
      2 C2         7.3239    1.1809    2.5464 C.ar      1 RES1    0.0000
      3 C3         8.4377    1.3428    3.3411 C.ar      1 RES1    0.0000
      4 C4         8.3682    1.6274    4.7174 C.ar      1 RES1    0.0000
      5 C5         9.5557    1.6116    5.5609 C.ar      1 RES1    0.0000
      6 C6        10.8839    1.9084    5.0683 C.ar      1 RES1    0.0000
      7 C7        11.1307    2.6125    3.8691 C.ar      1 RES1    0.0000
      8 C8        12.4092    2.9175    3.4629 C.ar      1 RES1    0.0000
      9 C9        13.5145    2.5003    4.2260 C.ar      1 RES1    0.0000
     10 C10       13.3120    1.8489    5.4068 C.ar      1 RES1    0.0000
     11 C11       12.0104    1.5747    5.8798 C.ar      1 RES1    0.0000
     12 C12       11.7940    1.0333    7.1675 C.ar      1 RES1    0.0000
     13 C13       10.5446    0.9090    7.6767 C.ar      1 RES1    0.0000
     14 C14        9.3879    1.2283    6.8965 C.ar      1 RES1    0.0000
     15 C15        8.0641    1.2381    7.4976 C.ar      1 RES1    0.0000
     16 C16        7.8477    0.8103    8.8456 C.ar      1 RES1    0.0000
     17 C17        6.6430    0.9293    9.4462 C.ar      1 RES1    0.0000
     18 C18        5.5666    1.6026    8.8007 C.ar      1 RES1    0.0000
     19 C19        4.3463    1.8549    9.4697 C.ar      1 RES1    0.0000
     20 C20        3.3690    2.6057    8.8830 C.ar      1 RES1    0.0000
     21 C21        3.5867    3.1743    7.6243 C.ar      1 RES1    0.0000
     22 C22        4.7396    2.9032    6.9321 C.ar      1 RES1    0.0000
     23 C23        5.7480    2.0658    7.4667 C.ar      1 RES1    0.0000
     24 C24        6.9697    1.7306    6.7633 C.ar      1 RES1    0.0000
     25 C25        7.0859    1.7359    5.3110 C.ar      1 RES1    0.0000
     26 C26        5.9563    1.5958    4.4773 C.ar      1 RES1    0.0000
     27 C27        6.0463    1.3194    3.1260 C.ar      1 RES1    0.0000
     28 C28        4.7984    1.0769    2.3198 C.3       1 RES1    0.0000
     29 H1         5.0517    1.5890    4.9065 H         1 RES1    0.0000
     30 H2         9.2972    1.1673    2.9778 H         1 RES1    0.0000
     31 H3        12.5358    3.4341    2.6058 H         1 RES1    0.0000
     32 H4         3.9740    1.1974    2.9010 H         1 RES1    0.0000
     33 H5         4.8807    3.3287    6.0717 H         1 RES1    0.0000
     34 H6         2.9311    3.7881    7.2309 H         1 RES1    0.0000
     35 H7        10.3835    2.9371    3.3222 H         1 RES1    0.0000
     36 H8         4.6933    1.6945    1.5588 H         1 RES1    0.0000
     37 H9        14.4404    2.6961    3.8969 H         1 RES1    0.0000
     38 H10        4.2432    1.4836   10.3858 H         1 RES1    0.0000
     39 H11        8.6038    0.3690    9.3388 H         1 RES1    0.0000
     40 H12       14.0724    1.5589    5.9831 H         1 RES1    0.0000
     41 H13       12.5604    0.8058    7.7033 H         1 RES1    0.0000
     42 H14        7.1003    1.4535    0.5314 H         1 RES1    0.0000
     43 H15        6.4954    0.5949   10.3642 H         1 RES1    0.0000
     44 H16        8.3989    0.6251    0.8857 H         1 RES1    0.0000
     45 H17       10.3883    0.5949    8.6007 H         1 RES1    0.0000
     46 H18        2.5485    2.7789    9.3604 H         1 RES1    0.0000
     47 H19        6.9881   -0.0678    0.9093 H         1 RES1    0.0000
     48 H20        4.7798    0.1883    1.9209 H         1 RES1    0.0000
@<TRIPOS>BOND
     1    1    2 1
     2    2    3 ar
     3    3    4 ar
     4    4    5 ar
     5    5    6 ar
     6    6    7 ar
     7    7    8 ar
     8    8    9 ar
     9    9   10 ar
    10   10   11 ar
    11   11    6 ar
    12   12   11 ar
    13   13   12 ar
    14   14    5 ar
    15   15   14 ar
    16   16   15 ar
    17   17   16 ar
    18   18   17 ar
    19   19   18 ar
    20   20   19 ar
    21   21   20 ar
    22   22   21 ar
    23   23   18 ar
    24   24   15 ar
    25   25    4 ar
    26   26   25 ar
    27   27    2 ar
    28   28   27 1
    29   29   26 1
    30   30    3 1
    31   31    8 1
    32   32   28 1
    33   33   22 1
    34   34   21 1
    35   35    7 1
    36   36   28 1
    37   37    9 1
    38   38   19 1
    39   39   16 1
    40   40   10 1
    41   41   12 1
    42   42    1 1
    43   43   17 1
    44   44    1 1
    45   45   13 1
    46   46   20 1
    47   47    1 1
    48   48   28 1
    49   13   14 ar
    50   22   23 ar
    51   23   24 ar
    52   24   25 ar
    53   26   27 ar
@<TRIPOS>SUBSTRUCTURE
     1 RES1 1

@<TRIPOS>CRYSIN
  12.0240    7.5310   19.9620  90.0000  99.6200  90.0000 231 1

