# MOL2 file generated by ConQuest
# Please check atom types

@<TRIPOS>MOLECULE
LIVDIF
    44    47     1
SMALL
NO_CHARGES
****
Generated from CSD

@<TRIPOS>ATOM
      1 C1         1.4465    2.4219    6.2125 C.ar      1 RES1    0.0000
      2 C2         1.3093    1.4974    5.2075 C.ar      1 RES1    0.0000
      3 C3         1.0910    0.1155    5.5065 C.ar      1 RES1    0.0000
      4 C4         1.0529   -0.3236    6.8137 C.ar      1 RES1    0.0000
      5 C5         1.2815    0.6039    7.8686 C.ar      1 RES1    0.0000
      6 C6         1.4554    1.9828    7.5744 C.ar      1 RES1    0.0000
      7 C7         1.6461    2.8724    8.6483 C.ar      1 RES1    0.0000
      8 H1         1.7241    3.7826    8.4739 H         1 RES1    0.0000
      9 C8         1.7192    2.4379    9.9354 C.ar      1 RES1    0.0000
     10 H2         1.8478    3.0482   10.6243 H         1 RES1    0.0000
     11 C9         1.6023    1.0867   10.2200 C.ar      1 RES1    0.0000
     12 H3         1.6832    0.7889   11.0975 H         1 RES1    0.0000
     13 C10        1.3715    0.1980    9.2229 C.ar      1 RES1    0.0000
     14 H4         1.2682   -0.7020    9.4329 H         1 RES1    0.0000
     15 C11        1.6422    3.8826    5.9003 C.3       1 RES1    0.0000
     16 H5         1.6608    4.0058    4.9478 H         1 RES1    0.0000
     17 H6         2.4712    4.1830    6.2795 H         1 RES1    0.0000
     18 H7         0.9176    4.3892    6.2753 H         1 RES1    0.0000
     19 C12        0.7588   -1.7656    7.1527 C.3       1 RES1    0.0000
     20 H8         0.4987   -2.2355    6.3570 H         1 RES1    0.0000
     21 H9         0.0458   -1.8044    7.7955 H         1 RES1    0.0000
     22 H10        1.5448   -2.1742    7.5212 H         1 RES1    0.0000
     23 C13        1.4494    1.9119    3.7796 C.ar      1 RES1    0.0000
     24 C14        2.6484    1.7318    3.1305 C.ar      1 RES1    0.0000
     25 H11        3.3624    1.3529    3.5910 H         1 RES1    0.0000
     26 C15        2.8160    2.1005    1.8122 C.ar      1 RES1    0.0000
     27 H12        3.6371    1.9731    1.3945 H         1 RES1    0.0000
     28 C16        1.7776    2.6516    1.1173 C.ar      1 RES1    0.0000
     29 H13        1.8848    2.8881    0.2240 H         1 RES1    0.0000
     30 C17        0.5815    2.8516    1.7427 C.ar      1 RES1    0.0000
     31 H14       -0.1257    3.2323    1.2752 H         1 RES1    0.0000
     32 C18        0.4140    2.4933    3.0692 C.ar      1 RES1    0.0000
     33 H15       -0.4033    2.6444    3.4863 H         1 RES1    0.0000
     34 C19        0.9300   -0.8340    4.3607 C.ar      1 RES1    0.0000
     35 C20        1.8936   -1.7863    4.0954 C.ar      1 RES1    0.0000
     36 H16        2.6377   -1.8504    4.6505 H         1 RES1    0.0000
     37 C21        1.7708   -2.6441    3.0215 C.ar      1 RES1    0.0000
     38 H17        2.4234   -3.2868    2.8623 H         1 RES1    0.0000
     39 C22        0.6867   -2.5478    2.1877 C.ar      1 RES1    0.0000
     40 H18        0.6039   -3.1232    1.4615 H         1 RES1    0.0000
     41 C23       -0.2737   -1.6015    2.4293 C.ar      1 RES1    0.0000
     42 H19       -1.0033   -1.5267    1.8573 H         1 RES1    0.0000
     43 C24       -0.1646   -0.7601    3.5150 C.ar      1 RES1    0.0000
     44 H20       -0.8328   -0.1363    3.6810 H         1 RES1    0.0000
@<TRIPOS>BOND
     1    1    2 ar
     2    2    3 ar
     3    3    4 ar
     4    4    5 ar
     5    5    6 ar
     6    6    1 ar
     7    7    6 ar
     8    8    7 1
     9    9    7 ar
    10   10    9 1
    11   11    9 ar
    12   12   11 1
    13   13    5 ar
    14   14   13 1
    15   15    1 1
    16   16   15 1
    17   17   15 1
    18   18   15 1
    19   19    4 1
    20   20   19 1
    21   21   19 1
    22   22   19 1
    23   23    2 1
    24   24   23 ar
    25   25   24 1
    26   26   24 ar
    27   27   26 1
    28   28   26 ar
    29   29   28 1
    30   30   28 ar
    31   31   30 1
    32   32   23 ar
    33   33   32 1
    34   34    3 1
    35   35   34 ar
    36   36   35 1
    37   37   35 ar
    38   38   37 1
    39   39   37 ar
    40   40   39 1
    41   41   39 ar
    42   42   41 1
    43   43   34 ar
    44   44   43 1
    45   11   13 ar
    46   30   32 ar
    47   41   43 ar
@<TRIPOS>SUBSTRUCTURE
     1 RES1 1

@<TRIPOS>CRYSIN
   9.7405   17.0388   20.9387  90.0000  90.0000  90.0000  61 1

