# MOL2 file generated by ConQuest
# Please check atom types

@<TRIPOS>MOLECULE
LOBZAF
    94   109     1
SMALL
NO_CHARGES
****
Generated from CSD

@<TRIPOS>ATOM
      1 C1         5.8050   13.3074   13.5513 C.ar      1 RES1    0.0000
      2 C2         6.6607   12.2355   13.6052 C.ar      1 RES1    0.0000
      3 H1         7.0987   11.9445   12.8386 H         1 RES1    0.0000
      4 C3         6.8699   11.5797   14.8399 C.ar      1 RES1    0.0000
      5 H2         7.4218   10.8316   14.8648 H         1 RES1    0.0000
      6 C4         6.2881   12.0101   15.9939 C.ar      1 RES1    0.0000
      7 H3         6.4322   11.5469   16.7874 H         1 RES1    0.0000
      8 C5         5.4688   13.1578   15.9898 C.ar      1 RES1    0.0000
      9 C6         4.8629   13.7439   17.1044 C.ar      1 RES1    0.0000
     10 H4         4.9538   13.3545   17.9434 H         1 RES1    0.0000
     11 C7         4.1363   14.8896   16.9552 C.ar      1 RES1    0.0000
     12 H5         3.7331   15.2667   17.7052 H         1 RES1    0.0000
     13 C8         3.9749   15.5291   15.7039 C.ar      1 RES1    0.0000
     14 H6         3.4947   16.3222   15.6396 H         1 RES1    0.0000
     15 C9         4.5339   14.9634   14.5789 C.ar      1 RES1    0.0000
     16 C10        5.2588   13.7788   14.7674 C.ar      1 RES1    0.0000
     17 C11        5.3355   14.2358   12.5009 C.ar      1 RES1    0.0000
     18 C12        4.6136   15.3036   13.1349 C.ar      1 RES1    0.0000
     19 C13        4.1170   16.3673   12.3829 C.ar      1 RES1    0.0000
     20 C14        3.3796   17.5950   12.6978 C.ar      1 RES1    0.0000
     21 C15        2.8116   18.1135   13.8538 C.ar      1 RES1    0.0000
     22 H7         2.9032   17.6503   14.6556 H         1 RES1    0.0000
     23 C16        2.1186   19.2899   13.8331 C.ar      1 RES1    0.0000
     24 H8         1.7228   19.6035   14.6141 H         1 RES1    0.0000
     25 C17        2.0000   20.0216   12.6646 C.ar      1 RES1    0.0000
     26 H9         1.5448   20.8332   12.6646 H         1 RES1    0.0000
     27 C18        2.5564   19.5420   11.5148 C.ar      1 RES1    0.0000
     28 H10        2.4797   20.0236   10.7213 H         1 RES1    0.0000
     29 C19        3.2184   18.3635   11.5334 C.ar      1 RES1    0.0000
     30 C20        3.8584   17.6523   10.3733 C.3       1 RES1    0.0000
     31 H11        4.5712   18.1852    9.9879 H         1 RES1    0.0000
     32 H12        3.2063   17.4515    9.6854 H         1 RES1    0.0000
     33 C21        4.3988   16.3919   10.9906 C.ar      1 RES1    0.0000
     34 C22        5.0486   15.3467   10.3733 C.ar      1 RES1    0.0000
     35 C23        5.4780   14.2256   11.1108 C.ar      1 RES1    0.0000
     36 C24        6.0014   13.2234   10.1557 C.ar      1 RES1    0.0000
     37 C25        6.2842   11.8810   10.2904 C.ar      1 RES1    0.0000
     38 H13        6.2276   11.4711   11.1253 H         1 RES1    0.0000
     39 C26        6.6508   11.1472    9.1758 C.ar      1 RES1    0.0000
     40 H14        6.8435   10.2414    9.2628 H         1 RES1    0.0000
     41 C27        6.7332   11.7457    7.9327 C.ar      1 RES1    0.0000
     42 H15        6.9991   11.2456    7.1952 H         1 RES1    0.0000
     43 C28        6.4258   13.0779    7.7794 C.ar      1 RES1    0.0000
     44 H16        6.4885   13.4796    6.9424 H         1 RES1    0.0000
     45 C29        6.0242   13.8116    8.8754 C.ar      1 RES1    0.0000
     46 C30        5.3972   15.1786    8.8878 C.3       1 RES1    0.0000
     47 H17        6.0595   15.8508    8.6226 H         1 RES1    0.0000
     48 C31        4.1540   15.2626    7.9493 C.3       1 RES1    0.0000
     49 H18        3.6657   16.0865    8.1565 H         1 RES1    0.0000
     50 C32        3.2075   14.1108    8.0612 C.ar      1 RES1    0.0000
     51 C33        2.5346   13.6866    9.1841 C.ar      1 RES1    0.0000
     52 H19        2.6633   14.1129   10.0003 H         1 RES1    0.0000
     53 C34        1.6690   12.6229    9.0846 C.ar      1 RES1    0.0000
     54 H20        1.2071   12.3277    9.8346 H         1 RES1    0.0000
     55 C35        1.4900   12.0039    7.8768 C.ar      1 RES1    0.0000
     56 H21        0.9042   11.2825    7.8167 H         1 RES1    0.0000
     57 C36        2.1620   12.4241    6.7415 C.ar      1 RES1    0.0000
     58 H22        2.0038   12.0039    5.9273 H         1 RES1    0.0000
     59 C37        3.0614   13.4611    6.8140 C.ar      1 RES1    0.0000
     60 C38        3.8729   14.1743    5.8258 C.ar      1 RES1    0.0000
     61 C39        4.4800   15.2565    6.4639 C.ar      1 RES1    0.0000
     62 C40        5.2396   16.1562    5.7823 C.ar      1 RES1    0.0000
     63 C41        5.9092   17.4187    6.3147 C.3       1 RES1    0.0000
     64 H23        5.2584   18.0233    6.7042 H         1 RES1    0.0000
     65 H24        6.5828   17.2035    6.9797 H         1 RES1    0.0000
     66 C42        6.5311   18.0090    5.0779 C.ar      1 RES1    0.0000
     67 C43        7.2698   19.1444    4.9846 C.ar      1 RES1    0.0000
     68 H25        7.4147   19.6650    5.7408 H         1 RES1    0.0000
     69 C44        7.8021   19.5297    3.7830 C.ar      1 RES1    0.0000
     70 H26        8.2896   20.3187    3.7146 H         1 RES1    0.0000
     71 C45        7.6064   18.7304    2.6808 C.ar      1 RES1    0.0000
     72 H27        7.9940   18.9681    1.8687 H         1 RES1    0.0000
     73 C46        6.8438   17.5827    2.7575 C.ar      1 RES1    0.0000
     74 H28        6.7179   17.0559    2.0013 H         1 RES1    0.0000
     75 C47        6.2653   17.2117    3.9653 C.ar      1 RES1    0.0000
     76 C48        5.4343   16.0742    4.3755 C.ar      1 RES1    0.0000
     77 C49        4.8432   14.9921    3.7167 C.ar      1 RES1    0.0000
     78 C50        4.1153   14.0063    4.4398 C.ar      1 RES1    0.0000
     79 C51        3.7240   12.9221    3.4971 C.ar      1 RES1    0.0000
     80 C52        3.1587   11.6842    3.5800 C.ar      1 RES1    0.0000
     81 H29        2.8691   11.3542    4.4004 H         1 RES1    0.0000
     82 C53        3.0155   10.9033    2.4053 C.ar      1 RES1    0.0000
     83 H30        2.6583   10.0466    2.4757 H         1 RES1    0.0000
     84 C54        3.3846   11.3665    1.1768 C.ar      1 RES1    0.0000
     85 H31        3.2228   10.8542    0.4164 H         1 RES1    0.0000
     86 C55        4.0050   12.6065    1.0587 C.ar      1 RES1    0.0000
     87 C56        4.4673   13.2008   -0.1305 C.ar      1 RES1    0.0000
     88 H32        4.3925   12.7458   -0.9385 H         1 RES1    0.0000
     89 C57        5.0118   14.4182   -0.0974 C.ar      1 RES1    0.0000
     90 H33        5.2803   14.8035   -0.8991 H         1 RES1    0.0000
     91 C58        5.2027   15.1499    1.1001 C.ar      1 RES1    0.0000
     92 H34        5.5878   15.9963    1.0773 H         1 RES1    0.0000
     93 C59        4.8178   14.6047    2.2810 C.ar      1 RES1    0.0000
     94 C60        4.1780   13.3648    2.2271 C.ar      1 RES1    0.0000
@<TRIPOS>BOND
     1    1    2 ar
     2    2    3 1
     3    4    2 ar
     4    5    4 1
     5    6    4 ar
     6    7    6 1
     7    8    6 ar
     8    9    8 ar
     9   10    9 1
    10   11    9 ar
    11   12   11 1
    12   13   11 ar
    13   14   13 1
    14   15   13 ar
    15   16    1 ar
    16   17    1 1
    17   18   15 1
    18   19   18 ar
    19   20   19 1
    20   21   20 ar
    21   22   21 1
    22   23   21 ar
    23   24   23 1
    24   25   23 ar
    25   26   25 1
    26   27   25 ar
    27   28   27 1
    28   29   20 ar
    29   30   29 1
    30   31   30 1
    31   32   30 1
    32   33   19 ar
    33   34   33 ar
    34   35   17 ar
    35   36   35 1
    36   37   36 ar
    37   38   37 1
    38   39   37 ar
    39   40   39 1
    40   41   39 ar
    41   42   41 1
    42   43   41 ar
    43   44   43 1
    44   45   36 ar
    45   46   34 1
    46   47   46 1
    47   48   46 1
    48   49   48 1
    49   50   48 1
    50   51   50 ar
    51   52   51 1
    52   53   51 ar
    53   54   53 1
    54   55   53 ar
    55   56   55 1
    56   57   55 ar
    57   58   57 1
    58   59   50 ar
    59   60   59 1
    60   61   48 1
    61   62   61 ar
    62   63   62 1
    63   64   63 1
    64   65   63 1
    65   66   63 1
    66   67   66 ar
    67   68   67 1
    68   69   67 ar
    69   70   69 1
    70   71   69 ar
    71   72   71 1
    72   73   71 ar
    73   74   73 1
    74   75   66 ar
    75   76   62 ar
    76   77   76 ar
    77   78   60 ar
    78   79   78 1
    79   80   79 ar
    80   81   80 1
    81   82   80 ar
    82   83   82 1
    83   84   82 ar
    84   85   84 1
    85   86   84 ar
    86   87   86 ar
    87   88   87 1
    88   89   87 ar
    89   90   89 1
    90   91   89 ar
    91   92   91 1
    92   93   77 1
    93   94   79 ar
    94    8   16 ar
    95   15   16 ar
    96   17   18 ar
    97   27   29 ar
    98   30   33 1
    99   34   35 ar
   100   43   45 ar
   101   45   46 1
   102   57   59 ar
   103   60   61 ar
   104   73   75 ar
   105   75   76 1
   106   77   78 ar
   107   86   94 ar
   108   91   93 ar
   109   93   94 ar
@<TRIPOS>SUBSTRUCTURE
     1 RES1 1

@<TRIPOS>CRYSIN
   8.6371   20.4950   20.7650  90.0000  93.8760  90.0000 231 1

