# MOL2 file generated by ConQuest
# Please check atom types

@<TRIPOS>MOLECULE
LONBAT
    60    64     2
SMALL
NO_CHARGES
****
Generated from CSD

@<TRIPOS>ATOM
      1 C1         0.2265    7.7939    3.9995 C.ar      1 RES1    0.0000
      2 C2        -0.8202    7.1538    4.6369 C.ar      1 RES1    0.0000
      3 H1        -0.8528    7.1388    5.5847 H         1 RES1    0.0000
      4 C3        -1.8371    6.5246    3.8953 C.ar      1 RES1    0.0000
      5 H2        -2.5408    6.0762    4.3494 H         1 RES1    0.0000
      6 C4        -1.8200    6.5529    2.5413 C.ar      1 RES1    0.0000
      7 H3        -2.5237    6.1346    2.0602 H         1 RES1    0.0000
      8 C5        -1.7801    6.7463   -0.4416 C.ar      1 RES1    0.0000
      9 H4        -2.5191    6.3113   -0.0333 H         1 RES1    0.0000
     10 C6        -1.7525    6.8605   -1.7998 C.ar      1 RES1    0.0000
     11 C7        -0.6394    7.4655   -2.4289 C.ar      1 RES1    0.0000
     12 H5        -0.6041    7.5330   -3.3767 H         1 RES1    0.0000
     13 C8         0.3912    7.9547   -1.6623 C.ar      1 RES1    0.0000
     14 H6         1.1362    8.3614   -2.0893 H         1 RES1    0.0000
     15 C9         1.4136    8.4164    0.5333 C.ar      1 RES1    0.0000
     16 H7         2.1614    8.8114    0.1000 H         1 RES1    0.0000
     17 C10        1.3751    8.3947    1.8768 C.ar      1 RES1    0.0000
     18 H8         2.0932    8.7756    2.3684 H         1 RES1    0.0000
     19 C11       -0.7821    7.1913    1.8269 C.ar      1 RES1    0.0000
     20 C12       -0.7404    7.2555    0.3812 C.ar      1 RES1    0.0000
     21 C13        0.3650    7.8655   -0.2625 C.ar      1 RES1    0.0000
     22 C14        0.2674    7.8055    2.5872 C.ar      1 RES1    0.0000
     23 C15        1.2998    8.4881    4.8036 C.3       1 RES1    0.0000
     24 H9         1.1029    8.3939    5.7597 H         1 RES1    0.0000
     25 H10        1.3224    9.4390    4.5661 H         1 RES1    0.0000
     26 H11        2.1696    8.0814    4.6077 H         1 RES1    0.0000
     27 C16       -2.8771    6.3379   -2.6642 C.3       1 RES1    0.0000
     28 H12       -3.7121    6.3379   -2.1497 H         1 RES1    0.0000
     29 H13       -2.6710    5.4237   -2.9517 H         1 RES1    0.0000
     30 H14       -2.9775    6.9130   -3.4516 H         1 RES1    0.0000
     31 C17        3.3845    3.0519    2.8621 C.ar      2 RES2    0.0000
     32 C18        2.3614    3.7119    3.4891 C.ar      2 RES2    0.0000
     33 H15        2.3519    3.7669    4.4369 H         2 RES2    0.0000
     34 C19        1.3244    4.3111    2.7517 C.ar      2 RES2    0.0000
     35 H16        0.6342    4.7812    3.2038 H         2 RES2    0.0000
     36 C20        1.3034    4.2211    1.3873 C.ar      2 RES2    0.0000
     37 H17        0.5964    4.6345    0.9061 H         2 RES2    0.0000
     38 C21        1.2229    3.8153   -1.5623 C.ar      2 RES2    0.0000
     39 H18        0.5063    4.2861   -1.1519 H         2 RES2    0.0000
     40 C22        1.1901    3.6169   -2.9205 C.ar      2 RES2    0.0000
     41 C23        2.2096    2.8577   -3.5246 C.ar      2 RES2    0.0000
     42 H19        2.1727    2.6693   -4.4557 H         2 RES2    0.0000
     43 C24        3.2555    2.3893   -2.7705 C.ar      2 RES2    0.0000
     44 H20        3.9494    1.8951   -3.1913 H         2 RES2    0.0000
     45 C25        4.4257    2.1660   -0.6041 C.ar      2 RES2    0.0000
     46 H21        5.1577    1.7476   -1.0415 H         2 RES2    0.0000
     47 C26        4.4557    2.3118    0.7457 C.ar      2 RES2    0.0000
     48 H22        5.1932    1.9685    1.2353 H         2 RES2    0.0000
     49 C27        2.3044    3.5302    0.6791 C.ar      2 RES2    0.0000
     50 C28        2.2715    3.3511   -0.7520 C.ar      2 RES2    0.0000
     51 C29        3.3181    2.6277   -1.3873 C.ar      2 RES2    0.0000
     52 C30        3.3915    2.9752    1.4456 C.ar      2 RES2    0.0000
     53 C31        4.4769    2.4068    3.6704 C.3       2 RES2    0.0000
     54 H23        5.3380    2.8102    3.4371 H         2 RES2    0.0000
     55 H24        4.5020    1.4468    3.4787 H         2 RES2    0.0000
     56 H25        4.3013    2.5443    4.6244 H         2 RES2    0.0000
     57 C32        0.1011    4.1945   -3.7766 C.3       2 RES2    0.0000
     58 H26       -0.7404    4.1995   -3.2746 H         2 RES2    0.0000
     59 H27       -0.0028    3.6494   -4.5848 H         2 RES2    0.0000
     60 H28        0.3358    5.1120   -4.0287 H         2 RES2    0.0000
@<TRIPOS>BOND
     1    1    2 ar
     2    2    3 1
     3    4    2 ar
     4    5    4 1
     5    6    4 ar
     6    7    6 1
     7    8    9 1
     8   10    8 ar
     9   11   10 ar
    10   12   11 1
    11   13   11 ar
    12   14   13 1
    13   15   16 1
    14   17   15 ar
    15   18   17 1
    16   19    6 ar
    17   20    8 ar
    18   21   13 ar
    19   22    1 ar
    20   23    1 1
    21   24   23 1
    22   25   23 1
    23   26   23 1
    24   27   10 1
    25   28   27 1
    26   29   27 1
    27   30   27 1
    28   31   32 ar
    29   32   33 1
    30   34   32 ar
    31   35   34 1
    32   36   34 ar
    33   37   36 1
    34   38   39 1
    35   40   38 ar
    36   41   40 ar
    37   42   41 1
    38   43   41 ar
    39   44   43 1
    40   45   46 1
    41   47   45 ar
    42   48   47 1
    43   49   36 ar
    44   50   38 ar
    45   51   43 ar
    46   52   31 ar
    47   53   31 1
    48   54   53 1
    49   55   53 1
    50   56   53 1
    51   57   40 1
    52   58   57 1
    53   59   57 1
    54   60   57 1
    55   15   21 ar
    56   17   22 ar
    57   19   20 ar
    58   19   22 ar
    59   20   21 ar
    60   45   51 ar
    61   47   52 ar
    62   49   50 ar
    63   49   52 ar
    64   50   51 ar
@<TRIPOS>SUBSTRUCTURE
     1 RES1 1
     2 RES2 31

@<TRIPOS>CRYSIN
   6.4268    8.3339   20.8508  90.0000  92.5170  90.0000   7 1

