# MOL2 file generated by ConQuest
# Please check atom types

@<TRIPOS>MOLECULE
LUPXUQ
    71    78     1
SMALL
NO_CHARGES
****
Generated from CSD

@<TRIPOS>ATOM
      1 C1        -4.9352   -2.8062    6.5667 C.2       1 RES1    0.0000
      2 C2        -5.1489   -2.7010    5.2461 C.2       1 RES1    0.0000
      3 H1        -4.7972   -2.0154    4.7242 H         1 RES1    0.0000
      4 C3        -6.0090   -3.7948    4.6941 C.3       1 RES1    0.0000
      5 C4        -6.3126   -4.5686    5.9420 C.ar      1 RES1    0.0000
      6 C5        -5.6796   -3.9845    7.0458 C.ar      1 RES1    0.0000
      7 C6        -5.8618   -4.5105    8.3125 C.ar      1 RES1    0.0000
      8 H2        -5.4478   -4.1250    9.0495 H         1 RES1    0.0000
      9 C7        -6.6748   -5.6241    8.4611 C.ar      1 RES1    0.0000
     10 H3        -6.8097   -5.9867    9.3076 H         1 RES1    0.0000
     11 C8        -7.2892   -6.2008    7.3667 C.ar      1 RES1    0.0000
     12 H4        -7.8233   -6.9525    7.4852 H         1 RES1    0.0000
     13 C9        -7.1230   -5.6800    6.1070 C.ar      1 RES1    0.0000
     14 H5        -7.5489   -6.0676    5.3753 H         1 RES1    0.0000
     15 C10       -7.2738   -3.2549    4.0179 C.3       1 RES1    0.0000
     16 H6        -7.7687   -2.7208    4.6440 H         1 RES1    0.0000
     17 H7        -7.8204   -3.9889    3.7250 H         1 RES1    0.0000
     18 H8        -7.0287   -2.7164    3.2616 H         1 RES1    0.0000
     19 C11       -5.1883   -4.6480    3.7266 C.3       1 RES1    0.0000
     20 H9        -4.4029   -4.9746    4.1747 H         1 RES1    0.0000
     21 H10       -4.9287   -4.1155    2.9722 H         1 RES1    0.0000
     22 H11       -5.7192   -5.3909    3.4278 H         1 RES1    0.0000
     23 C12       -4.0999   -1.8963    7.3626 C.ar      1 RES1    0.0000
     24 C13       -3.2756   -2.3266    8.3968 C.ar      1 RES1    0.0000
     25 H12       -3.2934   -3.2218    8.6467 H         1 RES1    0.0000
     26 C14       -2.4317   -1.4564    9.0632 C.ar      1 RES1    0.0000
     27 H13       -1.8820   -1.7756    9.7417 H         1 RES1    0.0000
     28 C15       -2.3987   -0.1125    8.7255 C.ar      1 RES1    0.0000
     29 C16       -3.2534    0.3288    7.7251 C.ar      1 RES1    0.0000
     30 H14       -3.2712    1.2321    7.5047 H         1 RES1    0.0000
     31 C17       -4.0705   -0.5414    7.0587 C.ar      1 RES1    0.0000
     32 H15       -4.6213   -0.2170    6.3843 H         1 RES1    0.0000
     33 C18       -1.4918    0.8643    9.3948 C.ar      1 RES1    0.0000
     34 C19       -0.1515    0.9798    8.9940 C.ar      1 RES1    0.0000
     35 C20        0.4016    0.1420    7.9846 C.ar      1 RES1    0.0000
     36 H16       -0.1316   -0.5164    7.6006 H         1 RES1    0.0000
     37 C21        1.6804    0.2810    7.5720 C.ar      1 RES1    0.0000
     38 H17        2.0162   -0.2825    6.9123 H         1 RES1    0.0000
     39 C22        2.5048    1.2681    8.1295 C.ar      1 RES1    0.0000
     40 H18        3.3829    1.3593    7.8352 H         1 RES1    0.0000
     41 C23        2.0284    2.0890    9.0974 C.ar      1 RES1    0.0000
     42 H19        2.5886    2.7378    9.4601 H         1 RES1    0.0000
     43 C24        0.6891    1.9794    9.5731 C.ar      1 RES1    0.0000
     44 C25        0.1862    2.8393   10.5585 C.ar      1 RES1    0.0000
     45 C26       -1.1602    2.7238   10.9661 C.ar      1 RES1    0.0000
     46 C27       -1.7312    3.5895   11.9380 C.ar      1 RES1    0.0000
     47 H20       -1.2003    4.2464   12.3267 H         1 RES1    0.0000
     48 C28       -3.0220    3.4866   12.3148 C.ar      1 RES1    0.0000
     49 H21       -3.3677    4.0691   12.9524 H         1 RES1    0.0000
     50 C29       -3.8455    2.5016   11.7473 C.ar      1 RES1    0.0000
     51 H22       -4.7334    2.4296   12.0158 H         1 RES1    0.0000
     52 C30       -3.3549    1.6587   10.8144 C.ar      1 RES1    0.0000
     53 H23       -3.9157    1.0129   10.4476 H         1 RES1    0.0000
     54 C31       -2.0009    1.7337   10.3774 C.ar      1 RES1    0.0000
     55 C32        1.0516    3.8786   11.1990 C.ar      1 RES1    0.0000
     56 C33        1.3520    5.0349   10.5612 C.ar      1 RES1    0.0000
     57 H24        1.0329    5.1688    9.6987 H         1 RES1    0.0000
     58 C34        2.1251    6.0309   11.1554 C.ar      1 RES1    0.0000
     59 H25        2.3099    6.8142   10.6900 H         1 RES1    0.0000
     60 C35        2.6099    5.8602   12.4127 C.ar      1 RES1    0.0000
     61 H26        3.1128    6.5355   12.8077 H         1 RES1    0.0000
     62 C36        2.3554    4.6657   13.1323 C.ar      1 RES1    0.0000
     63 C37        1.5695    3.6616   12.5095 C.ar      1 RES1    0.0000
     64 C38        1.3340    2.4502   13.2293 C.ar      1 RES1    0.0000
     65 H27        0.8313    1.7720   12.8371 H         1 RES1    0.0000
     66 C39        1.8310    2.2810   14.4694 C.ar      1 RES1    0.0000
     67 H28        1.6711    1.4851   14.9234 H         1 RES1    0.0000
     68 C40        2.5788    3.2762   15.0779 C.ar      1 RES1    0.0000
     69 H29        2.9029    3.1416   15.9402 H         1 RES1    0.0000
     70 C41        2.8376    4.4222   14.4522 C.ar      1 RES1    0.0000
     71 H30        3.3400    5.0746   14.8824 H         1 RES1    0.0000
@<TRIPOS>BOND
     1    1    2 2
     2    2    3 1
     3    4    2 1
     4    5    4 1
     5    6    1 1
     6    7    6 ar
     7    8    7 1
     8    9    7 ar
     9   10    9 1
    10   11    9 ar
    11   12   11 1
    12   13    5 ar
    13   14   13 1
    14   15    4 1
    15   16   15 1
    16   17   15 1
    17   18   15 1
    18   19    4 1
    19   20   19 1
    20   21   19 1
    21   22   19 1
    22   23    1 1
    23   24   23 ar
    24   25   24 1
    25   26   24 ar
    26   27   26 1
    27   28   26 ar
    28   29   28 ar
    29   30   29 1
    30   31   23 ar
    31   32   31 1
    32   33   28 1
    33   34   33 ar
    34   35   34 ar
    35   36   35 1
    36   37   35 ar
    37   38   37 1
    38   39   37 ar
    39   40   39 1
    40   41   39 ar
    41   42   41 1
    42   43   34 ar
    43   44   43 ar
    44   45   44 ar
    45   46   45 ar
    46   47   46 1
    47   48   46 ar
    48   49   48 1
    49   50   48 ar
    50   51   50 1
    51   52   50 ar
    52   53   52 1
    53   54   33 ar
    54   55   44 1
    55   56   55 ar
    56   57   56 1
    57   58   56 ar
    58   59   58 1
    59   60   58 ar
    60   61   60 1
    61   62   60 ar
    62   63   55 ar
    63   64   63 ar
    64   65   64 1
    65   66   64 ar
    66   67   66 1
    67   68   66 ar
    68   69   68 1
    69   70   62 ar
    70   71   70 1
    71    5    6 ar
    72   11   13 ar
    73   29   31 ar
    74   41   43 ar
    75   45   54 ar
    76   52   54 ar
    77   62   63 ar
    78   68   70 ar
@<TRIPOS>SUBSTRUCTURE
     1 RES1 1

@<TRIPOS>CRYSIN
  40.5410    7.3556   23.4120  90.0000 123.3630  90.0000  15 1

