# MOL2 file generated by ConQuest
# Please check atom types

@<TRIPOS>MOLECULE
MACSAM
    69    74     1
SMALL
NO_CHARGES
****
Generated from CSD

@<TRIPOS>ATOM
      1 C1         2.8521    6.2906    7.1086 C.ar      1 RES1    0.0000
      2 C2         1.5357    5.9805    6.6728 C.ar      1 RES1    0.0000
      3 H1         1.0131    5.4062    7.1836 H         1 RES1    0.0000
      4 C3         1.0228    6.4982    5.5364 C.ar      1 RES1    0.0000
      5 H2         0.1548    6.2743    5.2869 H         1 RES1    0.0000
      6 C4         1.7771    7.3790    4.7101 C.ar      1 RES1    0.0000
      7 C5         1.2484    7.9475    3.5629 C.ar      1 RES1    0.0000
      8 H3         0.3618    7.7755    3.3405 H         1 RES1    0.0000
      9 C6         2.0087    8.7698    2.7311 C.ar      1 RES1    0.0000
     10 C7         1.4561    9.3440    1.5523 C.ar      1 RES1    0.0000
     11 H4         0.5559    9.2001    1.3705 H         1 RES1    0.0000
     12 C8         2.1817   10.0928    0.6789 C.ar      1 RES1    0.0000
     13 C9         3.5602   10.2626    0.9908 C.ar      1 RES1    0.0000
     14 H5         4.0964   10.7291    0.3915 H         1 RES1    0.0000
     15 C10        4.1228    9.7804    2.1128 C.ar      1 RES1    0.0000
     16 H6         5.0243    9.9491    2.2710 H         1 RES1    0.0000
     17 C11        3.3821    9.0155    3.0738 C.ar      1 RES1    0.0000
     18 C12        3.9177    8.5045    4.2689 C.ar      1 RES1    0.0000
     19 C13        3.1208    7.6768    5.0971 C.ar      1 RES1    0.0000
     20 C14        3.5931    7.1171    6.3184 C.ar      1 RES1    0.0000
     21 H7         4.4567    7.3284    6.5924 H         1 RES1    0.0000
     22 C15        3.3725    5.7306    8.4330 C.3       1 RES1    0.0000
     23 C16        3.2428    4.2205    8.4484 C.3       1 RES1    0.0000
     24 H8         2.3215    3.9767    8.3263 H         1 RES1    0.0000
     25 H9         3.5551    3.8804    9.2901 H         1 RES1    0.0000
     26 H10        3.7690    3.8462    7.7378 H         1 RES1    0.0000
     27 C17        2.5357    6.2841    9.5739 C.3       1 RES1    0.0000
     28 H11        1.6277    5.9871    9.4790 H         1 RES1    0.0000
     29 H12        2.5622    7.2436    9.5522 H         1 RES1    0.0000
     30 H13        2.8883    5.9740   10.4102 H         1 RES1    0.0000
     31 C18        4.8192    6.0980    8.6952 C.3       1 RES1    0.0000
     32 H14        5.0912    5.7407    9.5441 H         1 RES1    0.0000
     33 H15        4.9097    7.0526    8.7060 H         1 RES1    0.0000
     34 H16        5.3729    5.7309    8.0027 H         1 RES1    0.0000
     35 C19        1.6300   10.6831   -0.6120 C.3       1 RES1    0.0000
     36 C20        0.1055   10.6341   -0.6618 C.3       1 RES1    0.0000
     37 H17       -0.1874    9.7223   -0.6084 H         1 RES1    0.0000
     38 H18       -0.2007   11.0212   -1.4854 H         1 RES1    0.0000
     39 H19       -0.2546   11.1289    0.0777 H         1 RES1    0.0000
     40 C21        2.1789    9.8748   -1.7900 C.3       1 RES1    0.0000
     41 H20        3.1385    9.9116   -1.7846 H         1 RES1    0.0000
     42 H21        1.8488   10.2444   -2.6127 H         1 RES1    0.0000
     43 H22        1.8929    8.9618   -1.7123 H         1 RES1    0.0000
     44 C22        2.0610   12.1435   -0.7657 C.3       1 RES1    0.0000
     45 H23        1.7638   12.6465   -0.0036 H         1 RES1    0.0000
     46 H24        1.6718   12.5094   -1.5631 H         1 RES1    0.0000
     47 H25        3.0174   12.1895   -0.8263 H         1 RES1    0.0000
     48 C23        5.3402    8.8509    4.6821 C.3       1 RES1    0.0000
     49 H26        5.7141    9.3943    3.9570 H         1 RES1    0.0000
     50 C24        6.3178    7.7137    4.9108 C.ar      1 RES1    0.0000
     51 C25        6.5506    6.5939    4.1388 C.ar      1 RES1    0.0000
     52 H27        6.0646    6.4440    3.3595 H         1 RES1    0.0000
     53 C26        7.5219    5.6997    4.5501 C.ar      1 RES1    0.0000
     54 H28        7.6842    4.9346    4.0475 H         1 RES1    0.0000
     55 C27        8.2528    5.9282    5.6946 C.ar      1 RES1    0.0000
     56 H29        8.8976    5.3115    5.9559 H         1 RES1    0.0000
     57 C28        8.0445    7.0500    6.4568 C.ar      1 RES1    0.0000
     58 H30        8.5535    7.2077    7.2189 H         1 RES1    0.0000
     59 C29        7.0600    7.9438    6.0680 C.ar      1 RES1    0.0000
     60 C30        6.5547    9.1560    6.7153 C.ar      1 RES1    0.0000
     61 C31        6.9055    9.7725    7.9087 C.ar      1 RES1    0.0000
     62 H31        7.6164    9.4498    8.4149 H         1 RES1    0.0000
     63 C32        6.1878   10.8678    8.3309 C.ar      1 RES1    0.0000
     64 H32        6.4054   11.2741    9.1391 H         1 RES1    0.0000
     65 C33        5.1494   11.3710    7.5724 C.ar      1 RES1    0.0000
     66 H33        4.6781   12.1145    7.8716 H         1 RES1    0.0000
     67 C34        4.8043   10.7771    6.3709 C.ar      1 RES1    0.0000
     68 H34        4.1118   11.1223    5.8547 H         1 RES1    0.0000
     69 C35        5.5018    9.6666    5.9532 C.ar      1 RES1    0.0000
@<TRIPOS>BOND
     1    1    2 ar
     2    2    3 1
     3    4    2 ar
     4    5    4 1
     5    6    4 ar
     6    7    6 ar
     7    8    7 1
     8    9    7 ar
     9   10    9 ar
    10   11   10 1
    11   12   10 ar
    12   13   12 ar
    13   14   13 1
    14   15   13 ar
    15   16   15 1
    16   17    9 ar
    17   18   17 ar
    18   19    6 ar
    19   20    1 ar
    20   21   20 1
    21   22    1 1
    22   23   22 1
    23   24   23 1
    24   25   23 1
    25   26   23 1
    26   27   22 1
    27   28   27 1
    28   29   27 1
    29   30   27 1
    30   31   22 1
    31   32   31 1
    32   33   31 1
    33   34   31 1
    34   35   12 1
    35   36   35 1
    36   37   36 1
    37   38   36 1
    38   39   36 1
    39   40   35 1
    40   41   40 1
    41   42   40 1
    42   43   40 1
    43   44   35 1
    44   45   44 1
    45   46   44 1
    46   47   44 1
    47   48   18 1
    48   49   48 1
    49   50   48 1
    50   51   50 ar
    51   52   51 1
    52   53   51 ar
    53   54   53 1
    54   55   53 ar
    55   56   55 1
    56   57   55 ar
    57   58   57 1
    58   59   50 ar
    59   60   59 1
    60   61   60 ar
    61   62   61 1
    62   63   61 ar
    63   64   63 1
    64   65   63 ar
    65   66   65 1
    66   67   65 ar
    67   68   67 1
    68   69   48 1
    69   15   17 ar
    70   18   19 ar
    71   19   20 ar
    72   57   59 ar
    73   60   69 ar
    74   67   69 ar
@<TRIPOS>SUBSTRUCTURE
     1 RES1 1

@<TRIPOS>CRYSIN
  17.7400   16.3180    9.1125  90.0000  97.2050  90.0000  14 1

