# MOL2 file generated by ConQuest
# Please check atom types

@<TRIPOS>MOLECULE
MAHWIE
   104   112     2
SMALL
NO_CHARGES
****
Generated from CSD

@<TRIPOS>ATOM
      1 C1        18.8930    4.9952   14.4190 C.ar      1 RES1    0.0000
      2 C2        18.6832    3.8959   15.2970 C.ar      1 RES1    0.0000
      3 H1        17.9704    3.3187   15.1413 H         1 RES1    0.0000
      4 C3        19.5002    3.6708   16.3590 C.ar      1 RES1    0.0000
      5 H2        19.3433    2.9430   16.9156 H         1 RES1    0.0000
      6 C4        20.5783    4.5291   16.6207 C.ar      1 RES1    0.0000
      7 H3        21.1315    4.3637   17.3502 H         1 RES1    0.0000
      8 C5        20.8181    5.5853   15.8332 C.ar      1 RES1    0.0000
      9 H4        21.5332    6.1471   16.0268 H         1 RES1    0.0000
     10 C6        19.9908    5.8636   14.6979 C.ar      1 RES1    0.0000
     11 C7        20.2381    6.9351   13.8646 C.ar      1 RES1    0.0000
     12 H5        20.9351    7.5164   14.0677 H         1 RES1    0.0000
     13 C8        19.4698    7.1679   12.7261 C.ar      1 RES1    0.0000
     14 C9        19.7653    8.2259   11.8250 C.ar      1 RES1    0.0000
     15 H6        20.4479    8.8208   12.0339 H         1 RES1    0.0000
     16 C10       19.0797    8.3889   10.6794 C.ar      1 RES1    0.0000
     17 H7        19.3021    9.0813   10.1007 H         1 RES1    0.0000
     18 C11       18.0240    7.5135   10.3537 C.ar      1 RES1    0.0000
     19 H8        17.5656    7.6216    9.5525 H         1 RES1    0.0000
     20 C12       17.6717    6.5145   11.2013 C.ar      1 RES1    0.0000
     21 H9        16.9569    5.9622   10.9830 H         1 RES1    0.0000
     22 C13       18.3761    6.2942   12.4231 C.ar      1 RES1    0.0000
     23 C14       18.0763    5.2285   13.2986 C.ar      1 RES1    0.0000
     24 C15       16.9218    4.3336   13.0265 C.2       1 RES1    0.0000
     25 H10       17.1063    3.4516   12.7929 H         1 RES1    0.0000
     26 C16       15.6820    4.6916   13.0884 C.2       1 RES1    0.0000
     27 H11       15.5239    5.5753   13.3314 H         1 RES1    0.0000
     28 C17       14.4861    3.8687   12.8202 C.ar      1 RES1    0.0000
     29 C18       14.5475    2.6311   12.1731 C.ar      1 RES1    0.0000
     30 H12       15.3691    2.2920   11.9009 H         1 RES1    0.0000
     31 C19       13.3972    1.9134   11.9385 C.ar      1 RES1    0.0000
     32 H13       13.4462    1.0928   11.5020 H         1 RES1    0.0000
     33 C20       12.1691    2.4001   12.3443 C.ar      1 RES1    0.0000
     34 H14       11.4019    1.8974   12.1928 H         1 RES1    0.0000
     35 C21       12.0682    3.6342   12.9785 C.ar      1 RES1    0.0000
     36 C22       13.2466    4.3424   13.2032 C.ar      1 RES1    0.0000
     37 H15       13.1969    5.1677   13.6298 H         1 RES1    0.0000
     38 C23       10.7408    4.1516   13.3375 C.2       1 RES1    0.0000
     39 H16       10.0111    3.6093   13.1400 H         1 RES1    0.0000
     40 C24       10.4818    5.3041   13.9113 C.2       1 RES1    0.0000
     41 H17       11.2190    5.8264   14.1293 H         1 RES1    0.0000
     42 C25        9.1686    5.8677   14.2496 C.ar      1 RES1    0.0000
     43 C26        7.9595    5.2864   13.8880 C.ar      1 RES1    0.0000
     44 H18        7.9589    4.4984   13.3930 H         1 RES1    0.0000
     45 C27        6.7658    5.8606   14.2506 C.ar      1 RES1    0.0000
     46 H19        5.9666    5.4566   13.9996 H         1 RES1    0.0000
     47 C28        6.7403    7.0214   14.9775 C.ar      1 RES1    0.0000
     48 H20        5.9292    7.4042   15.2224 H         1 RES1    0.0000
     49 C29        7.9166    7.6109   15.3395 C.ar      1 RES1    0.0000
     50 H21        7.9051    8.3990   15.8355 H         1 RES1    0.0000
     51 C30        9.1187    7.0474   14.9775 C.ar      1 RES1    0.0000
     52 H22        9.9117    7.4650   15.2257 H         1 RES1    0.0000
     53 C31        1.1410    3.4197   10.2168 C.ar      2 RES2    0.0000
     54 C32        0.8741    3.5922    8.8243 C.ar      2 RES2    0.0000
     55 H23        1.2681    3.0133    8.2129 H         2 RES2    0.0000
     56 C33        0.0645    4.5746    8.3718 C.ar      2 RES2    0.0000
     57 H24       -0.1083    4.6449    7.4604 H         2 RES2    0.0000
     58 C34       -0.5223    5.4950    9.2648 C.ar      2 RES2    0.0000
     59 H25       -1.0667    6.1755    8.9427 H         2 RES2    0.0000
     60 C35       -0.2925    5.3863   10.5879 C.ar      2 RES2    0.0000
     61 H26       -0.6746    6.0036   11.1679 H         2 RES2    0.0000
     62 C36        0.5236    4.3478   11.1160 C.ar      2 RES2    0.0000
     63 C37        0.7019    4.1835   12.4832 C.ar      2 RES2    0.0000
     64 H27        0.3293    4.8062   13.0654 H         2 RES2    0.0000
     65 C38        1.4167    3.1220   13.0038 C.ar      2 RES2    0.0000
     66 C39        1.5417    2.9099   14.4134 C.ar      2 RES2    0.0000
     67 H28        1.1476    3.5154   14.9986 H         2 RES2    0.0000
     68 C40        2.2100    1.8673   14.9104 C.ar      2 RES2    0.0000
     69 H29        2.2673    1.7521   15.8322 H         2 RES2    0.0000
     70 C41        2.8256    0.9428   14.0511 C.ar      2 RES2    0.0000
     71 H30        3.2834    0.2162   14.4083 H         2 RES2    0.0000
     72 C42        2.7569    1.1005   12.7002 C.ar      2 RES2    0.0000
     73 H31        3.1875    0.4885   12.1474 H         2 RES2    0.0000
     74 C43        2.0392    2.1851   12.1163 C.ar      2 RES2    0.0000
     75 C44        1.9309    2.3688   10.7232 C.ar      2 RES2    0.0000
     76 C45        2.6427    1.4508    9.8088 C.2       2 RES2    0.0000
     77 H32        2.3806    0.5588    9.7926 H         2 RES2    0.0000
     78 C46        3.6190    1.8236    9.0222 C.2       2 RES2    0.0000
     79 H33        3.8636    2.7191    9.0692 H         2 RES2    0.0000
     80 C47        4.3784    0.9948    8.0679 C.ar      2 RES2    0.0000
     81 C48        3.9178   -0.2381    7.6031 C.ar      2 RES2    0.0000
     82 H34        3.0960   -0.5636    7.8885 H         2 RES2    0.0000
     83 C49        4.6794   -0.9741    6.7218 C.ar      2 RES2    0.0000
     84 H35        4.3680   -1.7958    6.4159 H         2 RES2    0.0000
     85 C50        5.8975   -0.5021    6.2888 C.ar      2 RES2    0.0000
     86 H36        6.4057   -1.0172    5.7023 H         2 RES2    0.0000
     87 C51        6.3837    0.7301    6.7104 C.ar      2 RES2    0.0000
     88 C52        5.6009    1.4585    7.6122 C.ar      2 RES2    0.0000
     89 H37        5.9121    2.2808    7.9145 H         2 RES2    0.0000
     90 C53        7.6497    1.2334    6.1652 C.2       2 RES2    0.0000
     91 H38        8.1178    0.6587    5.6018 H         2 RES2    0.0000
     92 C54        8.1954    2.4131    6.3867 C.2       2 RES2    0.0000
     93 H39        7.7332    2.9761    6.9641 H         2 RES2    0.0000
     94 C55        9.4463    2.9442    5.8288 C.ar      2 RES2    0.0000
     95 C56       10.1902    2.2784    4.8599 C.ar      2 RES2    0.0000
     96 H40        9.8815    1.4703    4.5184 H         2 RES2    0.0000
     97 C57       11.3762    2.7983    4.3990 C.ar      2 RES2    0.0000
     98 H41       11.8643    2.3316    3.7594 H         2 RES2    0.0000
     99 C58       11.8492    3.9939    4.8684 C.ar      2 RES2    0.0000
    100 H42       12.6548    4.3365    4.5541 H         2 RES2    0.0000
    101 C59       11.1217    4.6815    5.8077 C.ar      2 RES2    0.0000
    102 H43       11.4302    5.4991    6.1272 H         2 RES2    0.0000
    103 C60        9.9320    4.1629    6.2820 C.ar      2 RES2    0.0000
    104 H44        9.4475    4.6396    6.9154 H         2 RES2    0.0000
@<TRIPOS>BOND
     1    1    2 ar
     2    2    3 1
     3    4    2 ar
     4    5    4 1
     5    6    4 ar
     6    7    6 1
     7    8    6 ar
     8    9    8 1
     9   10    1 ar
    10   11   10 ar
    11   12   11 1
    12   13   11 ar
    13   14   13 ar
    14   15   14 1
    15   16   14 ar
    16   17   16 1
    17   18   16 ar
    18   19   18 1
    19   20   18 ar
    20   21   20 1
    21   22   13 ar
    22   23    1 ar
    23   24   23 1
    24   25   24 1
    25   26   24 2
    26   27   26 1
    27   28   26 1
    28   29   28 ar
    29   30   29 1
    30   31   29 ar
    31   32   31 1
    32   33   31 ar
    33   34   33 1
    34   35   33 ar
    35   36   28 ar
    36   37   36 1
    37   38   35 1
    38   39   38 1
    39   40   38 2
    40   41   40 1
    41   42   40 1
    42   43   42 ar
    43   44   43 1
    44   45   43 ar
    45   46   45 1
    46   47   45 ar
    47   48   47 1
    48   49   47 ar
    49   50   49 1
    50   51   42 ar
    51   52   51 1
    52   53   54 ar
    53   54   55 1
    54   56   54 ar
    55   57   56 1
    56   58   56 ar
    57   59   58 1
    58   60   58 ar
    59   61   60 1
    60   62   53 ar
    61   63   62 ar
    62   64   63 1
    63   65   63 ar
    64   66   65 ar
    65   67   66 1
    66   68   66 ar
    67   69   68 1
    68   70   68 ar
    69   71   70 1
    70   72   70 ar
    71   73   72 1
    72   74   65 ar
    73   75   53 ar
    74   76   75 1
    75   77   76 1
    76   78   76 2
    77   79   78 1
    78   80   78 1
    79   81   80 ar
    80   82   81 1
    81   83   81 ar
    82   84   83 1
    83   85   83 ar
    84   86   85 1
    85   87   85 ar
    86   88   80 ar
    87   89   88 1
    88   90   87 1
    89   91   90 1
    90   92   90 2
    91   93   92 1
    92   94   92 1
    93   95   94 ar
    94   96   95 1
    95   97   95 ar
    96   98   97 1
    97   99   97 ar
    98  100   99 1
    99  101   99 ar
   100  102  101 1
   101  103   94 ar
   102  104  103 1
   103    8   10 ar
   104   20   22 ar
   105   22   23 ar
   106   35   36 ar
   107   49   51 ar
   108   60   62 ar
   109   72   74 ar
   110   74   75 ar
   111   87   88 ar
   112  101  103 ar
@<TRIPOS>SUBSTRUCTURE
     1 RES1 1
     2 RES2 53

@<TRIPOS>CRYSIN
  22.1305    5.9073   33.8663  90.0000 106.7088  90.0000  13 1

