# MOL2 file generated by ConQuest
# Please check atom types

@<TRIPOS>MOLECULE
MAHWOK
   104   112     2
SMALL
NO_CHARGES
****
Generated from CSD

@<TRIPOS>ATOM
      1 C1         8.3713    3.7068    3.4165 C.ar      1 RES1    0.0000
      2 C2         7.2031    3.0325    3.8694 C.ar      1 RES1    0.0000
      3 H1         7.1793    2.7236    4.7464 H         1 RES1    0.0000
      4 C3         6.1311    2.8223    3.0840 C.ar      1 RES1    0.0000
      5 H2         5.4064    2.3328    3.3996 H         1 RES1    0.0000
      6 C4         6.1173    3.3563    1.7661 C.ar      1 RES1    0.0000
      7 H3         5.3623    3.2536    1.2312 H         1 RES1    0.0000
      8 C5         7.1894    4.0068    1.2866 C.ar      1 RES1    0.0000
      9 H4         7.1719    4.3311    0.4144 H         1 RES1    0.0000
     10 C6         8.3501    4.2102    2.0817 C.ar      1 RES1    0.0000
     11 C7         9.4493    4.8985    1.5974 C.ar      1 RES1    0.0000
     12 H5         9.4218    5.2318    0.7300 H         1 RES1    0.0000
     13 C8        10.5978    5.1131    2.3636 C.ar      1 RES1    0.0000
     14 C9        11.7292    5.7934    1.8480 C.ar      1 RES1    0.0000
     15 H6        11.6962    6.1456    0.9878 H         1 RES1    0.0000
     16 C10       12.8459    5.9387    2.5756 C.ar      1 RES1    0.0000
     17 H7        13.5771    6.3929    2.2214 H         1 RES1    0.0000
     18 C11       12.9092    5.3886    3.9056 C.ar      1 RES1    0.0000
     19 H8        13.6882    5.4798    4.4043 H         1 RES1    0.0000
     20 C12       11.8611    4.7513    4.4260 C.ar      1 RES1    0.0000
     21 H9        11.9272    4.4009    5.2861 H         1 RES1    0.0000
     22 C13       10.6435    4.5921    3.7032 C.ar      1 RES1    0.0000
     23 C14        9.5022    3.8981    4.2188 C.ar      1 RES1    0.0000
     24 C15        9.5210    3.2846    5.5777 C.2       1 RES1    0.0000
     25 H10        9.5737    2.3562    5.5704 H         1 RES1    0.0000
     26 C16        9.4821    3.7561    6.6739 C.2       1 RES1    0.0000
     27 H11        9.4425    4.6857    6.6739 H         1 RES1    0.0000
     28 C17        9.4831    3.1667    8.0256 C.ar      1 RES1    0.0000
     29 C18        9.7065    1.8030    8.3075 C.ar      1 RES1    0.0000
     30 H12        9.8641    1.2126    7.6063 H         1 RES1    0.0000
     31 C19        9.6962    1.3289    9.5940 C.ar      1 RES1    0.0000
     32 H13        9.8403    0.4231    9.7458 H         1 RES1    0.0000
     33 C20        9.4743    2.1742   10.6807 C.ar      1 RES1    0.0000
     34 C21        9.2605    3.5115   10.3940 C.ar      1 RES1    0.0000
     35 H14        9.1119    4.1057   11.0927 H         1 RES1    0.0000
     36 C22        9.2620    3.9850    9.1001 C.ar      1 RES1    0.0000
     37 H15        9.1074    4.8905    8.9532 H         1 RES1    0.0000
     38 C23        9.4965    1.5527   12.0323 C.2       1 RES1    0.0000
     39 H16        9.6531    0.6361   12.0540 H         1 RES1    0.0000
     40 C24        9.3346    2.0974   13.1358 C.2       1 RES1    0.0000
     41 H17        9.1745    3.0132   13.1117 H         1 RES1    0.0000
     42 C25        9.3612    1.4850   14.4899 C.ar      1 RES1    0.0000
     43 C26        9.6086    0.1483   14.7862 C.ar      1 RES1    0.0000
     44 H18        9.7948   -0.4462   14.0947 H         1 RES1    0.0000
     45 C27        9.5809   -0.3156   16.0945 C.ar      1 RES1    0.0000
     46 H19        9.7443   -1.2133   16.2776 H         1 RES1    0.0000
     47 C28        9.3105    0.5648   17.1233 C.ar      1 RES1    0.0000
     48 H20        9.2835    0.2642   18.0027 H         1 RES1    0.0000
     49 C29        9.0826    1.8773   16.8390 C.ar      1 RES1    0.0000
     50 H21        8.9050    2.4726   17.5305 H         1 RES1    0.0000
     51 C30        9.1124    2.3287   15.5452 C.ar      1 RES1    0.0000
     52 H22        8.9602    3.2304   15.3789 H         1 RES1    0.0000
     53 C31        3.4622   -0.8747   20.4675 C.ar      2 RES2    0.0000
     54 C32        2.2242   -1.1004   19.8049 C.ar      2 RES2    0.0000
     55 H23        2.1108   -0.7637   18.9448 H         2 RES2    0.0000
     56 C33        1.2099   -1.7815   20.3687 C.ar      2 RES2    0.0000
     57 H24        0.4208   -1.9177   19.8989 H         2 RES2    0.0000
     58 C34        1.3512   -2.2919   21.6938 C.ar      2 RES2    0.0000
     59 H25        0.6427   -2.7413   22.0938 H         2 RES2    0.0000
     60 C35        2.5049   -2.1252   22.3636 C.ar      2 RES2    0.0000
     61 H26        2.5873   -2.4846   23.2165 H         2 RES2    0.0000
     62 C36        3.6072   -1.4092   21.7998 C.ar      2 RES2    0.0000
     63 C37        4.7775   -1.2170   22.4985 C.ar      2 RES2    0.0000
     64 H27        4.8560   -1.5629   23.3587 H         2 RES2    0.0000
     65 C38        5.8473   -0.5142   21.9444 C.ar      2 RES2    0.0000
     66 C39        7.0487   -0.3180   22.6841 C.ar      2 RES2    0.0000
     67 H28        7.1213   -0.6748   23.5418 H         2 RES2    0.0000
     68 C40        8.0892    0.3799   22.1636 C.ar      2 RES2    0.0000
     69 H29        8.8754    0.4779   22.6503 H         2 RES2    0.0000
     70 C41        7.9726    0.9596   20.8746 C.ar      2 RES2    0.0000
     71 H30        8.6698    1.4694   20.5325 H         2 RES2    0.0000
     72 C42        6.8404    0.7707   20.1350 C.ar      2 RES2    0.0000
     73 H31        6.7849    1.1509   19.2893 H         2 RES2    0.0000
     74 C43        5.7433    0.0079   20.6241 C.ar      2 RES2    0.0000
     75 C44        4.5569   -0.1859   19.8916 C.ar      2 RES2    0.0000
     76 C45        4.3693    0.3349   18.5087 C.2       2 RES2    0.0000
     77 H32        3.5917    0.8204   18.3545 H         2 RES2    0.0000
     78 C46        5.1659    0.1917   17.4943 C.2       2 RES2    0.0000
     79 H33        5.9600   -0.2664   17.6509 H         2 RES2    0.0000
     80 C47        4.9410    0.6781   16.1234 C.ar      2 RES2    0.0000
     81 C48        5.9076    0.4346   15.1669 C.ar      2 RES2    0.0000
     82 H34        6.6926    0.0025   15.4175 H         2 RES2    0.0000
     83 C49        5.7400    0.8191   13.8466 C.ar      2 RES2    0.0000
     84 H35        6.4099    0.6340   13.2298 H         2 RES2    0.0000
     85 C50        4.5965    1.4700   13.4321 C.ar      2 RES2    0.0000
     86 C51        3.6160    1.7102   14.3766 C.ar      2 RES2    0.0000
     87 H36        2.8318    2.1397   14.1236 H         2 RES2    0.0000
     88 C52        3.7848    1.3222   15.6921 C.ar      2 RES2    0.0000
     89 H37        3.1081    1.4964   16.3065 H         2 RES2    0.0000
     90 C53        4.3672    1.9377   12.0444 C.2       2 RES2    0.0000
     91 H38        3.5203    2.2688   11.8468 H         2 RES2    0.0000
     92 C54        5.2326    1.9298   11.0710 C.2       2 RES2    0.0000
     93 H39        6.0814    1.6138   11.2806 H         2 RES2    0.0000
     94 C55        5.0286    2.3618    9.6808 C.ar      2 RES2    0.0000
     95 C56        6.0337    2.1082    8.7749 C.ar      2 RES2    0.0000
     96 H40        6.8235    1.7141    9.0664 H         2 RES2    0.0000
     97 C57        5.8882    2.4266    7.4545 C.ar      2 RES2    0.0000
     98 H41        6.5801    2.2332    6.8642 H         2 RES2    0.0000
     99 C58        4.7573    3.0201    6.9799 C.ar      2 RES2    0.0000
    100 H42        4.6786    3.2335    6.0764 H         2 RES2    0.0000
    101 C59        3.7327    3.2986    7.8545 C.ar      2 RES2    0.0000
    102 H43        2.9518    3.6962    7.5437 H         2 RES2    0.0000
    103 C60        3.8645    2.9885    9.1989 C.ar      2 RES2    0.0000
    104 H44        3.1759    3.1967    9.7868 H         2 RES2    0.0000
@<TRIPOS>BOND
     1    1    2 ar
     2    2    3 1
     3    4    2 ar
     4    5    4 1
     5    6    4 ar
     6    7    6 1
     7    8    6 ar
     8    9    8 1
     9   10    1 ar
    10   11   10 ar
    11   12   11 1
    12   13   11 ar
    13   14   13 ar
    14   15   14 1
    15   16   14 ar
    16   17   16 1
    17   18   16 ar
    18   19   18 1
    19   20   18 ar
    20   21   20 1
    21   22   13 ar
    22   23    1 ar
    23   24   23 1
    24   25   24 1
    25   26   24 2
    26   27   26 1
    27   28   26 1
    28   29   28 ar
    29   30   29 1
    30   31   29 ar
    31   32   31 1
    32   33   31 ar
    33   34   33 ar
    34   35   34 1
    35   36   28 ar
    36   37   36 1
    37   38   33 1
    38   39   38 1
    39   40   38 2
    40   41   40 1
    41   42   40 1
    42   43   42 ar
    43   44   43 1
    44   45   43 ar
    45   46   45 1
    46   47   45 ar
    47   48   47 1
    48   49   47 ar
    49   50   49 1
    50   51   42 ar
    51   52   51 1
    52   53   54 ar
    53   54   55 1
    54   56   54 ar
    55   57   56 1
    56   58   56 ar
    57   59   58 1
    58   60   58 ar
    59   61   60 1
    60   62   53 ar
    61   63   62 ar
    62   64   63 1
    63   65   63 ar
    64   66   65 ar
    65   67   66 1
    66   68   66 ar
    67   69   68 1
    68   70   68 ar
    69   71   70 1
    70   72   70 ar
    71   73   72 1
    72   74   65 ar
    73   75   53 ar
    74   76   75 1
    75   77   76 1
    76   78   76 2
    77   79   78 1
    78   80   78 1
    79   81   80 ar
    80   82   81 1
    81   83   81 ar
    82   84   83 1
    83   85   83 ar
    84   86   85 ar
    85   87   86 1
    86   88   80 ar
    87   89   88 1
    88   90   85 1
    89   91   90 1
    90   92   90 2
    91   93   92 1
    92   94   92 1
    93   95   94 ar
    94   96   95 1
    95   97   95 ar
    96   98   97 1
    97   99   97 ar
    98  100   99 1
    99  101   99 ar
   100  102  101 1
   101  103   94 ar
   102  104  103 1
   103    8   10 ar
   104   20   22 ar
   105   22   23 ar
   106   34   36 ar
   107   49   51 ar
   108   60   62 ar
   109   72   74 ar
   110   74   75 ar
   111   86   88 ar
   112  101  103 ar
@<TRIPOS>SUBSTRUCTURE
     1 RES1 1
     2 RES2 53

@<TRIPOS>CRYSIN
   9.3498    9.4481   24.3960  89.9020  81.2070  76.2310   2 1

