# MOL2 file generated by ConQuest
# Please check atom types

@<TRIPOS>MOLECULE
MAHWEA
    52    56     1
SMALL
NO_CHARGES
****
Generated from CSD

@<TRIPOS>ATOM
      1 C1        21.9924   17.1216    1.6520 C.ar      1 RES1    0.0000
      2 C2        21.8267   15.7048    1.6055 C.ar      1 RES1    0.0000
      3 H1        21.3328   15.2839    2.2710 H         1 RES1    0.0000
      4 C3        22.3752   14.9582    0.6126 C.ar      1 RES1    0.0000
      5 H2        22.2681   14.0348    0.6169 H         1 RES1    0.0000
      6 C4        23.1066   15.5745   -0.4274 C.ar      1 RES1    0.0000
      7 H3        23.4752   15.0582   -1.1077 H         1 RES1    0.0000
      8 C5        23.2713   16.9032   -0.4338 C.ar      1 RES1    0.0000
      9 H4        23.7341   17.2974   -1.1386 H         1 RES1    0.0000
     10 C6        22.7622   17.7302    0.6021 C.ar      1 RES1    0.0000
     11 C7        23.0425   19.0926    0.6619 C.ar      1 RES1    0.0000
     12 H5        23.5205   19.4885   -0.0317 H         1 RES1    0.0000
     13 C8        22.6305   19.8728    1.7259 C.ar      1 RES1    0.0000
     14 C9        22.9642   21.2648    1.8125 C.ar      1 RES1    0.0000
     15 H6        23.4849   21.6536    1.1464 H         1 RES1    0.0000
     16 C10       22.5380   22.0158    2.8385 C.ar      1 RES1    0.0000
     17 H7        22.7665   22.9157    2.8801 H         1 RES1    0.0000
     18 C11       21.7522   21.4549    3.8427 C.ar      1 RES1    0.0000
     19 H8        21.4558   21.9886    4.5440 H         1 RES1    0.0000
     20 C12       21.4128   20.1434    3.8145 C.ar      1 RES1    0.0000
     21 H9        20.8830   19.7957    4.4947 H         1 RES1    0.0000
     22 C13       21.8487   19.2893    2.7660 C.ar      1 RES1    0.0000
     23 C14       21.5050   17.9173    2.7033 C.ar      1 RES1    0.0000
     24 C15       20.6574   17.3488    3.7687 C.2       1 RES1    0.0000
     25 H10       20.9607   17.4473    4.6426 H         1 RES1    0.0000
     26 C16       19.5180   16.7178    3.6089 C.2       1 RES1    0.0000
     27 H11       19.1937   16.6312    2.7413 H         1 RES1    0.0000
     28 C17       18.7141   16.1354    4.6968 C.ar      1 RES1    0.0000
     29 C18       19.3536   15.6487    5.8376 C.ar      1 RES1    0.0000
     30 H12       20.2811   15.6966    5.8911 H         1 RES1    0.0000
     31 C19       18.6513   15.1004    6.8854 C.ar      1 RES1    0.0000
     32 H13       19.0999   14.7787    7.6332 H         1 RES1    0.0000
     33 C20       17.2786   15.0315    6.8199 C.ar      1 RES1    0.0000
     34 H14       16.7957   14.6751    7.5297 H         1 RES1    0.0000
     35 C21       16.6232   15.4923    5.6996 C.ar      1 RES1    0.0000
     36 H15       15.6954   15.4449    5.6672 H         1 RES1    0.0000
     37 C22       17.3132   16.0290    4.6095 C.ar      1 RES1    0.0000
     38 C23       16.5789   16.4861    3.4230 C.2       1 RES1    0.0000
     39 H16       16.9413   17.1956    2.9420 H         1 RES1    0.0000
     40 C24       15.4401   15.9672    2.9843 C.2       1 RES1    0.0000
     41 H17       15.0903   15.2636    3.4800 H         1 RES1    0.0000
     42 C25       14.6734   16.3786    1.8069 C.ar      1 RES1    0.0000
     43 C26       14.8365   17.6203    1.2133 C.ar      1 RES1    0.0000
     44 H18       15.4430   18.2264    1.5766 H         1 RES1    0.0000
     45 C27       14.1194   17.9710    0.0972 C.ar      1 RES1    0.0000
     46 H19       14.2391   18.8111   -0.2838 H         1 RES1    0.0000
     47 C28       13.2278   17.0951   -0.4605 C.ar      1 RES1    0.0000
     48 H20       12.7505   17.3362   -1.2210 H         1 RES1    0.0000
     49 C29       13.0434   15.8659    0.1063 C.ar      1 RES1    0.0000
     50 H21       12.4366   15.2691   -0.2704 H         1 RES1    0.0000
     51 C30       13.7553   15.5016    1.2393 C.ar      1 RES1    0.0000
     52 H22       13.6178   14.6658    1.6217 H         1 RES1    0.0000
@<TRIPOS>BOND
     1    1    2 ar
     2    2    3 1
     3    4    2 ar
     4    5    4 1
     5    6    4 ar
     6    7    6 1
     7    8    6 ar
     8    9    8 1
     9   10    1 ar
    10   11   10 ar
    11   12   11 1
    12   13   11 ar
    13   14   13 ar
    14   15   14 1
    15   16   14 ar
    16   17   16 1
    17   18   16 ar
    18   19   18 1
    19   20   18 ar
    20   21   20 1
    21   22   13 ar
    22   23    1 ar
    23   24   23 1
    24   25   24 1
    25   26   24 2
    26   27   26 1
    27   28   26 1
    28   29   28 ar
    29   30   29 1
    30   31   29 ar
    31   32   31 1
    32   33   31 ar
    33   34   33 1
    34   35   33 ar
    35   36   35 1
    36   37   28 ar
    37   38   37 1
    38   39   38 1
    39   40   38 2
    40   41   40 1
    41   42   40 1
    42   43   42 ar
    43   44   43 1
    44   45   43 ar
    45   46   45 1
    46   47   45 ar
    47   48   47 1
    48   49   47 ar
    49   50   49 1
    50   51   42 ar
    51   52   51 1
    52    8   10 ar
    53   20   22 ar
    54   22   23 ar
    55   35   37 ar
    56   49   51 ar
@<TRIPOS>SUBSTRUCTURE
     1 RES1 1

@<TRIPOS>CRYSIN
  32.3617   18.5058    7.0417  90.0000  90.0000  90.0000  56 1

