# MOL2 file generated by ConQuest
# Please check atom types

@<TRIPOS>MOLECULE
MALMES
    66    73     1
SMALL
NO_CHARGES
****
Generated from CSD

@<TRIPOS>ATOM
      1 C1         0.5511    5.7939   -0.3835 C.ar      1 RES1    0.0000
      2 C2        -0.5644    6.3419   -0.9667 C.ar      1 RES1    0.0000
      3 C3        -1.6950    5.5573   -1.0561 C.ar      1 RES1    0.0000
      4 C4        -2.9537    6.1033   -1.6873 C.ar      1 RES1    0.0000
      5 C5        -4.0343    5.3146   -1.7704 C.ar      1 RES1    0.0000
      6 C6        -4.0476    3.9961   -1.2423 C.ar      1 RES1    0.0000
      7 C7        -2.9071    3.4642   -0.6583 C.ar      1 RES1    0.0000
      8 C8        -1.7549    4.2590   -0.5768 C.ar      1 RES1    0.0000
      9 C9        -0.5245    3.7129    0.0280 C.ar      1 RES1    0.0000
     10 C10        0.5994    4.4733    0.1262 C.ar      1 RES1    0.0000
     11 C11        1.8531    3.9051    0.6695 C.ar      1 RES1    0.0000
     12 C12        2.3144    2.6856    0.2253 C.ar      1 RES1    0.0000
     13 C13        3.5415    2.1396    0.6415 C.ar      1 RES1    0.0000
     14 C14        4.0060    0.8757    0.2037 C.ar      1 RES1    0.0000
     15 C15        5.1765    0.3640    0.6631 C.ar      1 RES1    0.0000
     16 C16        5.9690    1.1022    1.5642 C.ar      1 RES1    0.0000
     17 C17        5.5761    2.3358    1.9765 C.ar      1 RES1    0.0000
     18 C18        4.3490    2.8777    1.5387 C.ar      1 RES1    0.0000
     19 C19        3.8711    4.1316    1.9829 C.ar      1 RES1    0.0000
     20 C20        2.6573    4.6331    1.6186 C.ar      1 RES1    0.0000
     21 C21        2.1528    5.8829    2.2641 C.ar      1 RES1    0.0000
     22 C22        2.8621    7.0578    2.0995 C.ar      1 RES1    0.0000
     23 C23        2.4192    8.2773    2.6779 C.ar      1 RES1    0.0000
     24 C24        3.1136    9.5089    2.4998 C.ar      1 RES1    0.0000
     25 C25        2.5941   10.6535    3.0198 C.ar      1 RES1    0.0000
     26 C26        1.3969   10.6555    3.7149 C.ar      1 RES1    0.0000
     27 C27        0.7076    9.4927    3.9386 C.ar      1 RES1    0.0000
     28 C28        1.2088    8.2672    3.4041 C.ar      1 RES1    0.0000
     29 C29        0.5345    7.0477    3.6126 C.ar      1 RES1    0.0000
     30 C30        0.9957    5.8626    3.0869 C.ar      1 RES1    0.0000
     31 C31        0.2964    4.6007    3.4688 C.ar      1 RES1    0.0000
     32 C32        1.0090    3.5350    3.9721 C.ar      1 RES1    0.0000
     33 C33        0.3413    2.3580    4.4443 C.ar      1 RES1    0.0000
     34 C34        1.0639    1.2801    4.9915 C.ar      1 RES1    0.0000
     35 C35        0.3929    0.1921    5.4733 C.ar      1 RES1    0.0000
     36 C36       -0.9907    0.1072    5.4293 C.ar      1 RES1    0.0000
     37 C37       -1.7383    1.1345    4.8685 C.ar      1 RES1    0.0000
     38 C38       -1.0506    2.3176    4.3740 C.ar      1 RES1    0.0000
     39 C39       -1.7732    3.4096    3.8555 C.ar      1 RES1    0.0000
     40 C40       -1.1022    4.5198    3.4089 C.ar      1 RES1    0.0000
     41 H1         1.4819    6.3096   -0.2796 H         1 RES1    0.0000
     42 H2        -0.7992    7.2601   -1.4380 H         1 RES1    0.0000
     43 H3        -2.7805    7.1185   -1.9813 H         1 RES1    0.0000
     44 H4        -5.0283    5.5007   -2.2369 H         1 RES1    0.0000
     45 H5        -5.1448    3.3368   -1.2782 H         1 RES1    0.0000
     46 H6        -2.7639    2.4672   -0.0799 H         1 RES1    0.0000
     47 H7        -0.5994    2.7706    0.3835 H         1 RES1    0.0000
     48 H8         1.6983    2.3054   -0.4474 H         1 RES1    0.0000
     49 H9         3.3966    0.5258   -0.4793 H         1 RES1    0.0000
     50 H10        5.3779   -0.4247    0.4793 H         1 RES1    0.0000
     51 H11        6.8931    0.7887    1.8375 H         1 RES1    0.0000
     52 H12        6.1105    2.9323    2.5964 H         1 RES1    0.0000
     53 H13        4.4123    4.6917    2.5405 H         1 RES1    0.0000
     54 H14        3.7130    6.9972    1.5579 H         1 RES1    0.0000
     55 H15        4.0460    9.3835    1.9174 H         1 RES1    0.0000
     56 H16        3.0969   11.6282    2.7962 H         1 RES1    0.0000
     57 H17        0.8159   11.5676    4.0744 H         1 RES1    0.0000
     58 H18       -0.3163    9.5857    4.6336 H         1 RES1    0.0000
     59 H19       -0.3996    7.1589    4.1383 H         1 RES1    0.0000
     60 H20        2.0313    3.5188    4.0904 H         1 RES1    0.0000
     61 H21        2.1146    1.3347    5.1130 H         1 RES1    0.0000
     62 H22        0.9824   -0.5460    5.9917 H         1 RES1    0.0000
     63 H23       -1.4985   -0.6876    5.9119 H         1 RES1    0.0000
     64 H24       -2.8804    1.2538    4.7934 H         1 RES1    0.0000
     65 H25       -2.7139    3.3772    3.7948 H         1 RES1    0.0000
     66 H26       -1.6816    5.3389    3.0997 H         1 RES1    0.0000
@<TRIPOS>BOND
     1    1    2 ar
     2    2    3 ar
     3    3    4 ar
     4    4    5 ar
     5    5    6 ar
     6    6    7 ar
     7    7    8 ar
     8    8    3 ar
     9    9    8 ar
    10   10    1 ar
    11   11   10 1
    12   12   11 ar
    13   13   12 ar
    14   14   13 ar
    15   15   14 ar
    16   16   15 ar
    17   17   16 ar
    18   18   13 ar
    19   19   18 ar
    20   20   11 ar
    21   21   20 1
    22   22   21 ar
    23   23   22 ar
    24   24   23 ar
    25   25   24 ar
    26   26   25 ar
    27   27   26 ar
    28   28   23 ar
    29   29   28 ar
    30   30   21 ar
    31   31   30 1
    32   32   31 ar
    33   33   32 ar
    34   34   33 ar
    35   35   34 ar
    36   36   35 ar
    37   37   36 ar
    38   38   33 ar
    39   39   38 ar
    40   40   31 ar
    41   41    1 1
    42   42    2 1
    43   43    4 1
    44   44    5 1
    45   45    6 1
    46   46    7 1
    47   47    9 1
    48   48   12 1
    49   49   14 1
    50   50   15 1
    51   51   16 1
    52   52   17 1
    53   53   19 1
    54   54   22 1
    55   55   24 1
    56   56   25 1
    57   57   26 1
    58   58   27 1
    59   59   29 1
    60   60   32 1
    61   61   34 1
    62   62   35 1
    63   63   36 1
    64   64   37 1
    65   65   39 1
    66   66   40 1
    67    9   10 ar
    68   17   18 ar
    69   19   20 ar
    70   27   28 ar
    71   29   30 ar
    72   37   38 ar
    73   39   40 ar
@<TRIPOS>SUBSTRUCTURE
     1 RES1 1

@<TRIPOS>CRYSIN
  16.6500   20.2230    7.9890  90.0000  90.0000  90.0000  33 6

