# MOL2 file generated by ConQuest
# Please check atom types

@<TRIPOS>MOLECULE
MAMKES
    40    44     1
SMALL
NO_CHARGES
****
Generated from CSD

@<TRIPOS>ATOM
      1 C1         8.0932    2.2739    6.0175 C.ar      1 RES1    0.0000
      2 C2         8.6745    1.6387    7.2289 C.2       1 RES1    0.0000
      3 H1         8.1573    1.7254    8.0207 H         1 RES1    0.0000
      4 C3         9.8142    0.9659    7.3671 C.2       1 RES1    0.0000
      5 H2         9.9982    0.6410    8.2405 H         1 RES1    0.0000
      6 C4        10.8340    0.6563    6.3375 C.ar      1 RES1    0.0000
      7 C5        11.2535   -0.6557    6.2242 C.ar      1 RES1    0.0000
      8 H3        10.8734   -1.3087    6.8002 H         1 RES1    0.0000
      9 C6        12.2265   -1.0608    5.2829 C.ar      1 RES1    0.0000
     10 C7        12.6493   -2.4143    5.1579 C.ar      1 RES1    0.0000
     11 H4        12.2795   -3.0769    5.7296 H         1 RES1    0.0000
     12 C8        13.5833   -2.7720    4.2235 C.ar      1 RES1    0.0000
     13 H5        13.8478   -3.6805    4.1438 H         1 RES1    0.0000
     14 C9        14.1565   -1.7938    3.3757 C.ar      1 RES1    0.0000
     15 H6        14.8091   -2.0486    2.7341 H         1 RES1    0.0000
     16 C10       13.7759   -0.4824    3.4759 C.ar      1 RES1    0.0000
     17 H7        14.1665    0.1656    2.9014 H         1 RES1    0.0000
     18 C11       12.8010   -0.0786    4.4317 C.ar      1 RES1    0.0000
     19 C12       12.4052    1.2673    4.5948 C.ar      1 RES1    0.0000
     20 H8        12.8114    1.9328    4.0519 H         1 RES1    0.0000
     21 C13       11.4480    1.6526    5.5144 C.ar      1 RES1    0.0000
     22 C14       11.2258    3.1070    5.7019 C.2       1 RES1    0.0000
     23 H9        12.0076    3.6102    5.8958 H         1 RES1    0.0000
     24 C15       10.0986    3.8178    5.6408 C.2       1 RES1    0.0000
     25 H10       10.1810    4.7453    5.8269 H         1 RES1    0.0000
     26 C16        8.7378    3.3428    5.3196 C.ar      1 RES1    0.0000
     27 C17        8.0517    4.0118    4.3275 C.ar      1 RES1    0.0000
     28 H11        8.4578    4.7667    3.9174 H         1 RES1    0.0000
     29 C18        6.7651    3.6121    3.9005 C.ar      1 RES1    0.0000
     30 C19        6.0804    4.2632    2.8390 C.ar      1 RES1    0.0000
     31 H12        6.4817    5.0070    2.4060 H         1 RES1    0.0000
     32 C20        4.8468    3.8273    2.4350 C.ar      1 RES1    0.0000
     33 H13        4.4009    4.2663    1.7203 H         1 RES1    0.0000
     34 C21        4.2335    2.7243    3.0777 C.ar      1 RES1    0.0000
     35 H14        3.3839    2.4198    2.7811 H         1 RES1    0.0000
     36 C22        4.8535    2.0916    4.1240 C.ar      1 RES1    0.0000
     37 H15        4.4227    1.3648    4.5583 H         1 RES1    0.0000
     38 C23        6.1388    2.5163    4.5624 C.ar      1 RES1    0.0000
     39 C24        6.8178    1.9027    5.6422 C.ar      1 RES1    0.0000
     40 H16        6.3809    1.2117    6.1255 H         1 RES1    0.0000
@<TRIPOS>BOND
     1    1    2 1
     2    2    3 1
     3    4    2 2
     4    5    4 1
     5    6    4 1
     6    7    6 ar
     7    8    7 1
     8    9    7 ar
     9   10    9 ar
    10   11   10 1
    11   12   10 ar
    12   13   12 1
    13   14   12 ar
    14   15   14 1
    15   16   14 ar
    16   17   16 1
    17   18    9 ar
    18   19   18 ar
    19   20   19 1
    20   21    6 ar
    21   22   21 1
    22   23   22 1
    23   24   22 2
    24   25   24 1
    25   26    1 ar
    26   27   26 ar
    27   28   27 1
    28   29   27 ar
    29   30   29 ar
    30   31   30 1
    31   32   30 ar
    32   33   32 1
    33   34   32 ar
    34   35   34 1
    35   36   34 ar
    36   37   36 1
    37   38   29 ar
    38   39    1 ar
    39   40   39 1
    40   16   18 ar
    41   19   21 ar
    42   24   26 1
    43   36   38 ar
    44   38   39 ar
@<TRIPOS>SUBSTRUCTURE
     1 RES1 1

@<TRIPOS>CRYSIN
  15.8250    8.9030   11.3975  90.0000 106.3540  90.0000  14 1

