# MOL2 file generated by ConQuest
# Please check atom types

@<TRIPOS>MOLECULE
MANTHR01
    27    29     1
SMALL
NO_CHARGES
****
Generated from CSD

@<TRIPOS>ATOM
      1 C1         3.1682    5.8169    0.8017 C.ar      1 RES1    0.0000
      2 C2        -0.4237    4.8249    1.0462 C.ar      1 RES1    0.0000
      3 C3         1.7961    5.6681    0.4182 C.ar      1 RES1    0.0000
      4 C4         0.9365    5.0560    1.3671 C.ar      1 RES1    0.0000
      5 C5        -0.8954    5.1720   -0.2236 C.ar      1 RES1    0.0000
      6 C6        -0.0470    5.8091   -1.1614 C.ar      1 RES1    0.0000
      7 C7         2.2210    6.6789   -1.8777 C.3       1 RES1    0.0000
      8 C8         3.6181    5.3990    1.9910 C.ar      1 RES1    0.0000
      9 C9         2.7476    4.8200    2.9388 C.ar      1 RES1    0.0000
     10 C10        1.4308    4.6649    2.6577 C.ar      1 RES1    0.0000
     11 C11       -2.2721    4.9070   -0.5584 C.ar      1 RES1    0.0000
     12 C12       -2.7409    5.2590   -1.7744 C.ar      1 RES1    0.0000
     13 C13       -1.9275    5.8820   -2.7033 C.ar      1 RES1    0.0000
     14 C14       -0.6094    6.1500   -2.4431 C.ar      1 RES1    0.0000
     15 C15        1.3098    6.0431   -0.8544 C.ar      1 RES1    0.0000
     16 H1         3.7805    6.1100    0.2583 H         1 RES1    0.0000
     17 H2         2.1670    7.6800   -1.8082 H         1 RES1    0.0000
     18 H3         1.9507    6.4000   -2.8017 H         1 RES1    0.0000
     19 H4         3.1667    6.4000   -1.7188 H         1 RES1    0.0000
     20 H5         4.6386    5.4700    2.1956 H         1 RES1    0.0000
     21 H6         3.0011    4.4600    3.8350 H         1 RES1    0.0000
     22 H7         0.6399    4.3300    3.4078 H         1 RES1    0.0000
     23 H8        -2.8425    4.5200    0.1093 H         1 RES1    0.0000
     24 H9        -3.6305    5.1201   -1.9174 H         1 RES1    0.0000
     25 H10       -2.2984    6.1799   -3.5965 H         1 RES1    0.0000
     26 H11       -0.0727    6.5600   -3.2090 H         1 RES1    0.0000
     27 H12       -1.1401    4.3999    1.7486 H         1 RES1    0.0000
@<TRIPOS>BOND
     1    1    3 ar
     2    2    4 ar
     3    3    4 ar
     4    4   10 ar
     5    5    2 ar
     6    6    5 ar
     7    7   15 1
     8    8    1 ar
     9    9    8 ar
    10   10    9 ar
    11   11    5 ar
    12   12   11 ar
    13   13   12 ar
    14   14    6 ar
    15   15    3 ar
    16   16    1 1
    17   17    7 1
    18   18    7 1
    19   19    7 1
    20   20    8 1
    21   21    9 1
    22   22   10 1
    23   23   11 1
    24   24   12 1
    25   25   13 1
    26   26   14 1
    27   27    2 1
    28    6   15 ar
    29   13   14 ar
@<TRIPOS>SUBSTRUCTURE
     1 RES1 1

@<TRIPOS>CRYSIN
   8.9090   14.6250    8.0600  90.0000  96.5300  90.0000  14 1

