# MOL2 file generated by ConQuest
# Please check atom types

@<TRIPOS>MOLECULE
MANTTC
    47    54     1
SMALL
NO_CHARGES
****
Generated from CSD

@<TRIPOS>ATOM
      1 C1        18.1230   12.5852    9.3508 C.ar      1 RES1    0.0000
      2 C2        19.3196   13.2583    9.4453 C.ar      1 RES1    0.0000
      3 C3        19.6391   14.2217    8.5287 C.ar      1 RES1    0.0000
      4 C4        18.7526   14.5293    7.5167 C.ar      1 RES1    0.0000
      5 C5        17.5269   13.8688    7.4081 C.ar      1 RES1    0.0000
      6 C6        16.4993   14.2001    6.3198 C.3       1 RES1    0.0000
      7 C7        15.1346   14.2119    6.9924 C.ar      1 RES1    0.0000
      8 C8        14.1756   15.1882    6.7276 C.ar      1 RES1    0.0000
      9 C9        12.9455   15.1598    7.3398 C.ar      1 RES1    0.0000
     10 C10       12.6358   14.1528    8.2229 C.ar      1 RES1    0.0000
     11 C11       13.5737   13.1738    8.4960 C.ar      1 RES1    0.0000
     12 C12       14.8254   13.1927    7.9012 C.ar      1 RES1    0.0000
     13 C13       15.8904   12.1299    8.1849 C.3       1 RES1    0.0000
     14 C14       17.2158   12.8713    8.3397 C.ar      1 RES1    0.0000
     15 C15       16.8128   15.5318    5.6427 C.3       1 RES1    0.0000
     16 C16       15.5414   11.3085    9.4275 C.3       1 RES1    0.0000
     17 C17       18.3146   10.1007    6.5936 C.ar      1 RES1    0.0000
     18 C18       19.5347   10.1455    5.9513 C.ar      1 RES1    0.0000
     19 C19       19.8003   11.1228    5.0130 C.ar      1 RES1    0.0000
     20 C20       18.8404   12.0813    4.7195 C.ar      1 RES1    0.0000
     21 C21       17.6093   12.0483    5.3679 C.ar      1 RES1    0.0000
     22 C22       16.5244   13.0757    5.1954 C.3       1 RES1    0.0000
     23 C23       15.2031   12.3635    4.9897 C.ar      1 RES1    0.0000
     24 C24       14.2890   12.6880    4.0290 C.ar      1 RES1    0.0000
     25 C25       13.0581   11.9971    3.9262 C.ar      1 RES1    0.0000
     26 C26       12.0732   12.3362    2.9691 C.ar      1 RES1    0.0000
     27 C27       10.8965   11.6524    2.8995 C.ar      1 RES1    0.0000
     28 C28       10.6572   10.5833    3.7662 C.ar      1 RES1    0.0000
     29 C29       11.5743   10.2248    4.7051 C.ar      1 RES1    0.0000
     30 C30       12.7976   10.9324    4.8295 C.ar      1 RES1    0.0000
     31 C31       13.7638   10.6223    5.8197 C.ar      1 RES1    0.0000
     32 C32       14.9295   11.3190    5.9063 C.ar      1 RES1    0.0000
     33 C33       15.9998   11.0642    6.9559 C.3       1 RES1    0.0000
     34 C34       17.3393   11.0489    6.2995 C.ar      1 RES1    0.0000
     35 H1        17.8793   11.9227    9.9886 H         1 RES1    0.0000
     36 H2        19.9478   12.9934   10.1361 H         1 RES1    0.0000
     37 H3        20.5275   14.7292    8.5638 H         1 RES1    0.0000
     38 H4        18.9482   15.2551    6.8620 H         1 RES1    0.0000
     39 H5        14.4081   15.9062    6.0432 H         1 RES1    0.0000
     40 H6        12.2829   15.8505    7.1192 H         1 RES1    0.0000
     41 H7        11.7213   14.1148    8.6726 H         1 RES1    0.0000
     42 H8        13.3548   12.4410    9.1210 H         1 RES1    0.0000
     43 H9        17.7045   15.5067    5.1825 H         1 RES1    0.0000
     44 H10       16.1090   15.7393    4.9664 H         1 RES1    0.0000
     45 H11       16.7841   16.2993    6.3322 H         1 RES1    0.0000
     46 H12       15.5491   11.9239   10.2450 H         1 RES1    0.0000
     47 H13       16.2560   10.6294    9.5865 H         1 RES1    0.0000
@<TRIPOS>BOND
     1    1    2 ar
     2    2    3 ar
     3    3    4 ar
     4    4    5 ar
     5    5    6 1
     6    6    7 1
     7    7    8 ar
     8    8    9 ar
     9    9   10 ar
    10   10   11 ar
    11   11   12 ar
    12   12    7 ar
    13   13   12 1
    14   14    1 ar
    15   15    6 1
    16   16   13 1
    17   17   18 ar
    18   18   19 ar
    19   19   20 ar
    20   20   21 ar
    21   21   22 1
    22   22    6 1
    23   23   22 1
    24   24   23 ar
    25   25   24 ar
    26   26   25 ar
    27   27   26 ar
    28   28   27 ar
    29   29   28 ar
    30   30   25 ar
    31   31   30 ar
    32   32   23 ar
    33   33   13 1
    34   34   17 ar
    35   35    1 1
    36   36    2 1
    37   37    3 1
    38   38    4 1
    39   39    8 1
    40   40    9 1
    41   41   10 1
    42   42   11 1
    43   43   15 1
    44   44   15 1
    45   45   15 1
    46   46   16 1
    47   47   16 1
    48    5   14 ar
    49   13   14 1
    50   21   34 ar
    51   29   30 ar
    52   31   32 ar
    53   32   33 1
    54   33   34 1
@<TRIPOS>SUBSTRUCTURE
     1 RES1 1

@<TRIPOS>CRYSIN
  21.3230   12.6420    8.5870  90.0000  93.2500  90.0000  14 1

