# MOL2 file generated by ConQuest
# Please check atom types

@<TRIPOS>MOLECULE
MANTHR03
    27    29     1
SMALL
NO_CHARGES
****
Generated from CSD

@<TRIPOS>ATOM
      1 C1         0.6199    8.4562    2.4267 C.ar      1 RES1    0.0000
      2 C2         1.9094    8.7166    2.7134 C.ar      1 RES1    0.0000
      3 C3         2.7441    9.3540    1.7757 C.ar      1 RES1    0.0000
      4 C4         2.2542    9.6974    0.5783 C.ar      1 RES1    0.0000
      5 C5        -1.4406    9.9333   -2.6320 C.ar      1 RES1    0.0000
      6 C6        -2.7372    9.7711   -2.9347 C.ar      1 RES1    0.0000
      7 C7        -3.6189    9.1973   -1.9977 C.ar      1 RES1    0.0000
      8 C8        -3.1601    8.7897   -0.7924 C.ar      1 RES1    0.0000
      9 C9        -1.2959    8.5645    0.8443 C.ar      1 RES1    0.0000
     10 C10        0.4042    9.7797   -1.0280 C.ar      1 RES1    0.0000
     11 C11        0.0410    8.7996    1.1678 C.ar      1 RES1    0.0000
     12 C12        0.9088    9.4330    0.2125 C.ar      1 RES1    0.0000
     13 C13       -0.9172    9.5472   -1.3699 C.ar      1 RES1    0.0000
     14 C14       -1.7977    8.9429   -0.4122 C.ar      1 RES1    0.0000
     15 C15       -2.2112    7.9260    1.8579 C.3       1 RES1    0.0000
     16 H1        -0.0178    7.9946    3.1951 H         1 RES1    0.0000
     17 H2         2.3288    8.4558    3.5785 H         1 RES1    0.0000
     18 H3         3.7158    9.5562    2.0129 H         1 RES1    0.0000
     19 H4         2.8066   10.1326   -0.1438 H         1 RES1    0.0000
     20 H5        -0.8004   10.3384   -3.2670 H         1 RES1    0.0000
     21 H6        -3.0942   10.0465   -3.8022 H         1 RES1    0.0000
     22 H7        -4.6846    9.0964   -2.2446 H         1 RES1    0.0000
     23 H8        -3.8330    8.3974   -0.1278 H         1 RES1    0.0000
     24 H9         1.0124   10.2260   -1.7094 H         1 RES1    0.0000
     25 H10       -2.4594    8.4937    2.4762 H         1 RES1    0.0000
     26 H11       -3.0252    7.5305    1.4378 H         1 RES1    0.0000
     27 H12       -1.7597    7.1948    2.3404 H         1 RES1    0.0000
@<TRIPOS>BOND
     1    1    2 ar
     2    2    3 ar
     3    3    4 ar
     4    4   12 ar
     5    5    6 ar
     6    6    7 ar
     7    7    8 ar
     8    8   14 ar
     9    9   11 ar
    10   10   12 ar
    11   11    1 ar
    12   12   11 ar
    13   13    5 ar
    14   14    9 ar
    15   15    9 1
    16   16    1 1
    17   17    2 1
    18   18    3 1
    19   19    4 1
    20   20    5 1
    21   21    6 1
    22   22    7 1
    23   23    8 1
    24   24   10 1
    25   25   15 1
    26   26   15 1
    27   27   15 1
    28   10   13 ar
    29   13   14 ar
@<TRIPOS>SUBSTRUCTURE
     1 RES1 1

@<TRIPOS>CRYSIN
   8.8859   14.5940    8.0395  90.0000  96.5050  90.0000  14 1

