# MOL2 file generated by ConQuest
# Please check atom types

@<TRIPOS>MOLECULE
MANTHR02
    27    29     1
SMALL
NO_CHARGES
****
Generated from CSD

@<TRIPOS>ATOM
      1 C1         9.5431    6.1551    2.4345 C.ar      1 RES1    0.0000
      2 C2        10.8373    5.8871    2.7419 C.ar      1 RES1    0.0000
      3 C3        11.6694    5.2561    1.7755 C.ar      1 RES1    0.0000
      4 C4        11.1892    4.9106    0.5908 C.ar      1 RES1    0.0000
      5 C5         7.4797    4.6676   -2.6295 C.ar      1 RES1    0.0000
      6 C6         6.1696    4.8301   -2.9618 C.ar      1 RES1    0.0000
      7 C7         5.2970    5.4025   -2.0002 C.ar      1 RES1    0.0000
      8 C8         5.7436    5.8227   -0.8259 C.ar      1 RES1    0.0000
      9 C9         7.6101    6.0555    0.8532 C.ar      1 RES1    0.0000
     10 C10        9.3322    4.8257   -1.0314 C.ar      1 RES1    0.0000
     11 C11        8.9691    5.8154    1.1871 C.ar      1 RES1    0.0000
     12 C12        9.8296    5.1858    0.1991 C.ar      1 RES1    0.0000
     13 C13        7.9919    5.0702   -1.3806 C.ar      1 RES1    0.0000
     14 C14        7.1242    5.6734   -0.4069 C.ar      1 RES1    0.0000
     15 C15        6.7034    6.6822    1.8718 C.3       1 RES1    0.0000
     16 H1         8.9753    6.6177    3.1304 H         1 RES1    0.0000
     17 H2        11.2090    6.1346    3.4915 H         1 RES1    0.0000
     18 H3        12.4032    5.0511    2.0066 H         1 RES1    0.0000
     19 H4        11.7214    4.4362   -0.2408 H         1 RES1    0.0000
     20 H5         8.0792    4.3923   -3.2829 H         1 RES1    0.0000
     21 H6         5.8337    4.5973   -3.9330 H         1 RES1    0.0000
     22 H7         4.4728    5.5343   -2.0789 H         1 RES1    0.0000
     23 H8         5.2248    6.1199   -0.1365 H         1 RES1    0.0000
     24 H9         9.9444    4.3777   -1.7177 H         1 RES1    0.0000
     25 H10        5.9422    6.9545    1.3244 H         1 RES1    0.0000
     26 H11        6.9913    7.4816    2.0628 H         1 RES1    0.0000
     27 H12        6.6390    6.3688    2.8093 H         1 RES1    0.0000
@<TRIPOS>BOND
     1    1    2 ar
     2    2    3 ar
     3    3    4 ar
     4    4   12 ar
     5    5    6 ar
     6    6    7 ar
     7    7    8 ar
     8    8   14 ar
     9    9   11 ar
    10   10   12 ar
    11   11    1 ar
    12   12   11 ar
    13   13    5 ar
    14   14    9 ar
    15   15    9 1
    16   16    1 1
    17   17    2 1
    18   18    3 1
    19   19    4 1
    20   20    5 1
    21   21    6 1
    22   22    7 1
    23   23    8 1
    24   24   10 1
    25   25   15 1
    26   26   15 1
    27   27   15 1
    28   10   13 ar
    29   13   14 ar
@<TRIPOS>SUBSTRUCTURE
     1 RES1 1

@<TRIPOS>CRYSIN
   8.9200   14.6410    8.0780  90.0000  96.4700  90.0000  14 1

