# MOL2 file generated by ConQuest
# Please check atom types

@<TRIPOS>MOLECULE
MANTHR14
    27    29     1
SMALL
NO_CHARGES
****
Generated from CSD

@<TRIPOS>ATOM
      1 C1         7.1001   12.9698   -0.4134 C.ar      1 RES1    0.0000
      2 C2         5.7380   13.1174   -0.7979 C.ar      1 RES1    0.0000
      3 H1         5.1417   13.5072   -0.2007 H         1 RES1    0.0000
      4 C3         5.2860   12.7120   -1.9988 C.ar      1 RES1    0.0000
      5 H2         4.3860   12.8159   -2.2091 H         1 RES1    0.0000
      6 C4         6.1526   12.1353   -2.9391 C.ar      1 RES1    0.0000
      7 H3         5.8300   11.8645   -3.7682 H         1 RES1    0.0000
      8 C5         7.4562   11.9764   -2.6336 C.ar      1 RES1    0.0000
      9 H4         8.0288   11.6058   -3.2653 H         1 RES1    0.0000
     10 C6         7.9751   12.3609   -1.3728 C.ar      1 RES1    0.0000
     11 C7         9.2976   12.1306   -1.0306 C.ar      1 RES1    0.0000
     12 H5         9.8638   11.7329   -1.6526 H         1 RES1    0.0000
     13 C8         9.7998   12.4776    0.2135 C.ar      1 RES1    0.0000
     14 C9        11.1511   12.2114    0.5765 C.ar      1 RES1    0.0000
     15 H6        11.7108   11.7899   -0.0352 H         1 RES1    0.0000
     16 C10       11.6334   12.5525    1.7758 C.ar      1 RES1    0.0000
     17 H7        12.5187   12.3672    1.9900 H         1 RES1    0.0000
     18 C11       10.8038   13.1893    2.7112 C.ar      1 RES1    0.0000
     19 H8        11.1498   13.4356    3.5387 H         1 RES1    0.0000
     20 C12        9.5140   13.4489    2.4258 C.ar      1 RES1    0.0000
     21 H9         8.9835   13.8594    3.0694 H         1 RES1    0.0000
     22 C13        8.9381   13.1121    1.1657 C.ar      1 RES1    0.0000
     23 C14        7.5937   13.3470    0.8435 C.ar      1 RES1    0.0000
     24 C15        6.6848   13.9844    1.8589 C.3       1 RES1    0.0000
     25 H10        6.4609   13.3420    2.5361 H         1 RES1    0.0000
     26 H11        5.8830   14.2862    1.4264 H         1 RES1    0.0000
     27 H12        7.1313   14.7319    2.2635 H         1 RES1    0.0000
@<TRIPOS>BOND
     1    1    2 ar
     2    2    3 1
     3    4    2 ar
     4    5    4 1
     5    6    4 ar
     6    7    6 1
     7    8    6 ar
     8    9    8 1
     9   10    1 ar
    10   11   10 ar
    11   12   11 1
    12   13   11 ar
    13   14   13 ar
    14   15   14 1
    15   16   14 ar
    16   17   16 1
    17   18   16 ar
    18   19   18 1
    19   20   18 ar
    20   21   20 1
    21   22   13 ar
    22   23    1 ar
    23   24   23 1
    24   25   24 1
    25   26   24 1
    26   27   24 1
    27    8   10 ar
    28   20   22 ar
    29   22   23 ar
@<TRIPOS>SUBSTRUCTURE
     1 RES1 1

@<TRIPOS>CRYSIN
   8.8930   14.6150    8.0470  90.0000  96.4990  90.0000  14 1

