# MOL2 file generated by ConQuest
# Please check atom types

@<TRIPOS>MOLECULE
MARHUK
   208   224     4
SMALL
NO_CHARGES
****
Generated from CSD

@<TRIPOS>ATOM
      1 C1         4.8930    3.9502    1.0073 C.ar      1 RES1    0.0000
      2 C2         6.7270    4.1535    5.6261 C.ar      1 RES1    0.0000
      3 C3         7.7525    4.6106    6.5232 C.ar      1 RES1    0.0000
      4 C4         7.0453    4.1409    4.2173 C.ar      1 RES1    0.0000
      5 C5         5.1220    4.2813   -0.3194 C.ar      1 RES1    0.0000
      6 H1         5.9146    4.7101   -0.5508 H         1 RES1    0.0000
      7 C6         3.4133    8.1049    5.5527 C.ar      2 RES2    0.0000
      8 C7         2.5904    7.2809    2.0526 C.2       2 RES2    0.0000
      9 H2         3.2983    6.6953    1.9068 H         2 RES2    0.0000
     10 C8         5.9321    4.2558    2.0188 C.2       1 RES1    0.0000
     11 H3         6.6196    4.8256    1.7586 H         1 RES1    0.0000
     12 C9         2.6224    8.0100    3.1553 C.2       2 RES2    0.0000
     13 H4         1.9321    8.6153    3.3045 H         2 RES2    0.0000
     14 C10        2.1395    8.4995    6.0461 C.ar      2 RES2    0.0000
     15 H5         1.4525    8.6632    5.4430 H         2 RES2    0.0000
     16 C11        8.3073    4.4134    3.8021 C.ar      1 RES1    0.0000
     17 H6         8.5123    4.3228    2.8981 H         1 RES1    0.0000
     18 C12        1.5197    7.3198    1.0267 C.ar      2 RES2    0.0000
     19 C13        5.4816    3.8723    6.1757 C.ar      1 RES1    0.0000
     20 H7         4.7952    3.5922    5.6139 H         1 RES1    0.0000
     21 C14        3.7023    7.9095    4.1614 C.ar      2 RES2    0.0000
     22 C15        5.9709    3.7939    3.2540 C.2       1 RES1    0.0000
     23 H8         5.2929    3.2227    3.5362 H         1 RES1    0.0000
     24 C16        9.0428    4.9213    6.0203 C.ar      1 RES1    0.0000
     25 H9         9.7139    5.1928    6.6053 H         1 RES1    0.0000
     26 C17        9.3057    4.8243    4.6799 C.ar      1 RES1    0.0000
     27 H10       10.1524    5.0330    4.3567 H         1 RES1    0.0000
     28 C18        1.7201    6.5917   -0.1341 C.ar      2 RES2    0.0000
     29 H11        2.5011    6.0979   -0.2393 H         2 RES2    0.0000
     30 C19        0.3556    8.0397    1.1399 C.ar      2 RES2    0.0000
     31 H12        0.2050    8.5392    1.9105 H         2 RES2    0.0000
     32 C20        3.6996    3.3309    1.3078 C.ar      1 RES1    0.0000
     33 H13        3.5123    3.1067    2.1916 H         1 RES1    0.0000
     34 C21        4.4342    7.8965    6.4974 C.ar      2 RES2    0.0000
     35 C22        4.9822    7.5808    3.7839 C.ar      2 RES2    0.0000
     36 H14        5.1788    7.4858    2.8791 H         2 RES2    0.0000
     37 C23        5.7378    7.5154    6.0545 C.ar      2 RES2    0.0000
     38 H15        6.4060    7.3554    6.6812 H         2 RES2    0.0000
     39 C24        5.2300    3.9934    7.5134 C.ar      1 RES1    0.0000
     40 H16        4.3876    3.7826    7.8473 H         1 RES1    0.0000
     41 C25        7.4224    4.7291    7.9100 C.ar      1 RES1    0.0000
     42 H17        8.0727    5.0263    8.5044 H         1 RES1    0.0000
     43 C26        1.8977    8.6432    7.3653 C.ar      2 RES2    0.0000
     44 H18        1.0518    8.8967    7.6574 H         2 RES2    0.0000
     45 C27        6.0113    7.3835    4.7441 C.ar      2 RES2    0.0000
     46 H19        6.8716    7.1644    4.4630 H         2 RES2    0.0000
     47 C28        6.2147    4.4262    8.3730 C.ar      1 RES1    0.0000
     48 H20        6.0339    4.5066    9.2831 H         1 RES1    0.0000
     49 C29        2.9089    8.4134    8.2879 C.ar      2 RES2    0.0000
     50 H21        2.7367    8.5303    9.1957 H         2 RES2    0.0000
     51 C30        4.1405    8.0201    7.8891 C.ar      2 RES2    0.0000
     52 H22        4.7963    7.8317    8.5196 H         2 RES2    0.0000
     53 C31        7.2927    2.8434   17.9709 C.ar      3 RES3    0.0000
     54 C32        6.9946    0.6553   14.7937 C.ar      3 RES3    0.0000
     55 C33        6.9415    1.8392   16.9971 C.2       3 RES3    0.0000
     56 H23        6.3273    1.2000   17.2785 H         3 RES3    0.0000
     57 C34        6.4551   -0.0972   12.5348 C.ar      3 RES3    0.0000
     58 C35        6.9656    0.9231   13.3982 C.ar      3 RES3    0.0000
     59 C36        7.3883    1.7090   15.7379 C.2       3 RES3    0.0000
     60 H24        8.0013    2.3415   15.4363 H         3 RES3    0.0000
     61 C37        7.3470    2.1407   12.8307 C.ar      3 RES3    0.0000
     62 H25        7.6758    2.8093   13.3890 H         3 RES3    0.0000
     63 C38        6.1479   -1.5922   14.3690 C.ar      3 RES3    0.0000
     64 H26        5.8852   -2.4213   14.6995 H         3 RES3    0.0000
     65 C39        7.2556    2.3877   11.5013 C.ar      3 RES3    0.0000
     66 H27        7.5499    3.1976   11.1518 H         3 RES3    0.0000
     67 C40        6.9534    2.6799   19.3133 C.ar      3 RES3    0.0000
     68 H28        6.4771    1.9190   19.5575 H         3 RES3    0.0000
     69 C41        6.0928   -1.3130   13.0544 C.ar      3 RES3    0.0000
     70 H29        5.7960   -1.9744   12.4736 H         3 RES3    0.0000
     71 C42        8.0534    3.9882   17.6986 C.ar      3 RES3    0.0000
     72 H30        8.3433    4.1430   16.8303 H         3 RES3    0.0000
     73 C43        6.6192   -0.5770   15.2350 C.ar      3 RES3    0.0000
     74 H31        6.6756   -0.7586   16.1466 H         3 RES3    0.0000
     75 C44        6.3379    0.2255   11.1477 C.ar      3 RES3    0.0000
     76 H32        5.9878   -0.4126   10.5669 H         3 RES3    0.0000
     77 C45        6.7087    1.3982   10.6558 C.ar      3 RES3    0.0000
     78 H33        6.6075    1.5710    9.7465 H         3 RES3    0.0000
     79 C46        4.2099    6.4944   17.9538 C.ar      4 RES4    0.0000
     80 C47        3.4523    4.3467   14.7929 C.ar      4 RES4    0.0000
     81 C48        3.4499    3.5923   12.4698 C.ar      4 RES4    0.0000
     82 C49        3.3154    4.6329   13.4206 C.ar      4 RES4    0.0000
     83 C50        4.1729    5.4387   16.9317 C.2       4 RES4    0.0000
     84 H34        4.7111    4.6955   17.0848 H         4 RES4    0.0000
     85 C51        3.0389    5.9125   12.9344 C.ar      4 RES4    0.0000
     86 H35        2.9177    6.6107   13.5372 H         4 RES4    0.0000
     87 C52        3.5717    7.7229   17.8403 C.ar      4 RES4    0.0000
     88 H36        3.0932    7.9229   17.0696 H         4 RES4    0.0000
     89 C53        3.4384    5.4293   15.7903 C.2       4 RES4    0.0000
     90 H37        2.8868    6.1600   15.6262 H         4 RES4    0.0000
     91 C54        3.6938    3.0349   15.1704 C.ar      4 RES4    0.0000
     92 H38        3.7777    2.8373   16.0782 H         4 RES4    0.0000
     93 C55        3.7257    2.2943   12.9370 C.ar      4 RES4    0.0000
     94 H39        3.8501    1.6099   12.3179 H         4 RES4    0.0000
     95 C56        4.9182    6.2186   19.1192 C.ar      4 RES4    0.0000
     96 H40        5.3501    5.4004   19.2118 H         4 RES4    0.0000
     97 C57        3.3970    3.8727   11.1101 C.ar      4 RES4    0.0000
     98 H41        3.5354    3.1898   10.4947 H         4 RES4    0.0000
     99 C58        3.8151    2.0121   14.2513 C.ar      4 RES4    0.0000
    100 H42        3.9564    1.1381   14.5361 H         4 RES4    0.0000
    101 C59        2.9414    6.1659   11.5856 C.ar      4 RES4    0.0000
    102 H43        2.7387    7.0238   11.2886 H         4 RES4    0.0000
    103 C60        3.1447    5.1423   10.6619 C.ar      4 RES4    0.0000
    104 H44        3.1084    5.3195    9.7503 H         4 RES4    0.0000
    105 C1A        2.9988    3.3668   -1.0073 C.ar      1 RES1    0.0000
    106 C2A        1.1648    3.1635   -5.6261 C.ar      1 RES1    0.0000
    107 C3A        0.1393    2.7063   -6.5232 C.ar      1 RES1    0.0000
    108 C4A        0.8465    3.1760   -4.2173 C.ar      1 RES1    0.0000
    109 C5A        2.7699    3.0356    0.3194 C.ar      1 RES1    0.0000
    110 H1A        1.9773    2.6068    0.5508 H         1 RES1    0.0000
    111 C6A       -2.2945    6.5290   -5.5527 C.ar      2 RES2    0.0000
    112 C7A       -1.4716    7.3530   -2.0526 C.2       2 RES2    0.0000
    113 H2A       -2.1795    7.9386   -1.9068 H         2 RES2    0.0000
    114 C8A        1.9597    3.0611   -2.0188 C.2       1 RES1    0.0000
    115 H3A        1.2722    2.4913   -1.7586 H         1 RES1    0.0000
    116 C9A       -1.5036    6.6239   -3.1553 C.2       2 RES2    0.0000
    117 H4A       -0.8133    6.0186   -3.3045 H         2 RES2    0.0000
    118 C10A      -1.0207    6.1344   -6.0461 C.ar      2 RES2    0.0000
    119 H5A       -0.3337    5.9707   -5.4430 H         2 RES2    0.0000
    120 C11A      -0.4154    2.9035   -3.8021 C.ar      1 RES1    0.0000
    121 H6A       -0.6205    2.9941   -2.8981 H         1 RES1    0.0000
    122 C12A      -0.4009    7.3141   -1.0267 C.ar      2 RES2    0.0000
    123 C13A       2.4103    3.4446   -6.1757 C.ar      1 RES1    0.0000
    124 H7A        3.0966    3.7248   -5.6139 H         1 RES1    0.0000
    125 C14A      -2.5835    6.7244   -4.1614 C.ar      2 RES2    0.0000
    126 C15A       1.9209    3.5231   -3.2540 C.2       1 RES1    0.0000
    127 H8A        2.5989    4.0942   -3.5362 H         1 RES1    0.0000
    128 C16A      -1.1510    2.3956   -6.0203 C.ar      1 RES1    0.0000
    129 H9A       -1.8221    2.1241   -6.6053 H         1 RES1    0.0000
    130 C17A      -1.4139    2.4926   -4.6799 C.ar      1 RES1    0.0000
    131 H10A      -2.2606    2.2839   -4.3567 H         1 RES1    0.0000
    132 C18A      -0.6013    8.0422    0.1341 C.ar      2 RES2    0.0000
    133 H11A      -1.3823    8.5360    0.2393 H         2 RES2    0.0000
    134 C19A       0.7632    6.5942   -1.1399 C.ar      2 RES2    0.0000
    135 H12A       0.9138    6.0947   -1.9105 H         2 RES2    0.0000
    136 C20A       4.1922    3.9861   -1.3078 C.ar      1 RES1    0.0000
    137 H13A       4.3796    4.2102   -2.1916 H         1 RES1    0.0000
    138 C21A      -3.3154    6.7374   -6.4974 C.ar      2 RES2    0.0000
    139 C22A      -3.8633    7.0531   -3.7839 C.ar      2 RES2    0.0000
    140 H14A      -4.0600    7.1480   -2.8791 H         2 RES2    0.0000
    141 C23A      -4.6190    7.1185   -6.0545 C.ar      2 RES2    0.0000
    142 H15A      -5.2872    7.2784   -6.6812 H         2 RES2    0.0000
    143 C24A       2.6618    3.3235   -7.5134 C.ar      1 RES1    0.0000
    144 H16A       3.5042    3.5343   -7.8473 H         1 RES1    0.0000
    145 C25A       0.4694    2.5878   -7.9100 C.ar      1 RES1    0.0000
    146 H17A      -0.1809    2.2907   -8.5044 H         1 RES1    0.0000
    147 C26A      -0.7789    5.9907   -7.3653 C.ar      2 RES2    0.0000
    148 H18A       0.0670    5.7372   -7.6574 H         2 RES2    0.0000
    149 C27A      -4.8925    7.2504   -4.7441 C.ar      2 RES2    0.0000
    150 H19A      -5.7527    7.4695   -4.4630 H         2 RES2    0.0000
    151 C28A       1.6771    2.8908   -8.3730 C.ar      1 RES1    0.0000
    152 H20A       1.8580    2.8104   -9.2831 H         1 RES1    0.0000
    153 C29A      -1.7901    6.2205   -8.2879 C.ar      2 RES2    0.0000
    154 H21A      -1.6178    6.1036   -9.1957 H         2 RES2    0.0000
    155 C30A      -3.0217    6.6138   -7.8891 C.ar      2 RES2    0.0000
    156 H22A      -3.6775    6.8022   -8.5196 H         2 RES2    0.0000
    157 C31A       8.0403    4.7133   20.0121 C.ar      3 RES3    0.0000
    158 C32A       8.3383    6.9013   23.1894 C.ar      3 RES3    0.0000
    159 C33A       8.3914    5.7175   20.9860 C.2       3 RES3    0.0000
    160 H23A       9.0057    6.3566   20.7046 H         3 RES3    0.0000
    161 C34A       8.8778    7.6539   25.4483 C.ar      3 RES3    0.0000
    162 C35A       8.3673    6.6336   24.5849 C.ar      3 RES3    0.0000
    163 C36A       7.9446    5.8476   22.2452 C.2       3 RES3    0.0000
    164 H24A       7.3316    5.2151   22.5468 H         3 RES3    0.0000
    165 C37A       7.9860    5.4159   25.1524 C.ar      3 RES3    0.0000
    166 H25A       7.6571    4.7473   24.5940 H         3 RES3    0.0000
    167 C38A       9.1850    9.1489   23.6141 C.ar      3 RES3    0.0000
    168 H26A       9.4478    9.9780   23.2836 H         3 RES3    0.0000
    169 C39A       8.0773    5.1690   26.4818 C.ar      3 RES3    0.0000
    170 H27A       7.7830    4.3590   26.8313 H         3 RES3    0.0000
    171 C40A       8.3795    4.8768   18.6698 C.ar      3 RES3    0.0000
    172 H28A       8.8558    5.6376   18.4256 H         3 RES3    0.0000
    173 C41A       9.2401    8.8696   24.9287 C.ar      3 RES3    0.0000
    174 H29A       9.5370    9.5311   25.5094 H         3 RES3    0.0000
    175 C42A       7.2795    3.5684   20.2845 C.ar      3 RES3    0.0000
    176 H30A       6.9897    3.4137   21.1528 H         3 RES3    0.0000
    177 C43A       8.7138    8.1337   22.7481 C.ar      3 RES3    0.0000
    178 H31A       8.6573    8.3152   21.8365 H         3 RES3    0.0000
    179 C44A       8.9950    7.3312   26.8354 C.ar      3 RES3    0.0000
    180 H32A       9.3451    7.9692   27.4162 H         3 RES3    0.0000
    181 C45A       8.6242    6.1584   27.3273 C.ar      3 RES3    0.0000
    182 H33A       8.7254    5.9856   28.2366 H         3 RES3    0.0000
    183 C46A       4.3501    8.3792   20.0292 C.ar      4 RES4    0.0000
    184 C47A       5.1077   10.5269   23.1902 C.ar      4 RES4    0.0000
    185 C48A       5.1100   11.2813   25.5132 C.ar      4 RES4    0.0000
    186 C49A       5.2445   10.2407   24.5625 C.ar      4 RES4    0.0000
    187 C50A       4.3870    9.4349   21.0514 C.2       4 RES4    0.0000
    188 H34A       3.8488   10.1780   20.8983 H         4 RES4    0.0000
    189 C51A       5.5211    8.9611   25.0487 C.ar      4 RES4    0.0000
    190 H35A       5.6422    8.2629   24.4459 H         4 RES4    0.0000
    191 C52A       4.9882    7.1506   20.1428 C.ar      4 RES4    0.0000
    192 H36A       5.4668    6.9506   20.9135 H         4 RES4    0.0000
    193 C53A       5.1215    9.4443   22.1928 C.2       4 RES4    0.0000
    194 H37A       5.6732    8.7136   22.3568 H         4 RES4    0.0000
    195 C54A       4.8661   11.8386   22.8126 C.ar      4 RES4    0.0000
    196 H38A       4.7823   12.0363   21.9048 H         4 RES4    0.0000
    197 C55A       4.8342   12.5793   25.0460 C.ar      4 RES4    0.0000
    198 H39A       4.7098   13.2637   25.6652 H         4 RES4    0.0000
    199 C56A       3.6418    8.6550   18.8639 C.ar      4 RES4    0.0000
    200 H40A       3.2099    9.4732   18.7712 H         4 RES4    0.0000
    201 C57A       5.1629   11.0009   26.8730 C.ar      4 RES4    0.0000
    202 H41A       5.0245   11.6837   27.4884 H         4 RES4    0.0000
    203 C58A       4.7449   12.8615   23.7318 C.ar      4 RES4    0.0000
    204 H42A       4.6035   13.7355   23.4470 H         4 RES4    0.0000
    205 C59A       5.6185    8.7076   26.3975 C.ar      4 RES4    0.0000
    206 H43A       5.8213    7.8498   26.6945 H         4 RES4    0.0000
    207 C60A       5.4152    9.7313   27.3212 C.ar      4 RES4    0.0000
    208 H44A       5.4515    9.5541   28.2328 H         4 RES4    0.0000
@<TRIPOS>BOND
     1    1    5 ar
     2    2    3 ar
     3    3   24 ar
     4    4    2 ar
     5    5    6 1
     6    7   14 ar
     7    8    9 1
     8   10    1 1
     9   11   10 1
    10   12    8 2
    11   13   12 1
    12   14   15 1
    13   16    4 ar
    14   17   16 1
    15   18    8 1
    16   19    2 ar
    17   20   19 1
    18   21    7 ar
    19   22    4 1
    20   23   22 1
    21   24   25 1
    22   26   16 ar
    23   27   26 1
    24   28   18 ar
    25   29   28 1
    26   30   18 ar
    27   31   30 1
    28   32    1 ar
    29   33   32 1
    30   34    7 ar
    31   35   21 ar
    32   36   35 1
    33   37   34 ar
    34   38   37 1
    35   39   19 ar
    36   40   39 1
    37   41    3 ar
    38   42   41 1
    39   43   14 ar
    40   44   43 1
    41   45   35 ar
    42   46   45 1
    43   47   39 ar
    44   48   47 1
    45   49   43 ar
    46   50   49 1
    47   51   34 ar
    48   52   51 1
    49   53   55 1
    50   54   58 ar
    51   55   56 1
    52   57   58 ar
    53   58   61 ar
    54   59   54 1
    55   60   59 1
    56   61   62 1
    57   63   64 1
    58   65   61 ar
    59   66   65 1
    60   67   53 ar
    61   68   67 1
    62   69   57 ar
    63   70   69 1
    64   71   53 ar
    65   72   71 1
    66   73   54 ar
    67   74   73 1
    68   75   57 ar
    69   76   75 1
    70   77   65 ar
    71   78   77 1
    72   79   83 1
    73   80   82 ar
    74   81   82 ar
    75   82   85 ar
    76   83   84 1
    77   85   86 1
    78   87   79 ar
    79   88   87 1
    80   89   80 1
    81   90   89 1
    82   91   80 ar
    83   92   91 1
    84   93   81 ar
    85   94   93 1
    86   95   79 ar
    87   96   95 1
    88   97   81 ar
    89   98   97 1
    90   99   91 ar
    91  100   99 1
    92  101   85 ar
    93  102  101 1
    94  103   97 ar
    95  104  103 1
    96  105  109 ar
    97  106  107 ar
    98  107  128 ar
    99  108  106 ar
   100  109   32 ar
   101  110  109 1
   102  111  118 ar
   103  112  113 1
   104  114  105 1
   105  115  114 1
   106  116  112 2
   107  117  116 1
   108  118  119 1
   109  120  108 ar
   110  121  120 1
   111  122  112 1
   112  123  106 ar
   113  124  123 1
   114  125  111 ar
   115  126  108 1
   116  127  126 1
   117  128  129 1
   118  130  120 ar
   119  131  130 1
   120  132   30 ar
   121  133  132 1
   122  134   28 ar
   123  135  134 1
   124  136    5 ar
   125  137  136 1
   126  138  111 ar
   127  139  125 ar
   128  140  139 1
   129  141  138 ar
   130  142  141 1
   131  143  123 ar
   132  144  143 1
   133  145  107 ar
   134  146  145 1
   135  147  118 ar
   136  148  147 1
   137  149  139 ar
   138  150  149 1
   139  151  143 ar
   140  152  151 1
   141  153  147 ar
   142  154  153 1
   143  155  138 ar
   144  156  155 1
   145  157  159 1
   146  158  162 ar
   147  159  160 1
   148  161  162 ar
   149  162  165 ar
   150  163  158 1
   151  164  163 1
   152  165  166 1
   153  167  168 1
   154  169  165 ar
   155  170  169 1
   156  171   71 ar
   157  172  171 1
   158  173  161 ar
   159  174  173 1
   160  175   67 ar
   161  176  175 1
   162  177  158 ar
   163  178  177 1
   164  179  161 ar
   165  180  179 1
   166  181  169 ar
   167  182  181 1
   168  183  187 1
   169  184  186 ar
   170  185  186 ar
   171  186  189 ar
   172  187  188 1
   173  189  190 1
   174  191   95 ar
   175  192  191 1
   176  193  184 1
   177  194  193 1
   178  195  184 ar
   179  196  195 1
   180  197  185 ar
   181  198  197 1
   182  199   87 ar
   183  200  199 1
   184  201  185 ar
   185  202  201 1
   186  203  195 ar
   187  204  203 1
   188  205  189 ar
   189  206  205 1
   190  207  201 ar
   191  208  207 1
   192   10   22 2
   193   12   21 1
   194   24   26 ar
   195   37   45 ar
   196   41   47 ar
   197   49   51 ar
   198   55   59 2
   199   63   69 ar
   200   63   73 ar
   201   75   77 ar
   202   83   89 2
   203   93   99 ar
   204  101  103 ar
   205  105  136 ar
   206  114  126 2
   207  116  125 1
   208  122  132 ar
   209  122  134 ar
   210  128  130 ar
   211  141  149 ar
   212  145  151 ar
   213  153  155 ar
   214  157  171 ar
   215  157  175 ar
   216  159  163 2
   217  167  173 ar
   218  167  177 ar
   219  179  181 ar
   220  183  191 ar
   221  183  199 ar
   222  187  193 2
   223  197  203 ar
   224  205  207 ar
@<TRIPOS>SUBSTRUCTURE
     1 RES1 1
     2 RES2 7
     3 RES3 53
     4 RES4 79

@<TRIPOS>CRYSIN
   7.3324    7.3383   37.9840  89.6270  89.8360  85.6280   2 1

