# MOL2 file generated by ConQuest
# Please check atom types

@<TRIPOS>MOLECULE
MASXEM
    48    54     1
SMALL
NO_CHARGES
****
Generated from CSD

@<TRIPOS>ATOM
      1 C1         3.1752   -0.0312   14.6255 C.ar      1 RES1    0.0000
      2 H1         3.6469    0.0564   15.4448 H         1 RES1    0.0000
      3 C2         2.5220   -1.2086   14.3348 C.ar      1 RES1    0.0000
      4 H2         2.5462   -1.9307   14.9533 H         1 RES1    0.0000
      5 C3         1.8220   -1.3428   13.1315 C.ar      1 RES1    0.0000
      6 H3         1.3668   -2.1544   12.9376 H         1 RES1    0.0000
      7 C4         1.7887   -0.3083   12.2246 C.ar      1 RES1    0.0000
      8 H4         1.3132   -0.4192   11.4109 H         1 RES1    0.0000
      9 C5         2.4487    0.9176   12.4800 C.ar      1 RES1    0.0000
     10 C6         3.1472    1.0488   13.7083 C.ar      1 RES1    0.0000
     11 C7         3.8412    2.2660   13.9925 C.ar      1 RES1    0.0000
     12 H5         4.2911    2.3619   14.8228 H         1 RES1    0.0000
     13 C8         3.8707    3.2904   13.0974 C.ar      1 RES1    0.0000
     14 H6         4.3417    4.0870   13.3151 H         1 RES1    0.0000
     15 C9         3.2047    3.1924   11.8292 C.ar      1 RES1    0.0000
     16 C10        2.4714    2.0252   11.5377 C.ar      1 RES1    0.0000
     17 C11        1.7532    1.9756   10.3118 C.ar      1 RES1    0.0000
     18 H7         1.1756    1.2394   10.1454 H         1 RES1    0.0000
     19 C12        1.8681    2.9490    9.3680 C.ar      1 RES1    0.0000
     20 H8         1.3820    2.8678    8.5546 H         1 RES1    0.0000
     21 C13        2.7012    4.0911    9.5701 C.ar      1 RES1    0.0000
     22 C14        3.2735    4.2636   10.8596 C.ar      1 RES1    0.0000
     23 C15        3.8624    5.5181   11.1623 C.ar      1 RES1    0.0000
     24 H9         4.2903    5.6428   12.0021 H         1 RES1    0.0000
     25 C16        3.8238    6.5491   10.2669 C.ar      1 RES1    0.0000
     26 H10        4.1459    7.4022   10.5324 H         1 RES1    0.0000
     27 C17        3.3166    6.3814    8.9544 C.ar      1 RES1    0.0000
     28 C18        2.8781    5.1118    8.5575 C.ar      1 RES1    0.0000
     29 C19        2.6778    4.8579    7.1253 C.ar      1 RES1    0.0000
     30 C20        2.7723    3.5606    6.5763 C.ar      1 RES1    0.0000
     31 H11        2.9144    2.8214    7.1561 H         1 RES1    0.0000
     32 C21        2.6634    3.3408    5.2199 C.ar      1 RES1    0.0000
     33 H12        2.7269    2.4567    4.8768 H         1 RES1    0.0000
     34 C22        2.4593    4.4163    4.3500 C.ar      1 RES1    0.0000
     35 H13        2.3496    4.2644    3.4190 H         1 RES1    0.0000
     36 C23        2.4177    5.6940    4.8512 C.ar      1 RES1    0.0000
     37 H14        2.2945    6.4228    4.2547 H         1 RES1    0.0000
     38 C24        2.5545    5.9502    6.2370 C.ar      1 RES1    0.0000
     39 C25        2.6921    7.3218    6.7354 C.ar      1 RES1    0.0000
     40 C26        2.3920    8.4431    5.9391 C.ar      1 RES1    0.0000
     41 H15        2.0072    8.3171    5.0786 H         1 RES1    0.0000
     42 C27        2.6483    9.7254    6.3869 C.ar      1 RES1    0.0000
     43 H16        2.4336   10.4735    5.8408 H         1 RES1    0.0000
     44 C28        3.2213    9.9191    7.6403 C.ar      1 RES1    0.0000
     45 H17        3.4292   10.7980    7.9349 H         1 RES1    0.0000
     46 C29        3.4897    8.8401    8.4546 C.ar      1 RES1    0.0000
     47 H18        3.8753    8.9862    9.3096 H         1 RES1    0.0000
     48 C30        3.2009    7.5209    8.0394 C.ar      1 RES1    0.0000
@<TRIPOS>BOND
     1    1    2 1
     2    3    1 ar
     3    4    3 1
     4    5    3 ar
     5    6    5 1
     6    7    5 ar
     7    8    7 1
     8    9    7 ar
     9   10    1 ar
    10   11   10 ar
    11   12   11 1
    12   13   11 ar
    13   14   13 1
    14   15   13 ar
    15   16    9 ar
    16   17   16 ar
    17   18   17 1
    18   19   17 ar
    19   20   19 1
    20   21   19 ar
    21   22   15 ar
    22   23   22 ar
    23   24   23 1
    24   25   23 ar
    25   26   25 1
    26   27   25 ar
    27   28   21 ar
    28   29   28 ar
    29   30   29 ar
    30   31   30 1
    31   32   30 ar
    32   33   32 1
    33   34   32 ar
    34   35   34 1
    35   36   34 ar
    36   37   36 1
    37   38   29 ar
    38   39   38 ar
    39   40   39 ar
    40   41   40 1
    41   42   40 ar
    42   43   42 1
    43   44   42 ar
    44   45   44 1
    45   46   44 ar
    46   47   46 1
    47   48   27 ar
    48    9   10 ar
    49   15   16 ar
    50   21   22 ar
    51   27   28 ar
    52   36   38 ar
    53   39   48 ar
    54   46   48 ar
@<TRIPOS>SUBSTRUCTURE
     1 RES1 1

@<TRIPOS>CRYSIN
   7.5600   20.1530   23.7430  90.0000  90.0000  90.0000  61 1

