# MOL2 file generated by ConQuest
# Please check atom types

@<TRIPOS>MOLECULE
MEBANT10
    33    36     1
SMALL
NO_CHARGES
****
Generated from CSD

@<TRIPOS>ATOM
      1 C1        -2.1257   -2.2125   -2.2411 C.ar      1 RES1    0.0000
      2 C2        -0.9734   -2.1857   -1.4665 C.ar      1 RES1    0.0000
      3 C3        -0.9201   -2.8079   -0.2414 C.ar      1 RES1    0.0000
      4 C4        -2.0383   -3.4486    0.2313 C.ar      1 RES1    0.0000
      5 C5        -4.4323   -3.9830    0.0826 C.ar      1 RES1    0.0000
      6 C6        -5.6049   -3.8862   -0.5516 C.ar      1 RES1    0.0000
      7 C7        -6.9156   -3.3764   -2.5403 C.ar      1 RES1    0.0000
      8 C8        -8.2870   -2.9374   -4.5427 C.ar      1 RES1    0.0000
      9 C9        -8.3801   -2.5794   -5.8569 C.ar      1 RES1    0.0000
     10 C10       -7.1929   -2.3264   -6.6012 C.ar      1 RES1    0.0000
     11 C11       -5.9584   -2.4633   -6.0221 C.ar      1 RES1    0.0000
     12 C12       -4.5548   -2.8659   -4.0086 C.ar      1 RES1    0.0000
     13 C13       -3.2589   -2.9478   -1.8199 C.ar      1 RES1    0.0000
     14 C14       -3.2421   -3.4762   -0.5240 C.ar      1 RES1    0.0000
     15 C15       -5.6807   -3.4189   -1.9125 C.ar      1 RES1    0.0000
     16 C16       -7.0173   -3.0393   -3.9031 C.ar      1 RES1    0.0000
     17 C17       -5.8264   -2.7885   -4.6483 C.ar      1 RES1    0.0000
     18 C18       -4.4925   -3.0549   -2.6320 C.ar      1 RES1    0.0000
     19 C19       -3.3178   -2.9031   -4.8924 C.3       1 RES1    0.0000
     20 H1        -2.1443   -1.7340   -3.0744 H         1 RES1    0.0000
     21 H2        -0.2017   -1.7042   -1.7987 H         1 RES1    0.0000
     22 H3        -0.1201   -2.8056    0.2753 H         1 RES1    0.0000
     23 H4        -1.9807   -3.9219    1.0646 H         1 RES1    0.0000
     24 H5        -4.3964   -4.3833    0.9544 H         1 RES1    0.0000
     25 H6        -6.4109   -4.1378   -0.1009 H         1 RES1    0.0000
     26 H7        -7.7008   -3.6391   -2.0741 H         1 RES1    0.0000
     27 H8        -9.1016   -3.1108   -4.0564 H         1 RES1    0.0000
     28 H9        -8.9005   -2.5005   -6.2772 H         1 RES1    0.0000
     29 H10       -7.2482   -2.0168   -7.5070 H         1 RES1    0.0000
     30 H11       -5.1751   -2.3814   -6.5434 H         1 RES1    0.0000
     31 H12       -3.3924   -3.7210   -5.7725 H         1 RES1    0.0000
     32 H13       -2.3482   -3.1256   -4.2307 H         1 RES1    0.0000
     33 H14       -3.1814   -1.8158   -5.4146 H         1 RES1    0.0000
@<TRIPOS>BOND
     1    1    2 ar
     2    2    3 ar
     3    3    4 ar
     4    4   14 ar
     5    5    6 ar
     6    6   15 ar
     7    7   15 ar
     8    8    9 ar
     9    9   10 ar
    10   10   11 ar
    11   11   17 ar
    12   12   17 ar
    13   13    1 ar
    14   14    5 ar
    15   15   18 ar
    16   16    7 ar
    17   17   16 ar
    18   18   12 ar
    19   19   12 1
    20   20    1 1
    21   21    2 1
    22   22    3 1
    23   23    4 1
    24   24    5 1
    25   25    6 1
    26   26    7 1
    27   27    8 1
    28   28    9 1
    29   29   10 1
    30   30   11 1
    31   31   19 1
    32   32   19 1
    33   33   19 1
    34    8   16 ar
    35   13   14 ar
    36   13   18 ar
@<TRIPOS>SUBSTRUCTURE
     1 RES1 1

@<TRIPOS>CRYSIN
   9.2690    7.4420    9.1820  90.0000  91.8400  90.0000   4 1

