# MOL2 file generated by ConQuest
# Please check atom types

@<TRIPOS>MOLECULE
MEHPEX
   216   236     4
SMALL
NO_CHARGES
****
Generated from CSD

@<TRIPOS>ATOM
      1 C1         6.5207    7.3030   25.7593 C.ar      1 RES1    0.0000
      2 C2         5.6828    8.3219   26.1303 C.ar      1 RES1    0.0000
      3 H1         5.3005    8.8770   25.4615 H         1 RES1    0.0000
      4 C3         5.3770    8.5621   27.4864 C.ar      1 RES1    0.0000
      5 H2         4.7902    9.2749   27.7106 H         1 RES1    0.0000
      6 C4         5.9124    7.7828   28.4913 C.ar      1 RES1    0.0000
      7 C5         7.2094    5.7158   29.0801 C.ar      1 RES1    0.0000
      8 H3         6.9899    5.8287   29.9964 H         1 RES1    0.0000
      9 C6         7.9673    4.6547   28.7098 C.ar      1 RES1    0.0000
     10 H4         8.2670    4.0393   29.3682 H         1 RES1    0.0000
     11 C7         8.3174    4.4522   27.3607 C.ar      1 RES1    0.0000
     12 H5         8.8604    3.7115   27.1158 H         1 RES1    0.0000
     13 C8         7.8713    5.3262   26.4066 C.ar      1 RES1    0.0000
     14 H6         8.1178    5.1930   25.4983 H         1 RES1    0.0000
     15 C9         7.0404    6.4379   26.7512 C.ar      1 RES1    0.0000
     16 C10        6.7355    6.6629   28.1384 C.ar      1 RES1    0.0000
     17 C11        6.8643    7.1704   24.3089 C.ar      1 RES1    0.0000
     18 C12        7.6647    8.1184   23.7074 C.ar      1 RES1    0.0000
     19 H7         8.0428    8.8094   24.2384 H         1 RES1    0.0000
     20 C13        7.9389    8.0929   22.3312 C.ar      1 RES1    0.0000
     21 H8         8.5066    8.7568   21.9593 H         1 RES1    0.0000
     22 C14        7.4100    7.1394   21.5138 C.ar      1 RES1    0.0000
     23 C15        5.8770    5.1738   21.2745 C.ar      1 RES1    0.0000
     24 H9         5.9851    5.1855   20.3318 H         1 RES1    0.0000
     25 C16        5.0615    4.2318   21.8433 C.ar      1 RES1    0.0000
     26 H10        4.6103    3.6038   21.2909 H         1 RES1    0.0000
     27 C17        4.8881    4.1845   23.2322 C.ar      1 RES1    0.0000
     28 H11        4.3573    3.4987   23.6202 H         1 RES1    0.0000
     29 C18        5.4774    5.1180   24.0299 C.ar      1 RES1    0.0000
     30 H12        5.3290    5.0904   24.9670 H         1 RES1    0.0000
     31 C19        6.3187    6.1413   23.4778 C.ar      1 RES1    0.0000
     32 C20        6.5647    6.1378   22.0672 C.ar      1 RES1    0.0000
     33 C21        5.6196    8.1322   29.9089 C.ar      1 RES1    0.0000
     34 C22        4.2975    8.3391   30.3203 C.ar      1 RES1    0.0000
     35 H13        3.5898    8.2338   29.6957 H         1 RES1    0.0000
     36 C23        4.0137    8.6950   31.6259 C.ar      1 RES1    0.0000
     37 H14        3.1085    8.8119   31.8946 H         1 RES1    0.0000
     38 C24        5.0218    8.8837   32.5443 C.ar      1 RES1    0.0000
     39 H15        4.8143    9.1423   33.4352 H         1 RES1    0.0000
     40 C25        6.3500    8.6915   32.1600 C.ar      1 RES1    0.0000
     41 H16        7.0515    8.8169   32.7869 H         1 RES1    0.0000
     42 C26        6.6407    8.3169   30.8603 C.ar      1 RES1    0.0000
     43 H17        7.5464    8.1812   30.6047 H         1 RES1    0.0000
     44 C27        7.7303    7.2104   20.0334 C.ar      1 RES1    0.0000
     45 C28        8.1345    6.1128   19.3045 C.ar      1 RES1    0.0000
     46 H18        8.2006    5.2631   19.7269 H         1 RES1    0.0000
     47 C29        8.4478    6.2437   17.9370 C.ar      1 RES1    0.0000
     48 H19        8.7145    5.4833   17.4344 H         1 RES1    0.0000
     49 C30        8.3659    7.4827   17.3325 C.ar      1 RES1    0.0000
     50 H20        8.5644    7.5756   16.4085 H         1 RES1    0.0000
     51 C31        7.9967    8.5829   18.0724 C.ar      1 RES1    0.0000
     52 H21        7.9626    9.4376   17.6617 H         1 RES1    0.0000
     53 C32        7.6745    8.4523   19.4065 C.ar      1 RES1    0.0000
     54 H22        7.4120    9.2173   19.9041 H         1 RES1    0.0000
     55 C33        1.4634    8.5807   25.6136 C.ar      2 RES2    0.0000
     56 C34        0.7344    7.5961   26.2255 C.ar      2 RES2    0.0000
     57 H23        0.4036    6.8723   25.7055 H         2 RES2    0.0000
     58 C35        0.4636    7.6281   27.5943 C.ar      2 RES2    0.0000
     59 H24       -0.0669    6.9349   27.9713 H         2 RES2    0.0000
     60 C36        0.9353    8.6260   28.4261 C.ar      2 RES2    0.0000
     61 C37        2.3097   10.7367   28.5698 C.ar      2 RES2    0.0000
     62 H25        2.1783   10.7615   29.5119 H         2 RES2    0.0000
     63 C38        3.0594   11.7210   27.9719 C.ar      2 RES2    0.0000
     64 H26        3.4105   12.4333   28.4926 H         2 RES2    0.0000
     65 C39        3.3075   11.6750   26.5878 C.ar      2 RES2    0.0000
     66 H27        3.8351   12.3482   26.1767 H         2 RES2    0.0000
     67 C40        2.7923   10.6671   25.8432 C.ar      2 RES2    0.0000
     68 H28        2.9788   10.6414   24.9135 H         2 RES2    0.0000
     69 C41        1.9830    9.6498   26.4083 C.ar      2 RES2    0.0000
     70 C42        1.7268    9.6853   27.8199 C.ar      2 RES2    0.0000
     71 C43        1.7878    8.4573   24.1599 C.ar      2 RES2    0.0000
     72 C44        2.6250    7.4374   23.7515 C.ar      2 RES2    0.0000
     73 H29        3.0139    6.8673   24.4055 H         2 RES2    0.0000
     74 C45        2.9145    7.2242   22.3991 C.ar      2 RES2    0.0000
     75 H30        3.5180    6.5295   22.1631 H         2 RES2    0.0000
     76 C46        2.3544    7.9848   21.4065 C.ar      2 RES2    0.0000
     77 C47        0.9497    9.9706   20.8003 C.ar      2 RES2    0.0000
     78 H31        1.1280    9.8230   19.8773 H         2 RES2    0.0000
     79 C48        0.1652   11.0225   21.1793 C.ar      2 RES2    0.0000
     80 H32       -0.1881   11.6074   20.5190 H         2 RES2    0.0000
     81 C49       -0.1234   11.2480   22.5338 C.ar      2 RES2    0.0000
     82 H33       -0.6877   11.9703   22.7814 H         2 RES2    0.0000
     83 C50        0.4043   10.4306   23.4999 C.ar      2 RES2    0.0000
     84 H34        0.2182   10.6063   24.4156 H         2 RES2    0.0000
     85 C51        1.2282    9.3194   23.1540 C.ar      2 RES2    0.0000
     86 C52        1.5072    9.0864   21.7818 C.ar      2 RES2    0.0000
     87 C53        0.6212    8.5869   29.8735 C.ar      2 RES2    0.0000
     88 C54        0.7189    7.3541   30.5475 C.ar      2 RES2    0.0000
     89 H35        1.0069    6.5845   30.0700 H         2 RES2    0.0000
     90 C55        0.4064    7.2387   31.8913 C.ar      2 RES2    0.0000
     91 H36        0.4852    6.3968   32.3257 H         2 RES2    0.0000
     92 C56       -0.0162    8.3309   32.5974 C.ar      2 RES2    0.0000
     93 H37       -0.2399    8.2488   33.5187 H         2 RES2    0.0000
     94 C57       -0.1173    9.5647   31.9611 C.ar      2 RES2    0.0000
     95 H38       -0.3957   10.3285   32.4527 H         2 RES2    0.0000
     96 C58        0.1851    9.6838   30.6157 C.ar      2 RES2    0.0000
     97 H39        0.0938   10.5287   30.1903 H         2 RES2    0.0000
     98 C59        2.6460    7.6231   19.9939 C.ar      2 RES2    0.0000
     99 C60        1.6314    7.3606   19.0609 C.ar      2 RES2    0.0000
    100 H40        0.7222    7.4930   19.2992 H         2 RES2    0.0000
    101 C61        1.9556    6.9074   17.7870 C.ar      2 RES2    0.0000
    102 H41        1.2586    6.7072   17.1738 H         2 RES2    0.0000
    103 C62        3.2678    6.7442   17.3957 C.ar      2 RES2    0.0000
    104 H42        3.4718    6.4469   16.5188 H         2 RES2    0.0000
    105 C63        4.2926    7.0207   18.3003 C.ar      2 RES2    0.0000
    106 H43        5.2004    6.9149   18.0426 H         2 RES2    0.0000
    107 C64        3.9748    7.4570   19.5936 C.ar      2 RES2    0.0000
    108 H44        4.6748    7.6432   20.2082 H         2 RES2    0.0000
    109 C65        7.1459   10.2242    9.4675 C.ar      3 RES3    0.0000
    110 C66        6.3637   11.1947   10.0098 C.ar      3 RES3    0.0000
    111 H45        6.0020   11.8677    9.4474 H         3 RES3    0.0000
    112 C67        6.0741   11.2240   11.3930 C.ar      3 RES3    0.0000
    113 H46        5.4944   11.8952   11.7332 H         3 RES3    0.0000
    114 C68        6.6088   10.3110   12.2482 C.ar      3 RES3    0.0000
    115 C69        8.1345    8.3376   12.5510 C.ar      3 RES3    0.0000
    116 H47        8.0334    8.4040   13.4944 H         3 RES3    0.0000
    117 C70        8.9247    7.3596   12.0397 C.ar      3 RES3    0.0000
    118 H48        9.3606    6.7472   12.6222 H         3 RES3    0.0000
    119 C71        9.1006    7.2505   10.6364 C.ar      3 RES3    0.0000
    120 H49        9.6274    6.5470   10.2762 H         3 RES3    0.0000
    121 C72        8.5076    8.1657    9.8003 C.ar      3 RES3    0.0000
    122 H50        8.6439    8.1011    8.8626 H         3 RES3    0.0000
    123 C73        7.6907    9.2083   10.3223 C.ar      3 RES3    0.0000
    124 C74        7.4583    9.2601   11.7195 C.ar      3 RES3    0.0000
    125 C75        7.4760   10.2945    7.9977 C.ar      3 RES3    0.0000
    126 C76        8.3149   11.2920    7.5703 C.ar      3 RES3    0.0000
    127 H51        8.7164   11.8652    8.2109 H         3 RES3    0.0000
    128 C77        8.5933   11.4848    6.2152 C.ar      3 RES3    0.0000
    129 H52        9.1681   12.1955    5.9585 H         3 RES3    0.0000
    130 C78        8.0586   10.6729    5.2474 C.ar      3 RES3    0.0000
    131 C79        6.7679    8.5756    4.7401 C.ar      3 RES3    0.0000
    132 H53        6.9956    8.6467    3.8197 H         3 RES3    0.0000
    133 C80        5.9869    7.5370    5.1608 C.ar      3 RES3    0.0000
    134 H54        5.6861    6.8899    4.5349 H         3 RES3    0.0000
    135 C81        5.6223    7.4157    6.5186 C.ar      3 RES3    0.0000
    136 H55        5.0499    6.7097    6.7940 H         3 RES3    0.0000
    137 C82        6.0902    8.3079    7.4306 C.ar      3 RES3    0.0000
    138 H56        5.8465    8.2088    8.3446 H         3 RES3    0.0000
    139 C83        6.9375    9.3880    7.0510 C.ar      3 RES3    0.0000
    140 C84        7.2466    9.5577    5.6608 C.ar      3 RES3    0.0000
    141 C85        6.2824   10.4139   13.6999 C.ar      3 RES3    0.0000
    142 C86        6.3404   11.6747   14.3235 C.ar      3 RES3    0.0000
    143 H57        6.6159   12.4358   13.8286 H         3 RES3    0.0000
    144 C87        5.9969   11.8076   15.6576 C.ar      3 RES3    0.0000
    145 H58        6.0553   12.6610   16.0676 H         3 RES3    0.0000
    146 C88        5.5783   10.7432   16.3931 C.ar      3 RES3    0.0000
    147 H59        5.3347   10.8591   17.3041 H         3 RES3    0.0000
    148 C89        5.5100    9.4816   15.8023 C.ar      3 RES3    0.0000
    149 H60        5.2329    8.7318   16.3149 H         3 RES3    0.0000
    150 C90        5.8496    9.3257   14.4645 C.ar      3 RES3    0.0000
    151 H61        5.7858    8.4665   14.0625 H         3 RES3    0.0000
    152 C91        8.3155   10.9822    3.8147 C.ar      3 RES3    0.0000
    153 C92        7.2601   11.0590    2.8917 C.ar      3 RES3    0.0000
    154 H62        6.3707   10.8741    3.1714 H         3 RES3    0.0000
    155 C93        7.5149   11.4032    1.5750 C.ar      3 RES3    0.0000
    156 H63        6.7926   11.4772    0.9625 H         3 RES3    0.0000
    157 C94        8.7953   11.6402    1.1402 C.ar      3 RES3    0.0000
    158 H64        8.9538   11.8602    0.2306 H         3 RES3    0.0000
    159 C95        9.8600   11.5586    2.0322 C.ar      3 RES3    0.0000
    160 H65       10.7500   11.7100    1.7344 H         3 RES3    0.0000
    161 C96        9.6077   11.2515    3.3636 C.ar      3 RES3    0.0000
    162 H66       10.3298   11.2245    3.9801 H         3 RES3    0.0000
    163 C97        2.0915   11.5413    9.4120 C.ar      4 RES4    0.0000
    164 C98        1.2789   10.5402    9.8708 C.ar      4 RES4    0.0000
    165 H67        0.8920    9.9406    9.2469 H         4 RES4    0.0000
    166 C99        0.9989   10.3723   11.2390 C.ar      4 RES4    0.0000
    167 H68        0.4085    9.6778   11.5093 H         4 RES4    0.0000
    168 C100       1.5535   11.1824   12.1891 C.ar      4 RES4    0.0000
    169 C101       2.9740   13.1701   12.6907 C.ar      4 RES4    0.0000
    170 H69        2.8027   13.0564   13.6180 H         4 RES4    0.0000
    171 C102       3.7706   14.2124   12.2863 C.ar      4 RES4    0.0000
    172 H70        4.1448   14.8083   12.9263 H         4 RES4    0.0000
    173 C103       4.0295   14.3909   10.9108 C.ar      4 RES4    0.0000
    174 H71        4.5750   15.1136   10.6237 H         4 RES4    0.0000
    175 C104       3.4994   13.5277    9.9848 C.ar      4 RES4    0.0000
    176 H72        3.6897   13.6571    9.0631 H         4 RES4    0.0000
    177 C105       2.6656   12.4380   10.3825 C.ar      4 RES4    0.0000
    178 C106       2.3971   12.2601   11.7717 C.ar      4 RES4    0.0000
    179 C107       2.4188   11.6026    7.9640 C.ar      4 RES4    0.0000
    180 C108       3.1615   10.5931    7.3948 C.ar      4 RES4    0.0000
    181 H73        3.5054    9.9006    7.9469 H         4 RES4    0.0000
    182 C109       3.4197   10.5675    6.0100 C.ar      4 RES4    0.0000
    183 H74        3.9355    9.8580    5.6477 H         4 RES4    0.0000
    184 C110       2.9363   11.5578    5.1658 C.ar      4 RES4    0.0000
    185 C111       1.5517   13.6250    4.9115 C.ar      4 RES4    0.0000
    186 H75        1.6840   13.6070    3.9701 H         4 RES4    0.0000
    187 C112       0.7944   14.6213    5.4649 C.ar      4 RES4    0.0000
    188 H76        0.4343   15.3038    4.9125 H         4 RES4    0.0000
    189 C113       0.5485   14.6401    6.8418 C.ar      4 RES4    0.0000
    190 H77        0.0130   15.3289    7.2184 H         4 RES4    0.0000
    191 C114       1.0737   13.6708    7.6488 C.ar      4 RES4    0.0000
    192 H78        0.8911   13.6871    8.5819 H         4 RES4    0.0000
    193 C115       1.8931   12.6360    7.1131 C.ar      4 RES4    0.0000
    194 C116       2.1446   12.6132    5.7189 C.ar      4 RES4    0.0000
    195 C117       1.2416   10.8971   13.6321 C.ar      4 RES4    0.0000
    196 C118       2.2523   10.5550   14.5334 C.ar      4 RES4    0.0000
    197 H79        3.1609   10.5838   14.2530 H         4 RES4    0.0000
    198 C119       1.9433   10.1736   15.8364 C.ar      4 RES4    0.0000
    199 H80        2.6337    9.9181   16.4352 H         4 RES4    0.0000
    200 C120       0.6139   10.1693   16.2538 C.ar      4 RES4    0.0000
    201 H81        0.3932    9.9306   17.1470 H         4 RES4    0.0000
    202 C121      -0.3761   10.5132   15.3668 C.ar      4 RES4    0.0000
    203 H82       -1.2828   10.5162   15.6499 H         4 RES4    0.0000
    204 C122      -0.0608   10.8546   14.0595 C.ar      4 RES4    0.0000
    205 H83       -0.7590   11.0618   13.4509 H         4 RES4    0.0000
    206 C123       3.2328   11.4580    3.7018 C.ar      4 RES4    0.0000
    207 C124       3.6725   12.5404    2.9408 C.ar      4 RES4    0.0000
    208 H84        3.8215   13.3793    3.3652 H         4 RES4    0.0000
    209 C125       3.8999   12.4162    1.5697 C.ar      4 RES4    0.0000
    210 H85        4.1860   13.1665    1.0627 H         4 RES4    0.0000
    211 C126       3.7034   11.1792    0.9424 C.ar      4 RES4    0.0000
    212 H86        3.8487   11.0843    0.0067 H         4 RES4    0.0000
    213 C127       3.3004   10.1073    1.6963 C.ar      4 RES4    0.0000
    214 H87        3.1775    9.2649    1.2766 H         4 RES4    0.0000
    215 C128       3.0673   10.2269    3.0555 C.ar      4 RES4    0.0000
    216 H88        2.7916    9.4676    3.5557 H         4 RES4    0.0000
@<TRIPOS>BOND
     1    1    2 ar
     2    2    3 1
     3    4    2 ar
     4    5    4 1
     5    6    4 ar
     6    7    8 1
     7    9    7 ar
     8   10    9 1
     9   11    9 ar
    10   12   11 1
    11   13   11 ar
    12   14   13 1
    13   15    1 ar
    14   16    6 ar
    15   17    1 1
    16   18   17 ar
    17   19   18 1
    18   20   18 ar
    19   21   20 1
    20   22   20 ar
    21   23   24 1
    22   25   23 ar
    23   26   25 1
    24   27   25 ar
    25   28   27 1
    26   29   27 ar
    27   30   29 1
    28   31   17 ar
    29   32   22 ar
    30   33    6 1
    31   34   33 ar
    32   35   34 1
    33   36   34 ar
    34   37   36 1
    35   38   36 ar
    36   39   38 1
    37   40   38 ar
    38   41   40 1
    39   42   33 ar
    40   43   42 1
    41   44   22 1
    42   45   44 ar
    43   46   45 1
    44   47   45 ar
    45   48   47 1
    46   49   47 ar
    47   50   49 1
    48   51   49 ar
    49   52   51 1
    50   53   44 ar
    51   54   53 1
    52   55   56 ar
    53   56   57 1
    54   58   56 ar
    55   59   58 1
    56   60   58 ar
    57   61   62 1
    58   63   61 ar
    59   64   63 1
    60   65   63 ar
    61   66   65 1
    62   67   65 ar
    63   68   67 1
    64   69   55 ar
    65   70   60 ar
    66   71   55 1
    67   72   71 ar
    68   73   72 1
    69   74   72 ar
    70   75   74 1
    71   76   74 ar
    72   77   78 1
    73   79   77 ar
    74   80   79 1
    75   81   79 ar
    76   82   81 1
    77   83   81 ar
    78   84   83 1
    79   85   71 ar
    80   86   76 ar
    81   87   60 1
    82   88   87 ar
    83   89   88 1
    84   90   88 ar
    85   91   90 1
    86   92   90 ar
    87   93   92 1
    88   94   92 ar
    89   95   94 1
    90   96   87 ar
    91   97   96 1
    92   98   76 1
    93   99   98 ar
    94  100   99 1
    95  101   99 ar
    96  102  101 1
    97  103  101 ar
    98  104  103 1
    99  105  103 ar
   100  106  105 1
   101  107   98 ar
   102  108  107 1
   103  109  110 ar
   104  110  111 1
   105  112  110 ar
   106  113  112 1
   107  114  112 ar
   108  115  116 1
   109  117  115 ar
   110  118  117 1
   111  119  117 ar
   112  120  119 1
   113  121  119 ar
   114  122  121 1
   115  123  109 ar
   116  124  114 ar
   117  125  109 1
   118  126  125 ar
   119  127  126 1
   120  128  126 ar
   121  129  128 1
   122  130  128 ar
   123  131  132 1
   124  133  131 ar
   125  134  133 1
   126  135  133 ar
   127  136  135 1
   128  137  135 ar
   129  138  137 1
   130  139  125 ar
   131  140  130 ar
   132  141  114 1
   133  142  141 ar
   134  143  142 1
   135  144  142 ar
   136  145  144 1
   137  146  144 ar
   138  147  146 1
   139  148  146 ar
   140  149  148 1
   141  150  141 ar
   142  151  150 1
   143  152  130 1
   144  153  152 ar
   145  154  153 1
   146  155  153 ar
   147  156  155 1
   148  157  155 ar
   149  158  157 1
   150  159  157 ar
   151  160  159 1
   152  161  152 ar
   153  162  161 1
   154  163  164 ar
   155  164  165 1
   156  166  164 ar
   157  167  166 1
   158  168  166 ar
   159  169  170 1
   160  171  169 ar
   161  172  171 1
   162  173  171 ar
   163  174  173 1
   164  175  173 ar
   165  176  175 1
   166  177  163 ar
   167  178  168 ar
   168  179  163 1
   169  180  179 ar
   170  181  180 1
   171  182  180 ar
   172  183  182 1
   173  184  182 ar
   174  185  186 1
   175  187  185 ar
   176  188  187 1
   177  189  187 ar
   178  190  189 1
   179  191  189 ar
   180  192  191 1
   181  193  179 ar
   182  194  184 ar
   183  195  168 1
   184  196  195 ar
   185  197  196 1
   186  198  196 ar
   187  199  198 1
   188  200  198 ar
   189  201  200 1
   190  202  200 ar
   191  203  202 1
   192  204  195 ar
   193  205  204 1
   194  206  184 1
   195  207  206 ar
   196  208  207 1
   197  209  207 ar
   198  210  209 1
   199  211  209 ar
   200  212  211 1
   201  213  211 ar
   202  214  213 1
   203  215  206 ar
   204  216  215 1
   205    7   16 ar
   206   13   15 ar
   207   15   16 ar
   208   23   32 ar
   209   29   31 ar
   210   31   32 ar
   211   40   42 ar
   212   51   53 ar
   213   61   70 ar
   214   67   69 ar
   215   69   70 ar
   216   77   86 ar
   217   83   85 ar
   218   85   86 ar
   219   94   96 ar
   220  105  107 ar
   221  115  124 ar
   222  121  123 ar
   223  123  124 ar
   224  131  140 ar
   225  137  139 ar
   226  139  140 ar
   227  148  150 ar
   228  159  161 ar
   229  169  178 ar
   230  175  177 ar
   231  177  178 ar
   232  185  194 ar
   233  191  193 ar
   234  193  194 ar
   235  202  204 ar
   236  213  215 ar
@<TRIPOS>SUBSTRUCTURE
     1 RES1 1
     2 RES2 55
     3 RES3 109
     4 RES4 163

@<TRIPOS>CRYSIN
  10.1208   25.0267   33.4392  90.0000  92.0165  90.0000 231 1

