# MOL2 file generated by ConQuest
# Please check atom types

@<TRIPOS>MOLECULE
MEHXHE
    45    50     1
SMALL
NO_CHARGES
****
Generated from CSD

@<TRIPOS>ATOM
      1 C1        -0.2169    9.8859   11.3885 C.ar      1 RES1    0.0000
      2 C2         0.2360    9.6131   12.6704 C.ar      1 RES1    0.0000
      3 C3         1.6221    9.6180   12.9800 C.ar      1 RES1    0.0000
      4 C4         2.5053   10.0281   12.0407 C.ar      1 RES1    0.0000
      5 C5         3.0419   10.8922    9.7759 C.ar      1 RES1    0.0000
      6 C6         2.5994   11.2466    8.5559 C.ar      1 RES1    0.0000
      7 C7         0.9137   11.3398    6.7772 C.ar      1 RES1    0.0000
      8 C8        -0.3331   11.0849    6.3793 C.ar      1 RES1    0.0000
      9 C9        -2.5204    9.9725    6.6718 C.ar      1 RES1    0.0000
     10 C10       -3.3042    9.1149    7.3332 C.ar      1 RES1    0.0000
     11 C11       -3.5707    7.2821    8.9393 C.ar      1 RES1    0.0000
     12 C12       -3.0562    6.4148    9.8075 C.ar      1 RES1    0.0000
     13 C13       -1.1059    5.3856   10.8813 C.ar      1 RES1    0.0000
     14 C14        0.2258    5.2893   11.0604 C.ar      1 RES1    0.0000
     15 C15        1.0722    6.2106   10.4518 C.ar      1 RES1    0.0000
     16 C16        0.5472    7.2462    9.7166 C.ar      1 RES1    0.0000
     17 C17       -0.8311    7.4210    9.5493 C.ar      1 RES1    0.0000
     18 C18       -1.6749    6.4164   10.1000 C.ar      1 RES1    0.0000
     19 C19       -1.4178    8.4795    8.7548 C.ar      1 RES1    0.0000
     20 C20       -2.7644    8.2965    8.3437 C.ar      1 RES1    0.0000
     21 C21       -0.7063    9.6295    8.2976 C.ar      1 RES1    0.0000
     22 C22       -1.1898   10.2469    7.0842 C.ar      1 RES1    0.0000
     23 C23        0.4481   10.2077    8.9208 C.ar      1 RES1    0.0000
     24 C24        1.3323   10.9330    8.0882 C.ar      1 RES1    0.0000
     25 C25        0.7516   10.1097   10.3569 C.ar      1 RES1    0.0000
     26 C26        2.1083   10.3156   10.7456 C.ar      1 RES1    0.0000
     27 C27       -1.6926   10.0787   11.2014 C.3       1 RES1    0.0000
     28 H1        -0.4953    9.3763   13.3200 H         1 RES1    0.0000
     29 H2         1.7784    9.3436   13.8601 H         1 RES1    0.0000
     30 H3         3.6109   10.2584   12.1474 H         1 RES1    0.0000
     31 H4         3.8449   11.0425   10.0657 H         1 RES1    0.0000
     32 H5         3.2163   11.7449    7.8391 H         1 RES1    0.0000
     33 H6         1.6004   11.8429    6.3240 H         1 RES1    0.0000
     34 H7        -0.7059   11.4998    5.5599 H         1 RES1    0.0000
     35 H8        -2.8928   10.4707    5.9288 H         1 RES1    0.0000
     36 H9        -4.3731    8.9679    7.0618 H         1 RES1    0.0000
     37 H10       -4.5580    7.2364    8.7219 H         1 RES1    0.0000
     38 H11       -3.6517    5.6682   10.2897 H         1 RES1    0.0000
     39 H12       -1.7186    4.6881   11.2383 H         1 RES1    0.0000
     40 H13        0.6291    4.5085   11.6467 H         1 RES1    0.0000
     41 H14        2.1109    6.0930   10.5005 H         1 RES1    0.0000
     42 H15        1.1899    7.8735    9.2752 H         1 RES1    0.0000
     43 H16       -1.8962   10.7158   10.4610 H         1 RES1    0.0000
     44 H17       -2.1662    9.2456   11.0538 H         1 RES1    0.0000
     45 H18       -2.0802   10.5034   12.0420 H         1 RES1    0.0000
@<TRIPOS>BOND
     1    1    2 ar
     2    2    3 ar
     3    3    4 ar
     4    4   26 ar
     5    5    6 ar
     6    6   24 ar
     7    7    8 ar
     8    8   22 ar
     9    9   10 ar
    10   10   20 ar
    11   11   12 ar
    12   12   18 ar
    13   13   14 ar
    14   14   15 ar
    15   15   16 ar
    16   16   17 ar
    17   17   18 ar
    18   18   13 ar
    19   19   17 ar
    20   20   11 ar
    21   21   19 ar
    22   22    9 ar
    23   23   21 ar
    24   24    7 ar
    25   25    1 ar
    26   26    5 ar
    27   27    1 1
    28   28    2 1
    29   29    3 1
    30   30    4 1
    31   31    5 1
    32   32    6 1
    33   33    7 1
    34   34    8 1
    35   35    9 1
    36   36   10 1
    37   37   11 1
    38   38   12 1
    39   39   13 1
    40   40   14 1
    41   41   15 1
    42   42   16 1
    43   43   27 1
    44   44   27 1
    45   45   27 1
    46   19   20 ar
    47   21   22 ar
    48   23   24 ar
    49   23   25 ar
    50   25   26 ar
@<TRIPOS>SUBSTRUCTURE
     1 RES1 1

@<TRIPOS>CRYSIN
   8.3750   16.3350   13.2640  90.0000  96.6400  90.0000  14 1

