# MOL2 file generated by ConQuest
# Please check atom types

@<TRIPOS>MOLECULE
MEPPHA
    40    43     1
SMALL
NO_CHARGES
****
Generated from CSD

@<TRIPOS>ATOM
      1 C1         4.7181    3.2067    2.4265 C.ar      1 RES1    0.0000
      2 C2         3.8889    2.1956    2.8386 C.ar      1 RES1    0.0000
      3 C3         2.5257    2.1493    2.4761 C.ar      1 RES1    0.0000
      4 C4         1.9714    3.1076    1.6761 C.ar      1 RES1    0.0000
      5 C5         2.3175    5.1116    0.2420 C.ar      1 RES1    0.0000
      6 C6         3.1381    6.0699   -0.2843 C.ar      1 RES1    0.0000
      7 C7         4.4944    6.1216    0.0877 C.ar      1 RES1    0.0000
      8 C8         5.0039    5.2096    0.9733 C.ar      1 RES1    0.0000
      9 C9         4.1850    4.1909    1.5313 C.ar      1 RES1    0.0000
     10 C10        2.8110    4.1392    1.1488 C.ar      1 RES1    0.0000
     11 C11        0.4992    3.0613    1.3506 C.3       1 RES1    0.0000
     12 H1         4.2217    1.4644    3.4030 H         1 RES1    0.0000
     13 H2         1.9409    1.4321    2.8534 H         1 RES1    0.0000
     14 H3         1.3149    5.0610   -0.0423 H         1 RES1    0.0000
     15 H4         2.7424    6.7408   -0.9300 H         1 RES1    0.0000
     16 H5         5.0819    6.8054   -0.2748 H         1 RES1    0.0000
     17 H6         5.9957    5.2979    1.2048 H         1 RES1    0.0000
     18 H7         0.3290    2.8643    0.3593 H         1 RES1    0.0000
     19 H8         0.0089    3.9519    1.5218 H         1 RES1    0.0000
     20 H9         0.0602    2.4013    1.8812 H         1 RES1    0.0000
     21 C1B        6.1498    3.2067    2.8577 C.ar      1 RES1    0.0000
     22 C2B        6.9790    2.1956    2.4455 C.ar      1 RES1    0.0000
     23 C9B        6.6829    4.1909    3.7528 C.ar      1 RES1    0.0000
     24 C3B        8.3422    2.1493    2.8080 C.ar      1 RES1    0.0000
     25 H1B        6.6462    1.4644    1.8812 H         1 RES1    0.0000
     26 C8B        5.8640    5.2096    4.3108 C.ar      1 RES1    0.0000
     27 C10B       8.0569    4.1392    4.1354 C.ar      1 RES1    0.0000
     28 C4B        8.8965    3.1076    3.6080 C.ar      1 RES1    0.0000
     29 H2B        8.9271    1.4321    2.4307 H         1 RES1    0.0000
     30 C7B        6.3735    6.1216    5.1964 C.ar      1 RES1    0.0000
     31 H6B        4.8722    5.2979    4.0793 H         1 RES1    0.0000
     32 C5B        8.5504    5.1116    5.0421 C.ar      1 RES1    0.0000
     33 C11B      10.3688    3.0613    3.9335 C.3       1 RES1    0.0000
     34 C6B        7.7298    6.0699    5.5684 C.ar      1 RES1    0.0000
     35 H5B        5.7860    6.8054    5.5589 H         1 RES1    0.0000
     36 H3B        9.5530    5.0610    5.3264 H         1 RES1    0.0000
     37 H7B       10.5389    2.8643    4.9248 H         1 RES1    0.0000
     38 H8B       10.8591    3.9519    3.7623 H         1 RES1    0.0000
     39 H9B       10.8077    2.4013    3.4030 H         1 RES1    0.0000
     40 H4B        8.1255    6.7408    6.2141 H         1 RES1    0.0000
@<TRIPOS>BOND
     1    1    2 ar
     2    2    3 ar
     3    3    4 ar
     4    4   10 ar
     5    5    6 ar
     6    6    7 ar
     7    7    8 ar
     8    8    9 ar
     9    9    1 ar
    10   10    5 ar
    11   11    4 1
    12   12    2 1
    13   13    3 1
    14   14    5 1
    15   15    6 1
    16   16    7 1
    17   17    8 1
    18   18   11 1
    19   19   11 1
    20   20   11 1
    21   21    1 1
    22   22   21 ar
    23   23   21 ar
    24   24   22 ar
    25   25   22 1
    26   26   23 ar
    27   27   23 ar
    28   28   24 ar
    29   29   24 1
    30   30   26 ar
    31   31   26 1
    32   32   27 ar
    33   33   28 1
    34   34   30 ar
    35   35   30 1
    36   36   32 1
    37   37   33 1
    38   38   33 1
    39   39   33 1
    40   40   34 1
    41    9   10 ar
    42   27   28 ar
    43   32   34 ar
@<TRIPOS>SUBSTRUCTURE
     1 RES1 1

@<TRIPOS>CRYSIN
  13.2250   10.7680   11.5720  90.0000 114.0400  90.0000  15 1

