# MOL2 file generated by ConQuest
# Please check atom types

@<TRIPOS>MOLECULE
MEPPHB
    38    41     1
SMALL
NO_CHARGES
****
Generated from CSD

@<TRIPOS>ATOM
      1 C1         0.7896    0.2250    5.6918 C.ar      1 RES1    0.0000
      2 C2         2.0666    0.2292    6.2062 C.ar      1 RES1    0.0000
      3 C3         3.0232    1.1990    5.7629 C.ar      1 RES1    0.0000
      4 C4         2.7143    2.1281    4.8242 C.ar      1 RES1    0.0000
      5 C5         1.0379    3.0688    3.2501 C.ar      1 RES1    0.0000
      6 C6        -0.2018    3.0190    2.6788 C.ar      1 RES1    0.0000
      7 C7        -1.1433    2.1397    3.1410 C.ar      1 RES1    0.0000
      8 C8        -0.8419    1.2397    4.1296 C.ar      1 RES1    0.0000
      9 C9         0.4359    1.2039    4.7128 C.ar      1 RES1    0.0000
     10 C10        1.4032    2.1621    4.2552 C.ar      1 RES1    0.0000
     11 C11        3.7679    3.1054    4.3524 C.3       1 RES1    0.0000
     12 H1         2.2501   -0.4733    6.8984 H         1 RES1    0.0000
     13 H2         4.0270    0.9798    6.2110 H         1 RES1    0.0000
     14 H3         1.7104    3.6035    2.8684 H         1 RES1    0.0000
     15 H4        -0.3487    3.6118    1.9202 H         1 RES1    0.0000
     16 H5        -2.1090    2.1505    2.8684 H         1 RES1    0.0000
     17 H6        -1.4696    0.7141    4.3856 H         1 RES1    0.0000
     18 H7         4.0021    2.8314    4.7649 H         1 RES1    0.0000
     19 H8         3.3877    3.9025    4.5516 H         1 RES1    0.0000
     20 C1F       -0.2250   -0.7896    6.1612 C.ar      1 RES1    0.0000
     21 C2F       -0.2292   -2.0666    5.6468 C.ar      1 RES1    0.0000
     22 C9F       -1.2039   -0.4359    7.1402 C.ar      1 RES1    0.0000
     23 C3F       -1.1990   -3.0232    6.0901 C.ar      1 RES1    0.0000
     24 H1F        0.4733   -2.2501    4.9546 H         1 RES1    0.0000
     25 C8F       -1.2397    0.8419    7.7234 C.ar      1 RES1    0.0000
     26 C10F      -2.1621   -1.4032    7.5978 C.ar      1 RES1    0.0000
     27 C4F       -2.1281   -2.7143    7.0288 C.ar      1 RES1    0.0000
     28 H2F       -0.9798   -4.0270    5.6420 H         1 RES1    0.0000
     29 C7F       -2.1397    1.1433    8.7120 C.ar      1 RES1    0.0000
     30 H6F       -0.7141    1.4696    7.4674 H         1 RES1    0.0000
     31 C5F       -3.0688   -1.0379    8.6029 C.ar      1 RES1    0.0000
     32 C11F      -3.1054   -3.7679    7.5006 C.3       1 RES1    0.0000
     33 C6F       -3.0190    0.2018    9.1742 C.ar      1 RES1    0.0000
     34 H5F       -2.1505    2.1090    8.9846 H         1 RES1    0.0000
     35 H3F       -3.6035   -1.7104    8.9846 H         1 RES1    0.0000
     36 H7F       -2.8314   -4.0021    7.0881 H         1 RES1    0.0000
     37 H8F       -3.9025   -3.3877    7.3014 H         1 RES1    0.0000
     38 H4F       -3.6118    0.3487    9.9328 H         1 RES1    0.0000
@<TRIPOS>BOND
     1    1    2 ar
     2    2    3 ar
     3    3    4 ar
     4    4   10 ar
     5    5    6 ar
     6    6    7 ar
     7    7    8 ar
     8    8    9 ar
     9    9    1 ar
    10   10    5 ar
    11   11    4 1
    12   12    2 1
    13   13    3 1
    14   14    5 1
    15   15    6 1
    16   16    7 1
    17   17    8 1
    18   18   11 1
    19   19   11 1
    20   20    1 1
    21   21   20 ar
    22   22   20 ar
    23   23   21 ar
    24   24   21 1
    25   25   22 ar
    26   26   22 ar
    27   27   23 ar
    28   28   23 1
    29   29   25 ar
    30   30   25 1
    31   31   26 ar
    32   32   27 1
    33   33   29 ar
    34   34   29 1
    35   35   31 1
    36   36   32 1
    37   37   32 1
    38   38   33 1
    39    9   10 ar
    40   26   27 ar
    41   31   33 ar
@<TRIPOS>SUBSTRUCTURE
     1 RES1 1

@<TRIPOS>CRYSIN
   8.3031    8.3031   23.7060  90.0000  90.0000  90.0000  92 1

