# MOL2 file generated by ConQuest
# Please check atom types

@<TRIPOS>MOLECULE
MEWCEZ
    47    51     1
SMALL
NO_CHARGES
****
Generated from CSD

@<TRIPOS>ATOM
      1 C1         7.5112    8.3316    1.3030 C.ar      1 RES1    0.0000
      2 H1         7.6423    8.9731    0.6424 H         1 RES1    0.0000
      3 C2         8.3235    8.3246    2.4229 C.ar      1 RES1    0.0000
      4 H2         8.9992    8.9577    2.5106 H         1 RES1    0.0000
      5 C3         8.1317    7.3825    3.4058 C.ar      1 RES1    0.0000
      6 H3         8.6847    7.3733    4.1541 H         1 RES1    0.0000
      7 C4         7.1287    6.4594    3.2841 C.ar      1 RES1    0.0000
      8 H4         6.9972    5.8275    3.9533 H         1 RES1    0.0000
      9 C5         6.3099    6.4648    2.1667 C.ar      1 RES1    0.0000
     10 H5         5.6246    5.8401    2.0940 H         1 RES1    0.0000
     11 C6         6.5038    7.3923    1.1558 C.ar      1 RES1    0.0000
     12 C7         4.5470    9.7697    1.9706 C.ar      1 RES1    0.0000
     13 H6         5.1182   10.2430    1.4097 H         1 RES1    0.0000
     14 C8         4.2477   10.2731    3.2268 C.ar      1 RES1    0.0000
     15 H7         4.6172   11.0805    3.5027 H         1 RES1    0.0000
     16 C9         3.4058    9.5827    4.0664 C.ar      1 RES1    0.0000
     17 H8         3.2192    9.9129    4.9154 H         1 RES1    0.0000
     18 C10        2.8433    8.4050    3.6459 C.ar      1 RES1    0.0000
     19 H9         2.2658    7.9416    4.2090 H         1 RES1    0.0000
     20 C11        3.1289    7.9011    2.3882 C.ar      1 RES1    0.0000
     21 H10        2.7303    7.1086    2.1090 H         1 RES1    0.0000
     22 C12        4.0038    8.5661    1.5401 C.ar      1 RES1    0.0000
     23 C13        5.5702    7.4337   -0.0182 C.ar      1 RES1    0.0000
     24 C14        4.3500    8.0087    0.1934 C.ar      1 RES1    0.0000
     25 C15        3.3705    8.1093   -0.8651 C.ar      1 RES1    0.0000
     26 C16        2.0829    8.6398   -0.6375 C.ar      1 RES1    0.0000
     27 H11        1.8556    8.9371    0.2138 H         1 RES1    0.0000
     28 C17        1.1593    8.7251   -1.6488 C.ar      1 RES1    0.0000
     29 H12        0.3137    9.0745   -1.4806 H         1 RES1    0.0000
     30 C18        1.4926    8.2882   -2.9223 C.ar      1 RES1    0.0000
     31 H13        0.8652    8.3371   -3.6076 H         1 RES1    0.0000
     32 C19        2.7349    7.7869   -3.1752 C.ar      1 RES1    0.0000
     33 H14        2.9423    7.5077   -4.0382 H         1 RES1    0.0000
     34 C20        3.7178    7.6790   -2.1621 C.ar      1 RES1    0.0000
     35 C21        5.0343    7.1268   -2.4118 C.ar      1 RES1    0.0000
     36 C22        5.4166    6.7617   -3.7189 C.ar      1 RES1    0.0000
     37 H15        4.8272    6.9040   -4.4238 H         1 RES1    0.0000
     38 C23        6.6306    6.2067   -3.9650 C.ar      1 RES1    0.0000
     39 H16        6.8850    6.0088   -4.8374 H         1 RES1    0.0000
     40 C24        7.4895    5.9363   -2.9138 C.ar      1 RES1    0.0000
     41 H17        8.3044    5.5270   -3.0961 H         1 RES1    0.0000
     42 C25        7.1822    6.2499   -1.6065 C.ar      1 RES1    0.0000
     43 C26        5.9493    6.9305   -1.3337 C.ar      1 RES1    0.0000
     44 C27        8.1596    5.7554   -0.5716 C.3       1 RES1    0.0000
     45 H18        7.6897    5.2508    0.0969 H         1 RES1    0.0000
     46 H19        8.5962    6.5037   -0.1589 H         1 RES1    0.0000
     47 H20        8.8150    5.1940   -0.9931 H         1 RES1    0.0000
@<TRIPOS>BOND
     1    1    2 1
     2    3    1 ar
     3    4    3 1
     4    5    3 ar
     5    6    5 1
     6    7    5 ar
     7    8    7 1
     8    9    7 ar
     9   10    9 1
    10   11    1 ar
    11   12   13 1
    12   14   12 ar
    13   15   14 1
    14   16   14 ar
    15   17   16 1
    16   18   16 ar
    17   19   18 1
    18   20   18 ar
    19   21   20 1
    20   22   12 ar
    21   23   11 1
    22   24   22 1
    23   25   24 ar
    24   26   25 ar
    25   27   26 1
    26   28   26 ar
    27   29   28 1
    28   30   28 ar
    29   31   30 1
    30   32   30 ar
    31   33   32 1
    32   34   25 ar
    33   35   34 ar
    34   36   35 ar
    35   37   36 1
    36   38   36 ar
    37   39   38 1
    38   40   38 ar
    39   41   40 1
    40   42   40 ar
    41   43   23 ar
    42   44   42 1
    43   45   44 1
    44   46   44 1
    45   47   44 1
    46    9   11 ar
    47   20   22 ar
    48   23   24 ar
    49   32   34 ar
    50   35   43 ar
    51   42   43 ar
@<TRIPOS>SUBSTRUCTURE
     1 RES1 1

@<TRIPOS>CRYSIN
   9.1078   10.2389   10.9804  68.3080  76.7945  83.6184   2 1

