# MOL2 file generated by ConQuest
# Please check atom types

@<TRIPOS>MOLECULE
MHXHEL10
    44    49     1
SMALL
NO_CHARGES
****
Generated from CSD

@<TRIPOS>ATOM
      1 C1         3.7335    3.7982    3.2378 C.ar      1 RES1    0.0000
      2 C2         8.0078    5.2609    0.8870 C.ar      1 RES1    0.0000
      3 C3         7.1684    3.1273   -0.0178 C.ar      1 RES1    0.0000
      4 C4         6.6135    1.9343    0.1918 C.ar      1 RES1    0.0000
      5 C5         5.8847    0.1541    1.7291 C.ar      1 RES1    0.0000
      6 C6         5.6985   -0.3029    2.9888 C.ar      1 RES1    0.0000
      7 C7         5.8671    0.5580    4.1178 C.ar      1 RES1    0.0000
      8 C8         6.1657    1.8905    3.8858 C.ar      1 RES1    0.0000
      9 C9         6.3220    2.4006    2.5704 C.ar      1 RES1    0.0000
     10 C10        6.2394    1.5065    1.4971 C.ar      1 RES1    0.0000
     11 C11        6.6872    3.7942    2.3230 C.ar      1 RES1    0.0000
     12 C12        2.4392    3.2601    3.2448 C.ar      1 RES1    0.0000
     13 C13        7.2843    4.0719    1.0679 C.ar      1 RES1    0.0000
     14 C14        6.5959    4.8357    3.2927 C.ar      1 RES1    0.0000
     15 C15        7.5179    5.9238    3.1504 C.ar      1 RES1    0.0000
     16 C16        5.6494    4.9261    4.3862 C.ar      1 RES1    0.0000
     17 C17        5.9778    5.7763    5.5051 C.ar      1 RES1    0.0000
     18 C18        4.3341    4.3163    4.3939 C.ar      1 RES1    0.0000
     19 C19        3.5543    4.3668    5.6033 C.ar      1 RES1    0.0000
     20 C20        1.8316    2.7168    1.9990 C.3       1 RES1    0.0000
     21 C21        1.7210    3.2469    4.4480 C.ar      1 RES1    0.0000
     22 C22        2.2777    3.7995    5.5801 C.ar      1 RES1    0.0000
     23 C23        4.0390    5.0616    6.7153 C.ar      1 RES1    0.0000
     24 C24        5.1629    5.7710    6.6829 C.ar      1 RES1    0.0000
     25 C25        7.0543    6.6757    5.4270 C.ar      1 RES1    0.0000
     26 C26        7.7339    6.8006    4.2400 C.ar      1 RES1    0.0000
     27 C27        8.1922    6.0925    1.9425 C.ar      1 RES1    0.0000
     28 H1         4.1795    3.7729    2.3199 H         1 RES1    0.0000
     29 H2         8.7805    5.4469    0.0773 H         1 RES1    0.0000
     30 H3         7.5512    3.4541   -0.9280 H         1 RES1    0.0000
     31 H4         6.4976    1.1957   -0.5413 H         1 RES1    0.0000
     32 H5         5.7951   -0.3985    0.6960 H         1 RES1    0.0000
     33 H6         5.3737   -1.2754    3.3252 H         1 RES1    0.0000
     34 H7         5.6546    0.0000    5.1038 H         1 RES1    0.0000
     35 H8         2.5639    2.8164    1.1600 H         1 RES1    0.0000
     36 H9         1.5278    1.7935    2.1343 H         1 RES1    0.0000
     37 H10        1.0185    3.2947    1.7322 H         1 RES1    0.0000
     38 H11        0.8078    2.7899    4.6398 H         1 RES1    0.0000
     39 H12        1.7210    3.6667    6.5731 H         1 RES1    0.0000
     40 H13        3.4771    5.1014    7.6557 H         1 RES1    0.0000
     41 H14        5.5493    6.4565    7.5010 H         1 RES1    0.0000
     42 H15        7.4810    7.3333    6.1864 H         1 RES1    0.0000
     43 H16        8.6049    7.4396    4.1758 H         1 RES1    0.0000
     44 H17        8.7805    6.9082    1.8559 H         1 RES1    0.0000
@<TRIPOS>BOND
     1    1   12 ar
     2    2   13 ar
     3    3    4 ar
     4    4   10 ar
     5    5    6 ar
     6    6    7 ar
     7    7    8 ar
     8    8    9 ar
     9    9   10 ar
    10   10    5 ar
    11   11    9 ar
    12   12   20 1
    13   13    3 ar
    14   14   11 ar
    15   15   14 ar
    16   16   14 ar
    17   17   16 ar
    18   18    1 ar
    19   19   18 ar
    20   20   35 1
    21   21   12 ar
    22   22   19 ar
    23   23   19 ar
    24   24   17 ar
    25   25   17 ar
    26   26   15 ar
    27   27    2 ar
    28   28    1 1
    29   29    2 1
    30   30    3 1
    31   31    4 1
    32   32    5 1
    33   33    6 1
    34   34    7 1
    35   36   20 1
    36   37   20 1
    37   38   21 1
    38   39   22 1
    39   40   23 1
    40   41   24 1
    41   42   25 1
    42   43   26 1
    43   44   27 1
    44   11   13 ar
    45   15   27 ar
    46   16   18 ar
    47   21   22 ar
    48   23   24 ar
    49   25   26 ar
@<TRIPOS>SUBSTRUCTURE
     1 RES1 1

@<TRIPOS>CRYSIN
  17.5610   13.2850    7.7330  90.0000  90.0000  90.0000  19 1

