# MOL2 file generated by ConQuest
# Please check atom types

@<TRIPOS>MOLECULE
MIDTUR
   100   112     2
SMALL
NO_CHARGES
****
Generated from CSD

@<TRIPOS>ATOM
      1 C1         5.7070    3.7658    7.8250 C.ar      1 RES1    0.0000
      2 C2         5.0557    3.4285    8.9467 C.ar      1 RES1    0.0000
      3 H1         4.9163    2.5082    9.1353 H         1 RES1    0.0000
      4 C3         4.5731    4.3911    9.8627 C.ar      1 RES1    0.0000
      5 H2         4.1304    4.1058   10.6538 H         1 RES1    0.0000
      6 C4         4.7317    5.7128    9.6227 C.ar      1 RES1    0.0000
      7 H3         4.3902    6.3559   10.2350 H         1 RES1    0.0000
      8 C5         5.4104    6.1306    8.4520 C.ar      1 RES1    0.0000
      9 C6         5.6112    7.4442    8.1483 C.ar      1 RES1    0.0000
     10 H4         5.2895    8.1036    8.7508 H         1 RES1    0.0000
     11 C7         6.2602    7.8524    7.0143 C.ar      1 RES1    0.0000
     12 H5         6.3582    8.7768    6.8258 H         1 RES1    0.0000
     13 C8         6.7753    6.8816    6.1278 C.ar      1 RES1    0.0000
     14 H6         7.2226    7.1588    5.3367 H         1 RES1    0.0000
     15 C9         6.6420    5.5626    6.3923 C.ar      1 RES1    0.0000
     16 C10        5.9224    5.1517    7.5311 C.ar      1 RES1    0.0000
     17 C11        6.1043    2.6584    6.8307 C.3       1 RES1    0.0000
     18 C12        4.8287    1.8638    6.4045 C.3       1 RES1    0.0000
     19 H7         4.0205    2.3253    6.7449 H         1 RES1    0.0000
     20 H8         4.7694    1.8310    5.4175 H         1 RES1    0.0000
     21 C13        4.8779    0.5311    6.9286 C.2       1 RES1    0.0000
     22 C14        3.8308   -0.3454    6.8356 C.2       1 RES1    0.0000
     23 H9         3.0408   -0.0082    6.4290 H         1 RES1    0.0000
     24 C15        3.7809   -1.6999    7.2691 C.2       1 RES1    0.0000
     25 H10        2.9506   -2.1450    7.1417 H         1 RES1    0.0000
     26 C16        4.7758   -2.4427    7.8446 C.2       1 RES1    0.0000
     27 H11        4.5517   -3.3493    8.0209 H         1 RES1    0.0000
     28 C17        6.0215   -2.0836    8.1973 C.2       1 RES1    0.0000
     29 H12        6.5465   -2.7841    8.5646 H         1 RES1    0.0000
     30 C18        6.6679   -0.8602    8.1116 C.2       1 RES1    0.0000
     31 H13        7.5492   -0.8206    8.4642 H         1 RES1    0.0000
     32 C19        6.1530    0.3386    7.5581 C.2       1 RES1    0.0000
     33 C20        6.8810    1.5279    7.5360 C.2       1 RES1    0.0000
     34 H14        7.7471    1.6289    7.9107 H         1 RES1    0.0000
     35 C21        7.1356    4.5536    5.5204 C.2       1 RES1    0.0000
     36 C22        6.8371    3.1759    5.6747 C.2       1 RES1    0.0000
     37 C23        7.4710    2.4823    4.6117 C.2       1 RES1    0.0000
     38 C24        7.3728    1.1237    4.3717 C.2       1 RES1    0.0000
     39 H15        6.8553    0.6226    4.9889 H         1 RES1    0.0000
     40 C25        7.9512    0.4055    3.3161 C.2       1 RES1    0.0000
     41 H16        7.7642   -0.5257    3.3137 H         1 RES1    0.0000
     42 C26        8.7254    0.8302    2.3193 C.2       1 RES1    0.0000
     43 H17        9.0476    0.1434    1.7462 H         1 RES1    0.0000
     44 C27        9.1393    2.1041    1.9789 C.2       1 RES1    0.0000
     45 H18        9.6416    2.1778    1.1756 H         1 RES1    0.0000
     46 C28        8.9162    3.2729    2.6549 C.2       1 RES1    0.0000
     47 H19        9.3411    4.0429    2.2973 H         1 RES1    0.0000
     48 C29        8.1466    3.4804    3.7986 C.2       1 RES1    0.0000
     49 C30        7.9303    4.6997    4.3644 C.2       1 RES1    0.0000
     50 H20        8.2613    5.5258    4.0313 H         1 RES1    0.0000
     51 C31        6.7760    5.9613    0.0612 C.ar      2 RES2    0.0000
     52 C32        5.9731    5.2513   -0.7396 C.ar      2 RES2    0.0000
     53 H21        5.0498    5.4725   -0.7715 H         2 RES2    0.0000
     54 C33        6.4338    4.2068   -1.5234 C.ar      2 RES2    0.0000
     55 H22        5.8244    3.7112   -2.0573 H         2 RES2    0.0000
     56 C34        7.7647    3.8832   -1.5332 C.ar      2 RES2    0.0000
     57 H23        8.0919    3.1855   -2.0891 H         2 RES2    0.0000
     58 C35        8.6492    4.6151   -0.6931 C.ar      2 RES2    0.0000
     59 C36        9.9512    4.3515   -0.7054 C.ar      2 RES2    0.0000
     60 H24       10.2798    3.6729   -1.2834 H         2 RES2    0.0000
     61 C37       10.8215    5.0233    0.0808 C.ar      2 RES2    0.0000
     62 H25       11.7435    4.7926    0.0857 H         2 RES2    0.0000
     63 C38       10.3219    6.1129    0.9258 C.ar      2 RES2    0.0000
     64 H26       10.9299    6.6249    1.4450 H         2 RES2    0.0000
     65 C39        9.0254    6.3887    0.9723 C.ar      2 RES2    0.0000
     66 C40        8.1734    5.7101    0.1127 C.ar      2 RES2    0.0000
     67 C41        6.1486    7.1288    0.8988 C.3       2 RES2    0.0000
     68 C42        4.8325    6.6700    1.6042 C.3       2 RES2    0.0000
     69 H27        4.7430    5.6883    1.5185 H         2 RES2    0.0000
     70 H28        4.8886    6.8884    2.5691 H         2 RES2    0.0000
     71 C43        3.6894    7.2912    1.0507 C.2       2 RES2    0.0000
     72 C44        2.4040    7.0468    1.4352 C.2       2 RES2    0.0000
     73 H29        2.3156    6.4051    2.1308 H         2 RES2    0.0000
     74 C45        1.2279    7.5630    0.9944 C.2       2 RES2    0.0000
     75 H30        0.4385    7.2230    1.4009 H         2 RES2    0.0000
     76 C46        1.0471    8.5324    0.0196 C.2       2 RES2    0.0000
     77 H31        0.1426    8.7672   -0.1543 H         2 RES2    0.0000
     78 C47        1.9804    9.2069   -0.7347 C.2       2 RES2    0.0000
     79 H32        1.6236    9.8377   -1.3495 H         2 RES2    0.0000
     80 C48        3.3320    9.1031   -0.7323 C.2       2 RES2    0.0000
     81 H33        3.7940    9.6793   -1.3299 H         2 RES2    0.0000
     82 C49        4.1381    8.2497    0.0416 C.2       2 RES2    0.0000
     83 C50        5.5364    8.2006   -0.0686 C.2       2 RES2    0.0000
     84 H34        6.0465    8.7481   -0.6539 H         2 RES2    0.0000
     85 C51        8.4718    7.4018    1.8148 C.2       2 RES2    0.0000
     86 C52        7.1404    7.6981    1.7830 C.2       2 RES2    0.0000
     87 C53        6.9063    8.7659    2.7700 C.2       2 RES2    0.0000
     88 C54        5.7010    9.3680    3.0075 C.2       2 RES2    0.0000
     89 H35        4.9550    9.0376    2.5202 H         2 RES2    0.0000
     90 C55        5.4458   10.4685    3.9407 C.2       2 RES2    0.0000
     91 H36        4.5592   10.8058    3.9823 H         2 RES2    0.0000
     92 C56        6.3547   11.0406    4.7342 C.2       2 RES2    0.0000
     93 H37        5.9898   11.7356    5.2681 H         2 RES2    0.0000
     94 C57        7.7315   10.8440    4.9571 C.2       2 RES2    0.0000
     95 H38        8.1318   11.4229    5.5963 H         2 RES2    0.0000
     96 C58        8.5437    9.9497    4.3913 C.2       2 RES2    0.0000
     97 H39        9.4396    9.9538    4.7048 H         2 RES2    0.0000
     98 C59        8.2492    8.9789    3.3651 C.2       2 RES2    0.0000
     99 C60        9.1211    8.1665    2.7871 C.2       2 RES2    0.0000
    100 H40       10.0454    8.1105    3.0002 H         2 RES2    0.0000
@<TRIPOS>BOND
     1    1    2 ar
     2    2    3 1
     3    4    2 ar
     4    5    4 1
     5    6    4 ar
     6    7    6 1
     7    8    6 ar
     8    9    8 ar
     9   10    9 1
    10   11    9 ar
    11   12   11 1
    12   13   11 ar
    13   14   13 1
    14   15   13 ar
    15   16    1 ar
    16   17    1 1
    17   18   17 1
    18   19   18 1
    19   20   18 1
    20   21   18 1
    21   22   21 2
    22   23   22 1
    23   24   22 1
    24   25   24 1
    25   26   24 2
    26   27   26 1
    27   28   26 1
    28   29   28 1
    29   30   28 2
    30   31   30 1
    31   32   21 1
    32   33   17 1
    33   34   33 1
    34   35   15 1
    35   36   17 1
    36   37   36 1
    37   38   37 2
    38   39   38 1
    39   40   38 1
    40   41   40 1
    41   42   40 2
    42   43   42 1
    43   44   42 1
    44   45   44 1
    45   46   44 2
    46   47   46 1
    47   48   37 1
    48   49   35 1
    49   50   49 1
    50   51   52 ar
    51   52   53 1
    52   54   52 ar
    53   55   54 1
    54   56   54 ar
    55   57   56 1
    56   58   56 ar
    57   59   58 ar
    58   60   59 1
    59   61   59 ar
    60   62   61 1
    61   63   61 ar
    62   64   63 1
    63   65   63 ar
    64   66   51 ar
    65   67   51 1
    66   68   67 1
    67   69   68 1
    68   70   68 1
    69   71   68 1
    70   72   71 2
    71   73   72 1
    72   74   72 1
    73   75   74 1
    74   76   74 2
    75   77   76 1
    76   78   76 1
    77   79   78 1
    78   80   78 2
    79   81   80 1
    80   82   71 1
    81   83   67 1
    82   84   83 1
    83   85   65 1
    84   86   67 1
    85   87   86 1
    86   88   87 2
    87   89   88 1
    88   90   88 1
    89   91   90 1
    90   92   90 2
    91   93   92 1
    92   94   92 1
    93   95   94 1
    94   96   94 2
    95   97   96 1
    96   98   87 1
    97   99   85 1
    98  100   99 1
    99    8   16 ar
   100   15   16 ar
   101   30   32 1
   102   32   33 2
   103   35   36 2
   104   46   48 1
   105   48   49 2
   106   58   66 ar
   107   65   66 ar
   108   80   82 1
   109   82   83 2
   110   85   86 2
   111   96   98 1
   112   98   99 2
@<TRIPOS>SUBSTRUCTURE
     1 RES1 1
     2 RES2 51

@<TRIPOS>CRYSIN
  22.9230   13.6540   26.1500  90.0000 110.5160  90.0000  15 1

