# MOL2 file generated by ConQuest
# Please check atom types

@<TRIPOS>MOLECULE
MIVCUR
   164   178     2
SMALL
NO_CHARGES
****
Generated from CSD

@<TRIPOS>ATOM
      1 C1         6.9823    3.2139    5.4679 C.ar      1 RES1    0.0000
      2 C2         7.0356    3.1824    6.8641 C.ar      1 RES1    0.0000
      3 C3         7.5386    4.2753    7.6381 C.ar      1 RES1    0.0000
      4 H1         7.8182    5.0671    7.1926 H         1 RES1    0.0000
      5 C4         7.6281    4.2108    8.9861 C.ar      1 RES1    0.0000
      6 H2         7.9573    4.9565    9.4724 H         1 RES1    0.0000
      7 C5         7.2332    3.0419    9.6751 C.ar      1 RES1    0.0000
      8 H3         7.3309    2.9932   10.6182 H         1 RES1    0.0000
      9 C6         6.7185    1.9938    8.9926 C.ar      1 RES1    0.0000
     10 H4         6.4684    1.2115    9.4676 H         1 RES1    0.0000
     11 C7         6.5424    2.0324    7.5741 C.ar      1 RES1    0.0000
     12 C8         5.8407    1.0360    6.8890 C.ar      1 RES1    0.0000
     13 C9         5.6618    1.1212    5.4808 C.ar      1 RES1    0.0000
     14 C10        4.7699    0.2755    4.7539 C.ar      1 RES1    0.0000
     15 C11        4.8522    0.2300    3.3588 C.ar      1 RES1    0.0000
     16 C12        3.9949   -0.6220    2.5877 C.ar      1 RES1    0.0000
     17 H5         3.2779   -1.0755    3.0198 H         1 RES1    0.0000
     18 C13        4.1824   -0.7914    1.2626 C.ar      1 RES1    0.0000
     19 H6         3.6050   -1.3657    0.7758 H         1 RES1    0.0000
     20 C14        5.2287   -0.1258    0.5951 C.ar      1 RES1    0.0000
     21 H7         5.3776   -0.2882   -0.3294 H         1 RES1    0.0000
     22 C15        6.0202    0.7427    1.2609 C.ar      1 RES1    0.0000
     23 H8         6.7096    1.1952    0.7925 H         1 RES1    0.0000
     24 C16        5.8413    0.9960    2.6598 C.ar      1 RES1    0.0000
     25 C17        6.5960    1.9518    3.3461 C.ar      1 RES1    0.0000
     26 C18        6.4284    2.1132    4.7539 C.ar      1 RES1    0.0000
     27 C19        7.3251    4.4935    4.7734 C.ar      1 RES1    0.0000
     28 C20        6.2949    5.2342    4.2153 C.ar      1 RES1    0.0000
     29 H9         5.4065    4.8956    4.2444 H         1 RES1    0.0000
     30 C21        6.5357    6.4541    3.6192 C.ar      1 RES1    0.0000
     31 H10        5.8137    6.9391    3.2418 H         1 RES1    0.0000
     32 C22        7.8075    6.9817    3.5610 C.ar      1 RES1    0.0000
     33 C23        8.8394    6.2451    4.1224 C.ar      1 RES1    0.0000
     34 H11        9.7235    6.5870    4.0916 H         1 RES1    0.0000
     35 C24        8.6067    5.0247    4.7231 C.ar      1 RES1    0.0000
     36 H12        9.3313    4.5436    5.1062 H         1 RES1    0.0000
     37 C25        5.3829   -0.1568    7.6626 C.ar      1 RES1    0.0000
     38 C26        4.2936   -0.1015    8.5091 C.ar      1 RES1    0.0000
     39 H13        3.7924    0.7031    8.5820 H         1 RES1    0.0000
     40 C27        3.9285   -1.2013    9.2487 C.ar      1 RES1    0.0000
     41 H14        3.1608   -1.1486    9.8066 H         1 RES1    0.0000
     42 C28        4.6449   -2.3793    9.2055 C.ar      1 RES1    0.0000
     43 C29        5.7223   -2.4362    8.3559 C.ar      1 RES1    0.0000
     44 H15        6.2238   -3.2408    8.2907 H         1 RES1    0.0000
     45 C30        6.0936   -1.3380    7.5913 C.ar      1 RES1    0.0000
     46 H16        6.8451   -1.4002    7.0136 H         1 RES1    0.0000
     47 C31        3.6531   -0.4493    5.4313 C.ar      1 RES1    0.0000
     48 C32        3.6306   -1.8298    5.5937 C.ar      1 RES1    0.0000
     49 H17        4.3528   -2.3530    5.2709 H         1 RES1    0.0000
     50 C33        2.5685   -2.4463    6.2198 C.ar      1 RES1    0.0000
     51 H18        2.5811   -3.3899    6.3332 H         1 RES1    0.0000
     52 C34        1.4855   -1.7300    6.6877 C.ar      1 RES1    0.0000
     53 C35        1.4851   -0.3632    6.4812 C.ar      1 RES1    0.0000
     54 H19        0.7359    0.1522    6.7605 H         1 RES1    0.0000
     55 C36        2.5554    0.2669    5.8734 C.ar      1 RES1    0.0000
     56 H20        2.5377    1.2095    5.7579 H         1 RES1    0.0000
     57 C37        7.6973    2.6561    2.6259 C.ar      1 RES1    0.0000
     58 C38        7.4745    3.6111    1.6414 C.ar      1 RES1    0.0000
     59 H21        6.5815    3.8546    1.4228 H         1 RES1    0.0000
     60 C39        8.5212    4.2118    0.9780 C.ar      1 RES1    0.0000
     61 H22        8.3382    4.8652    0.3127 H         1 RES1    0.0000
     62 C40        9.8349    3.8820    1.2631 C.ar      1 RES1    0.0000
     63 C41       10.0565    2.9181    2.2232 C.ar      1 RES1    0.0000
     64 H23       10.9477    2.6634    2.4254 H         1 RES1    0.0000
     65 C42        9.0111    2.3124    2.9000 C.ar      1 RES1    0.0000
     66 H24        9.1964    1.6539    3.5593 H         1 RES1    0.0000
     67 C43        8.0624    8.3109    2.8880 C.3       1 RES1    0.0000
     68 H25        7.3272    8.5098    2.2702 H         1 RES1    0.0000
     69 H26        8.9056    8.2683    2.3896 H         1 RES1    0.0000
     70 H27        8.1188    9.0151    3.5665 H         1 RES1    0.0000
     71 C44        4.2372   -3.5502   10.0546 C.3       1 RES1    0.0000
     72 H28        4.0991   -3.2519   10.9787 H         1 RES1    0.0000
     73 H29        4.9411   -4.2300   10.0334 H         1 RES1    0.0000
     74 H30        3.4037   -3.9317    9.7063 H         1 RES1    0.0000
     75 C45        0.3704   -2.4260    7.4275 C.3       1 RES1    0.0000
     76 H31       -0.4461   -1.8862    7.3716 H         1 RES1    0.0000
     77 H32        0.6245   -2.5396    8.3671 H         1 RES1    0.0000
     78 H33        0.2098   -3.3047    7.0231 H         1 RES1    0.0000
     79 C46       10.9809    4.5496    0.5483 C.3       1 RES1    0.0000
     80 H34       11.8132    4.3782    1.0360 H         1 RES1    0.0000
     81 H35       10.8197    5.5156    0.5061 H         1 RES1    0.0000
     82 H36       11.0541    4.1894   -0.3605 H         1 RES1    0.0000
     83 C47        1.0591    3.7812    5.3595 C.ar      2 RES2    0.0000
     84 C48        1.7476    3.7510    6.5753 C.ar      2 RES2    0.0000
     85 C49        3.1444    4.0597    6.6739 C.ar      2 RES2    0.0000
     86 H37        3.6052    4.3792    5.9059 H         2 RES2    0.0000
     87 C50        3.8195    3.9074    7.8321 C.ar      2 RES2    0.0000
     88 H38        4.7379    4.1489    7.8777 H         2 RES2    0.0000
     89 C51        3.1761    3.3919    8.9756 C.ar      2 RES2    0.0000
     90 H39        3.6772    3.2316    9.7660 H         2 RES2    0.0000
     91 C52        1.8507    3.1248    8.9534 C.ar      2 RES2    0.0000
     92 H40        1.4332    2.7659    9.7278 H         2 RES2    0.0000
     93 C53        1.0631    3.3749    7.7796 C.ar      2 RES2    0.0000
     94 C54       -0.3315    3.2949    7.7944 C.ar      2 RES2    0.0000
     95 C55       -1.0639    3.5265    6.5949 C.ar      2 RES2    0.0000
     96 C56        1.7714    4.2342    4.1286 C.ar      2 RES2    0.0000
     97 C57        2.7180    3.4602    3.4743 C.ar      2 RES2    0.0000
     98 H41        2.9403    2.6026    3.8171 H         2 RES2    0.0000
     99 C58        3.3382    3.9196    2.3318 C.ar      2 RES2    0.0000
    100 H42        3.9645    3.3605    1.8883 H         2 RES2    0.0000
    101 C59        3.0683    5.1776    1.8155 C.ar      2 RES2    0.0000
    102 C60        2.1579    5.9621    2.4951 C.ar      2 RES2    0.0000
    103 H43        1.9706    6.8377    2.1771 H         2 RES2    0.0000
    104 C61        1.5132    5.5028    3.6285 C.ar      2 RES2    0.0000
    105 H44        0.8847    6.0625    4.0702 H         2 RES2    0.0000
    106 C62       -1.0136    2.8301    9.0350 C.ar      2 RES2    0.0000
    107 C63       -1.6019    1.5747    9.0635 C.ar      2 RES2    0.0000
    108 H45       -1.5773    1.0278    8.2859 H         2 RES2    0.0000
    109 C64       -2.2231    1.1090   10.2000 C.ar      2 RES2    0.0000
    110 H46       -2.6155    0.2435   10.1933 H         2 RES2    0.0000
    111 C65       -2.2882    1.8680   11.3451 C.ar      2 RES2    0.0000
    112 C66       -1.6693    3.1038   11.3341 C.ar      2 RES2    0.0000
    113 H47       -1.6797    3.6365   12.1198 H         2 RES2    0.0000
    114 C67       -1.0385    3.5786   10.2026 C.ar      2 RES2    0.0000
    115 H48       -0.6140    4.4289   10.2243 H         2 RES2    0.0000
    116 C68        3.7292    5.6546    0.5557 C.3       2 RES2    0.0000
    117 H49        3.2027    6.3811    0.1647 H         2 RES2    0.0000
    118 H50        3.7890    4.9129   -0.0836 H         2 RES2    0.0000
    119 H51        4.6298    5.9793    0.7615 H         2 RES2    0.0000
    120 C69       -3.0463    1.3860   12.5650 C.3       2 RES2    0.0000
    121 H52       -2.9662    0.4119   12.6378 H         2 RES2    0.0000
    122 H53       -3.9911    1.6295   12.4779 H         2 RES2    0.0000
    123 H54       -2.6729    1.8050   13.3683 H         2 RES2    0.0000
    124 C47A      -2.4695    3.7812    6.5765 C.ar      2 RES2    0.0000
    125 C48A      -3.1580    3.7510    5.3607 C.ar      2 RES2    0.0000
    126 C49A      -4.5548    4.0597    5.2621 C.ar      2 RES2    0.0000
    127 H37A      -5.0156    4.3792    6.0300 H         2 RES2    0.0000
    128 C50A      -5.2299    3.9074    4.1038 C.ar      2 RES2    0.0000
    129 H38A      -6.1482    4.1489    4.0582 H         2 RES2    0.0000
    130 C51A      -4.5865    3.3919    2.9604 C.ar      2 RES2    0.0000
    131 H39A      -5.0876    3.2316    2.1700 H         2 RES2    0.0000
    132 C52A      -3.2610    3.1248    2.9826 C.ar      2 RES2    0.0000
    133 H40A      -2.8436    2.7659    2.2082 H         2 RES2    0.0000
    134 C53A      -2.4735    3.3749    4.1563 C.ar      2 RES2    0.0000
    135 C54A      -1.0789    3.2949    4.1415 C.ar      2 RES2    0.0000
    136 C55A      -0.3464    3.5265    5.3411 C.ar      2 RES2    0.0000
    137 C56A      -3.1818    4.2342    7.8073 C.ar      2 RES2    0.0000
    138 C57A      -4.1284    3.4602    8.4616 C.ar      2 RES2    0.0000
    139 H41A      -4.3507    2.6026    8.1188 H         2 RES2    0.0000
    140 C58A      -4.7486    3.9196    9.6042 C.ar      2 RES2    0.0000
    141 H42A      -5.3749    3.3605   10.0477 H         2 RES2    0.0000
    142 C59A      -4.4787    5.1776   10.1205 C.ar      2 RES2    0.0000
    143 C60A      -3.5683    5.9621    9.4409 C.ar      2 RES2    0.0000
    144 H43A      -3.3810    6.8377    9.7588 H         2 RES2    0.0000
    145 C61A      -2.9236    5.5028    8.3074 C.ar      2 RES2    0.0000
    146 H44A      -2.2951    6.0625    7.8658 H         2 RES2    0.0000
    147 C62A      -0.3968    2.8301    2.9009 C.ar      2 RES2    0.0000
    148 C63A       0.1916    1.5747    2.8725 C.ar      2 RES2    0.0000
    149 H45A       0.1669    1.0278    3.6500 H         2 RES2    0.0000
    150 C64A       0.8127    1.1090    1.7360 C.ar      2 RES2    0.0000
    151 H46A       1.2051    0.2435    1.7427 H         2 RES2    0.0000
    152 C65A       0.8779    1.8680    0.5908 C.ar      2 RES2    0.0000
    153 C66A       0.2589    3.1038    0.6018 C.ar      2 RES2    0.0000
    154 H47A       0.2693    3.6365   -0.1838 H         2 RES2    0.0000
    155 C67A      -0.3719    3.5786    1.7333 C.ar      2 RES2    0.0000
    156 H48A      -0.7964    4.4289    1.7116 H         2 RES2    0.0000
    157 C68A      -5.1395    5.6546   11.3802 C.3       2 RES2    0.0000
    158 H49A      -4.6131    6.3811   11.7712 H         2 RES2    0.0000
    159 H50A      -5.1994    4.9129   12.0195 H         2 RES2    0.0000
    160 H51A      -6.0402    5.9793   11.1744 H         2 RES2    0.0000
    161 C69A       1.6359    1.3860   -0.6290 C.3       2 RES2    0.0000
    162 H52A       1.5558    0.4119   -0.7018 H         2 RES2    0.0000
    163 H53A       2.5807    1.6295   -0.5419 H         2 RES2    0.0000
    164 H54A       1.2626    1.8050   -1.4323 H         2 RES2    0.0000
@<TRIPOS>BOND
     1    1    2 ar
     2    2    3 ar
     3    3    4 1
     4    5    3 ar
     5    6    5 1
     6    7    5 ar
     7    8    7 1
     8    9    7 ar
     9   10    9 1
    10   11    2 ar
    11   12   11 ar
    12   13   12 ar
    13   14   13 ar
    14   15   14 ar
    15   16   15 ar
    16   17   16 1
    17   18   16 ar
    18   19   18 1
    19   20   18 ar
    20   21   20 1
    21   22   20 ar
    22   23   22 1
    23   24   15 ar
    24   25   24 ar
    25   26    1 ar
    26   27    1 1
    27   28   27 ar
    28   29   28 1
    29   30   28 ar
    30   31   30 1
    31   32   30 ar
    32   33   32 ar
    33   34   33 1
    34   35   27 ar
    35   36   35 1
    36   37   12 1
    37   38   37 ar
    38   39   38 1
    39   40   38 ar
    40   41   40 1
    41   42   40 ar
    42   43   42 ar
    43   44   43 1
    44   45   37 ar
    45   46   45 1
    46   47   14 1
    47   48   47 ar
    48   49   48 1
    49   50   48 ar
    50   51   50 1
    51   52   50 ar
    52   53   52 ar
    53   54   53 1
    54   55   47 ar
    55   56   55 1
    56   57   25 1
    57   58   57 ar
    58   59   58 1
    59   60   58 ar
    60   61   60 1
    61   62   60 ar
    62   63   62 ar
    63   64   63 1
    64   65   57 ar
    65   66   65 1
    66   67   32 1
    67   68   67 1
    68   69   67 1
    69   70   67 1
    70   71   42 1
    71   72   71 1
    72   73   71 1
    73   74   71 1
    74   75   52 1
    75   76   75 1
    76   77   75 1
    77   78   75 1
    78   79   62 1
    79   80   79 1
    80   81   79 1
    81   82   79 1
    82   83   84 ar
    83   84   85 ar
    84   85   86 1
    85   87   85 ar
    86   88   87 1
    87   89   87 ar
    88   90   89 1
    89   91   89 ar
    90   92   91 1
    91   93   84 ar
    92   94   93 ar
    93   95   94 ar
    94   96   83 1
    95   97   96 ar
    96   98   97 1
    97   99   97 ar
    98  100   99 1
    99  101   99 ar
   100  102  101 ar
   101  103  102 1
   102  104   96 ar
   103  105  104 1
   104  106   94 1
   105  107  106 ar
   106  108  107 1
   107  109  107 ar
   108  110  109 1
   109  111  109 ar
   110  112  111 ar
   111  113  112 1
   112  114  106 ar
   113  115  114 1
   114  116  101 1
   115  117  116 1
   116  118  116 1
   117  119  116 1
   118  120  111 1
   119  121  120 1
   120  122  120 1
   121  123  120 1
   122  124   95 ar
   123  125  124 ar
   124  126  125 ar
   125  127  126 1
   126  128  126 ar
   127  129  128 1
   128  130  128 ar
   129  131  130 1
   130  132  130 ar
   131  133  132 1
   132  134  125 ar
   133  135  134 ar
   134  136   83 ar
   135  137  124 1
   136  138  137 ar
   137  139  138 1
   138  140  138 ar
   139  141  140 1
   140  142  140 ar
   141  143  142 ar
   142  144  143 1
   143  145  137 ar
   144  146  145 1
   145  147  135 1
   146  148  147 ar
   147  149  148 1
   148  150  148 ar
   149  151  150 1
   150  152  150 ar
   151  153  152 ar
   152  154  153 1
   153  155  147 ar
   154  156  155 1
   155  157  142 1
   156  158  157 1
   157  159  157 1
   158  160  157 1
   159  161  152 1
   160  162  161 1
   161  163  161 1
   162  164  161 1
   163    9   11 ar
   164   13   26 ar
   165   22   24 ar
   166   25   26 ar
   167   33   35 ar
   168   43   45 ar
   169   53   55 ar
   170   63   65 ar
   171   91   93 ar
   172   95  136 ar
   173  102  104 ar
   174  112  114 ar
   175  132  134 ar
   176  135  136 ar
   177  143  145 ar
   178  153  155 ar
@<TRIPOS>SUBSTRUCTURE
     1 RES1 1
     2 RES2 83

@<TRIPOS>CRYSIN
  41.2570   10.1464   24.0380  90.0000  96.7390  90.0000  15 1

