# MOL2 file generated by ConQuest
# Please check atom types

@<TRIPOS>MOLECULE
MIVDEC
    76    83     1
SMALL
NO_CHARGES
****
Generated from CSD

@<TRIPOS>ATOM
      1 C1         2.8738    4.7608   11.8666 C.ar      1 RES1    0.0000
      2 C2         1.8639    3.9808   11.2815 C.ar      1 RES1    0.0000
      3 C3         1.2144    2.9145   11.9755 C.ar      1 RES1    0.0000
      4 H1         1.5265    2.6620   12.8364 H         1 RES1    0.0000
      5 C4         0.1650    2.2582   11.4313 C.ar      1 RES1    0.0000
      6 H2        -0.2433    1.5444   11.9063 H         1 RES1    0.0000
      7 C5        -0.3280    2.6276   10.1602 C.ar      1 RES1    0.0000
      8 H3        -1.1038    2.2019    9.8141 H         1 RES1    0.0000
      9 C6         0.2942    3.5808    9.4311 C.ar      1 RES1    0.0000
     10 H4        -0.0471    3.8075    8.5734 H         1 RES1    0.0000
     11 C7         1.4567    4.2555    9.9254 C.ar      1 RES1    0.0000
     12 C8         2.2015    5.1242    9.1240 C.ar      1 RES1    0.0000
     13 C9         3.3565    5.7742    9.6681 C.ar      1 RES1    0.0000
     14 C10        4.3474    6.4138    8.8664 C.ar      1 RES1    0.0000
     15 C11        5.3356    7.1978    9.4701 C.ar      1 RES1    0.0000
     16 C12        6.4125    7.7670    8.7189 C.ar      1 RES1    0.0000
     17 H5         6.5121    7.5371    7.8020 H         1 RES1    0.0000
     18 C13        7.2918    8.6240    9.2846 C.ar      1 RES1    0.0000
     19 H6         8.0143    8.9703    8.7737 H         1 RES1    0.0000
     20 C14        7.1367    9.0021   10.6318 C.ar      1 RES1    0.0000
     21 H7         7.7193    9.6556   11.0018 H         1 RES1    0.0000
     22 C15        6.1749    8.4535   11.4125 C.ar      1 RES1    0.0000
     23 H8         6.0909    8.7284   12.3184 H         1 RES1    0.0000
     24 C16        5.2779    7.4594   10.8841 C.ar      1 RES1    0.0000
     25 C17        4.3938    6.7406   11.6877 C.ar      1 RES1    0.0000
     26 C18        3.5376    5.7639   11.0951 C.ar      1 RES1    0.0000
     27 C19        3.4041    4.3657   13.2142 C.ar      1 RES1    0.0000
     28 C20        2.6708    4.4187   14.3845 C.ar      1 RES1    0.0000
     29 H9         1.8048    4.8084   14.3748 H         1 RES1    0.0000
     30 C21        3.1758    3.9158   15.5661 C.ar      1 RES1    0.0000
     31 H10        2.6532    3.9687   16.3568 H         1 RES1    0.0000
     32 C22        4.4320    3.3346   15.6188 C.ar      1 RES1    0.0000
     33 C23        5.1853    3.3162   14.4602 C.ar      1 RES1    0.0000
     34 H11        6.0651    2.9581   14.4793 H         1 RES1    0.0000
     35 C24        4.6771    3.8133   13.2699 C.ar      1 RES1    0.0000
     36 H12        5.2060    3.7755   12.4815 H         1 RES1    0.0000
     37 C25        1.7180    5.4491    7.7528 C.ar      1 RES1    0.0000
     38 C26        1.8113    4.5673    6.6897 C.ar      1 RES1    0.0000
     39 H13        2.1636    3.6963    6.8289 H         1 RES1    0.0000
     40 C27        1.3935    4.9478    5.4245 C.ar      1 RES1    0.0000
     41 H14        1.4885    4.3371    4.7038 H         1 RES1    0.0000
     42 C28        0.8407    6.1940    5.1821 C.ar      1 RES1    0.0000
     43 C29        0.6944    7.0567    6.2571 C.ar      1 RES1    0.0000
     44 H15        0.2858    7.9041    6.1277 H         1 RES1    0.0000
     45 C30        1.1384    6.6946    7.5223 C.ar      1 RES1    0.0000
     46 H16        1.0445    7.3064    8.2428 H         1 RES1    0.0000
     47 C31        4.4712    6.1410    7.4059 C.ar      1 RES1    0.0000
     48 C32        4.9372    4.8969    6.9974 C.ar      1 RES1    0.0000
     49 H17        5.1133    4.2245    7.6446 H         1 RES1    0.0000
     50 C33        5.1463    4.6290    5.6588 C.ar      1 RES1    0.0000
     51 H18        5.4736    3.7783    5.3907 H         1 RES1    0.0000
     52 C34        4.8790    5.6035    4.7025 C.ar      1 RES1    0.0000
     53 H19        5.0114    5.4172    3.7808 H         1 RES1    0.0000
     54 C35        4.4236    6.8336    5.0989 C.ar      1 RES1    0.0000
     55 H20        4.2329    7.4996    4.4491 H         1 RES1    0.0000
     56 C36        4.2398    7.1113    6.4476 C.ar      1 RES1    0.0000
     57 H21        3.9516    7.9764    6.7144 H         1 RES1    0.0000
     58 C37        4.1993    7.1383   13.1212 C.ar      1 RES1    0.0000
     59 C38        5.1932    7.0903   14.0887 C.ar      1 RES1    0.0000
     60 H22        6.0423    6.7253   13.8668 H         1 RES1    0.0000
     61 C39        4.9737    7.5635   15.3682 C.ar      1 RES1    0.0000
     62 H23        5.6682    7.5246   16.0148 H         1 RES1    0.0000
     63 C40        3.7426    8.0926   15.7071 C.ar      1 RES1    0.0000
     64 H24        3.5928    8.4310   16.5829 H         1 RES1    0.0000
     65 C41        2.7286    8.1282   14.7663 C.ar      1 RES1    0.0000
     66 H25        1.8747    8.4713   15.0002 H         1 RES1    0.0000
     67 C42        2.9621    7.6624   13.4848 C.ar      1 RES1    0.0000
     68 H26        2.2655    7.7012   12.8407 H         1 RES1    0.0000
     69 C43        4.9357    2.6904   16.8874 C.3       1 RES1    0.0000
     70 H27        4.2709    2.8066   17.5989 H         1 RES1    0.0000
     71 H28        5.7777    3.1124   17.1553 H         1 RES1    0.0000
     72 H29        5.0844    1.7348   16.7317 H         1 RES1    0.0000
     73 C44        0.4318    6.6085    3.7847 C.3       1 RES1    0.0000
     74 H30        0.6097    5.8746    3.1612 H         1 RES1    0.0000
     75 H31        0.9442    7.3981    3.5146 H         1 RES1    0.0000
     76 H32       -0.5246    6.8212    3.7737 H         1 RES1    0.0000
@<TRIPOS>BOND
     1    1    2 ar
     2    2    3 ar
     3    3    4 1
     4    5    3 ar
     5    6    5 1
     6    7    5 ar
     7    8    7 1
     8    9    7 ar
     9   10    9 1
    10   11    2 ar
    11   12   11 ar
    12   13   12 ar
    13   14   13 ar
    14   15   14 ar
    15   16   15 ar
    16   17   16 1
    17   18   16 ar
    18   19   18 1
    19   20   18 ar
    20   21   20 1
    21   22   20 ar
    22   23   22 1
    23   24   15 ar
    24   25   24 ar
    25   26    1 ar
    26   27    1 1
    27   28   27 ar
    28   29   28 1
    29   30   28 ar
    30   31   30 1
    31   32   30 ar
    32   33   32 ar
    33   34   33 1
    34   35   27 ar
    35   36   35 1
    36   37   12 1
    37   38   37 ar
    38   39   38 1
    39   40   38 ar
    40   41   40 1
    41   42   40 ar
    42   43   42 ar
    43   44   43 1
    44   45   37 ar
    45   46   45 1
    46   47   14 1
    47   48   47 ar
    48   49   48 1
    49   50   48 ar
    50   51   50 1
    51   52   50 ar
    52   53   52 1
    53   54   52 ar
    54   55   54 1
    55   56   47 ar
    56   57   56 1
    57   58   25 1
    58   59   58 ar
    59   60   59 1
    60   61   59 ar
    61   62   61 1
    62   63   61 ar
    63   64   63 1
    64   65   63 ar
    65   66   65 1
    66   67   58 ar
    67   68   67 1
    68   69   32 1
    69   70   69 1
    70   71   69 1
    71   72   69 1
    72   73   42 1
    73   74   73 1
    74   75   73 1
    75   76   73 1
    76    9   11 ar
    77   13   26 ar
    78   22   24 ar
    79   25   26 ar
    80   33   35 ar
    81   43   45 ar
    82   54   56 ar
    83   65   67 ar
@<TRIPOS>SUBSTRUCTURE
     1 RES1 1

@<TRIPOS>CRYSIN
  15.2045   13.9010   14.3104  90.0000  90.0000  90.0000  33 1

