# MOL2 file generated by ConQuest
# Please check atom types

@<TRIPOS>MOLECULE
MIVDAY
    88    95     1
SMALL
NO_CHARGES
****
Generated from CSD

@<TRIPOS>ATOM
      1 C1         9.9230    0.7384    5.3138 C.ar      1 RES1    0.0000
      2 C2        11.1650    0.6204    5.9476 C.ar      1 RES1    0.0000
      3 C3        11.3323   -0.0810    7.1849 C.ar      1 RES1    0.0000
      4 H1        10.5642   -0.4039    7.6408 H         1 RES1    0.0000
      5 C4        12.5505   -0.2947    7.7190 C.ar      1 RES1    0.0000
      6 H2        12.6312   -0.7833    8.5303 H         1 RES1    0.0000
      7 C5        13.7119    0.2043    7.0805 C.ar      1 RES1    0.0000
      8 H3        14.5673    0.0433    7.4606 H         1 RES1    0.0000
      9 C6        13.6069    0.9066    5.9362 C.ar      1 RES1    0.0000
     10 H4        14.3964    1.2295    5.5186 H         1 RES1    0.0000
     11 C7        12.3405    1.1796    5.3341 C.ar      1 RES1    0.0000
     12 C8        12.2229    1.9732    4.1815 C.ar      1 RES1    0.0000
     13 C9        10.9509    2.1737    3.5737 C.ar      1 RES1    0.0000
     14 C10       10.7295    3.0869    2.4957 C.ar      1 RES1    0.0000
     15 C11        9.5584    3.0087    1.7305 C.ar      1 RES1    0.0000
     16 C12        9.3503    3.8541    0.5912 C.ar      1 RES1    0.0000
     17 H5         9.9459    4.5771    0.4304 H         1 RES1    0.0000
     18 C13        8.3159    3.6395   -0.2623 C.ar      1 RES1    0.0000
     19 H6         8.2027    4.2043   -1.0182 H         1 RES1    0.0000
     20 C14        7.4102    2.5832   -0.0349 C.ar      1 RES1    0.0000
     21 H7         6.7127    2.4194   -0.6578 H         1 RES1    0.0000
     22 C15        7.5270    1.7953    1.0721 C.ar      1 RES1    0.0000
     23 H8         6.8974    1.0996    1.2170 H         1 RES1    0.0000
     24 C16        8.5783    1.9977    2.0182 C.ar      1 RES1    0.0000
     25 C17        8.6960    1.2342    3.1958 C.ar      1 RES1    0.0000
     26 C18        9.8254    1.3745    4.0372 C.ar      1 RES1    0.0000
     27 C19        8.6975    0.3173    6.0657 C.ar      1 RES1    0.0000
     28 C20        8.3478   -1.0045    6.3039 C.ar      1 RES1    0.0000
     29 H9         8.8939   -1.7040    5.9634 H         1 RES1    0.0000
     30 C21        7.2061   -1.3142    7.0358 C.ar      1 RES1    0.0000
     31 H10        6.9763   -2.2255    7.1732 H         1 RES1    0.0000
     32 C22        6.3979   -0.3248    7.5680 C.ar      1 RES1    0.0000
     33 C23        6.7754    0.9866    7.3763 C.ar      1 RES1    0.0000
     34 H11        6.2591    1.6814    7.7667 H         1 RES1    0.0000
     35 C24        7.8968    1.3142    6.6230 C.ar      1 RES1    0.0000
     36 H12        8.1197    2.2274    6.4868 H         1 RES1    0.0000
     37 C25       13.5023    2.4533    3.5528 C.ar      1 RES1    0.0000
     38 C26       14.1998    3.5491    4.0283 C.ar      1 RES1    0.0000
     39 H13       13.8568    4.0405    4.7650 H         1 RES1    0.0000
     40 C27       15.3965    3.9370    3.4404 C.ar      1 RES1    0.0000
     41 H14       15.8514    4.7023    3.7711 H         1 RES1    0.0000
     42 C28       15.9380    3.2309    2.3826 C.ar      1 RES1    0.0000
     43 C29       15.2555    2.1125    1.9303 C.ar      1 RES1    0.0000
     44 H15       15.6168    1.5995    1.2170 H         1 RES1    0.0000
     45 C30       14.0530    1.7331    2.5039 C.ar      1 RES1    0.0000
     46 H16       13.5978    0.9668    2.1737 H         1 RES1    0.0000
     47 C31       11.6990    4.1902    2.1904 C.ar      1 RES1    0.0000
     48 C32       11.7259    5.3152    2.9893 C.ar      1 RES1    0.0000
     49 H17       11.1258    5.3802    3.7225 H         1 RES1    0.0000
     50 C33       12.6093    6.3498    2.7427 C.ar      1 RES1    0.0000
     51 C34       13.4794    6.2350    1.6816 C.ar      1 RES1    0.0000
     52 H18       14.1025    6.9316    1.5173 H         1 RES1    0.0000
     53 C35       13.4673    5.1241    0.8436 C.ar      1 RES1    0.0000
     54 C36       12.5470    4.1187    1.0946 C.ar      1 RES1    0.0000
     55 H19       12.4966    3.3712    0.5091 H         1 RES1    0.0000
     56 C37        7.6969    0.1384    3.4028 C.ar      1 RES1    0.0000
     57 C38        8.0913   -1.1768    3.1632 C.ar      1 RES1    0.0000
     58 H20        8.9832   -1.3537    2.8873 H         1 RES1    0.0000
     59 C39        7.2049   -2.2311    3.3196 C.ar      1 RES1    0.0000
     60 C40        5.9038   -1.9487    3.7126 C.ar      1 RES1    0.0000
     61 H21        5.2910   -2.6661    3.8240 H         1 RES1    0.0000
     62 C41        5.4722   -0.6524    3.9480 C.ar      1 RES1    0.0000
     63 C42        6.3829    0.3926    3.7802 C.ar      1 RES1    0.0000
     64 H22        6.1013    1.2878    3.9255 H         1 RES1    0.0000
     65 C43        5.1538   -0.6590    8.3524 C.3       1 RES1    0.0000
     66 H23        5.3403   -1.4074    8.9579 H         1 RES1    0.0000
     67 H24        4.4361   -0.9103    7.7352 H         1 RES1    0.0000
     68 H25        4.8775    0.1224    8.8750 H         1 RES1    0.0000
     69 C44       17.2357    3.6743    1.7480 C.3       1 RES1    0.0000
     70 H26       17.2366    4.6487    1.6517 H         1 RES1    0.0000
     71 H27       17.3260    3.2582    0.8652 H         1 RES1    0.0000
     72 H28       17.9865    3.4013    2.3153 H         1 RES1    0.0000
     73 C45       12.6426    7.5633    3.6567 C.3       1 RES1    0.0000
     74 H29       12.5819    7.2715    4.5905 H         1 RES1    0.0000
     75 H30       11.8873    8.1507    3.4479 H         1 RES1    0.0000
     76 H31       13.4827    8.0509    3.5208 H         1 RES1    0.0000
     77 C46       14.4431    4.9641   -0.2973 C.3       1 RES1    0.0000
     78 H32       15.3092    5.3444   -0.0429 H         1 RES1    0.0000
     79 H33       14.1010    5.4310   -1.0883 H         1 RES1    0.0000
     80 H34       14.5518    4.0113   -0.5034 H         1 RES1    0.0000
     81 C47        7.6663   -3.6489    3.1132 C.3       1 RES1    0.0000
     82 H35        6.9730   -4.1516    2.6356 H         1 RES1    0.0000
     83 H36        7.8333   -4.0678    3.9827 H         1 RES1    0.0000
     84 H37        8.4923   -3.6498    2.5856 H         1 RES1    0.0000
     85 C48        4.0646   -0.3606    4.3962 C.3       1 RES1    0.0000
     86 H38        3.5173   -1.1683    4.3016 H         1 RES1    0.0000
     87 H39        3.6876    0.3559    3.8440 H         1 RES1    0.0000
     88 H40        4.0722   -0.0800    5.3356 H         1 RES1    0.0000
@<TRIPOS>BOND
     1    1    2 ar
     2    2    3 ar
     3    3    4 1
     4    5    3 ar
     5    6    5 1
     6    7    5 ar
     7    8    7 1
     8    9    7 ar
     9   10    9 1
    10   11    2 ar
    11   12   11 ar
    12   13   12 ar
    13   14   13 ar
    14   15   14 ar
    15   16   15 ar
    16   17   16 1
    17   18   16 ar
    18   19   18 1
    19   20   18 ar
    20   21   20 1
    21   22   20 ar
    22   23   22 1
    23   24   15 ar
    24   25   24 ar
    25   26    1 ar
    26   27    1 1
    27   28   27 ar
    28   29   28 1
    29   30   28 ar
    30   31   30 1
    31   32   30 ar
    32   33   32 ar
    33   34   33 1
    34   35   27 ar
    35   36   35 1
    36   37   12 1
    37   38   37 ar
    38   39   38 1
    39   40   38 ar
    40   41   40 1
    41   42   40 ar
    42   43   42 ar
    43   44   43 1
    44   45   37 ar
    45   46   45 1
    46   47   14 1
    47   48   47 ar
    48   49   48 1
    49   50   48 ar
    50   51   50 ar
    51   52   51 1
    52   53   51 ar
    53   54   47 ar
    54   55   54 1
    55   56   25 1
    56   57   56 ar
    57   58   57 1
    58   59   57 ar
    59   60   59 ar
    60   61   60 1
    61   62   60 ar
    62   63   56 ar
    63   64   63 1
    64   65   32 1
    65   66   65 1
    66   67   65 1
    67   68   65 1
    68   69   42 1
    69   70   69 1
    70   71   69 1
    71   72   69 1
    72   73   50 1
    73   74   73 1
    74   75   73 1
    75   76   73 1
    76   77   53 1
    77   78   77 1
    78   79   77 1
    79   80   77 1
    80   81   59 1
    81   82   81 1
    82   83   81 1
    83   84   81 1
    84   85   62 1
    85   86   85 1
    86   87   85 1
    87   88   85 1
    88    9   11 ar
    89   13   26 ar
    90   22   24 ar
    91   25   26 ar
    92   33   35 ar
    93   43   45 ar
    94   53   54 ar
    95   62   63 ar
@<TRIPOS>SUBSTRUCTURE
     1 RES1 1

@<TRIPOS>CRYSIN
  12.7495    9.4141   14.5027  90.0000  99.5760  90.0000   4 1

