# MOL2 file generated by ConQuest
# Please check atom types

@<TRIPOS>MOLECULE
MNAPAD
    33    36     1
SMALL
NO_CHARGES
****
Generated from CSD

@<TRIPOS>ATOM
      1 C1         9.6974    5.8568   -1.0644 C.ar      1 RES1    0.0000
      2 C2        10.3237    5.4394   -2.1933 C.ar      1 RES1    0.0000
      3 C3         9.5805    4.8485   -3.2473 C.ar      1 RES1    0.0000
      4 C4         8.2537    4.7192   -3.1510 C.ar      1 RES1    0.0000
      5 C5         2.0614    4.9073    0.8479 C.ar      1 RES1    0.0000
      6 C6         1.4124    5.2380    2.0086 C.ar      1 RES1    0.0000
      7 C7         2.1372    5.8362    3.0634 C.ar      1 RES1    0.0000
      8 C8         3.4386    6.1257    2.9599 C.ar      1 RES1    0.0000
      9 C9         7.6147    6.0728    0.3041 C.ar      1 RES1    0.0000
     10 C10        6.1847    4.8765   -1.8406 C.ar      1 RES1    0.0000
     11 C11        4.1404    4.9161   -0.4984 C.ar      1 RES1    0.0000
     12 C12        5.5093    6.0846    1.6248 C.ar      1 RES1    0.0000
     13 C13        8.2854    5.6921   -0.8900 C.ar      1 RES1    0.0000
     14 C14        7.5290    5.1131   -1.9720 C.ar      1 RES1    0.0000
     15 C15        5.5012    5.1998   -0.6488 C.ar      1 RES1    0.0000
     16 C16        3.4493    5.1851    0.6783 C.ar      1 RES1    0.0000
     17 C17        4.1680    5.8274    1.7594 C.ar      1 RES1    0.0000
     18 C18        6.2367    5.8171    0.4387 C.ar      1 RES1    0.0000
     19 C19        8.3600    6.7165    1.4378 C.3       1 RES1    0.0000
     20 H1        10.2710    6.3785   -0.3981 H         1 RES1    0.0000
     21 H2        11.2880    5.5996   -2.3087 H         1 RES1    0.0000
     22 H3        10.1215    4.5267   -3.8611 H         1 RES1    0.0000
     23 H4         7.7333    4.2474   -3.8213 H         1 RES1    0.0000
     24 H5         1.5552    4.3797    0.1433 H         1 RES1    0.0000
     25 H6         0.4967    4.9382    2.0301 H         1 RES1    0.0000
     26 H7         1.6070    6.1140    3.6143 H         1 RES1    0.0000
     27 H8         3.9206    6.6724    3.7178 H         1 RES1    0.0000
     28 H9         5.6172    4.3797   -2.5635 H         1 RES1    0.0000
     29 H10        3.6029    4.3797   -1.2180 H         1 RES1    0.0000
     30 H11        6.0007    6.5549    2.3565 H         1 RES1    0.0000
     31 H12        8.8218    7.7306    1.3613 H         1 RES1    0.0000
     32 H13        9.1701    6.2903    1.6320 H         1 RES1    0.0000
     33 H14        7.7292    6.9223    2.0221 H         1 RES1    0.0000
@<TRIPOS>BOND
     1    1    2 ar
     2    2    3 ar
     3    3    4 ar
     4    4   14 ar
     5    5    6 ar
     6    6    7 ar
     7    7    8 ar
     8    8   17 ar
     9    9   13 ar
    10   10   14 ar
    11   11   15 ar
    12   12   17 ar
    13   13    1 ar
    14   14   13 ar
    15   15   10 ar
    16   16    5 ar
    17   17   16 ar
    18   18    9 ar
    19   19    9 1
    20   20    1 1
    21   21    2 1
    22   22    3 1
    23   23    4 1
    24   24    5 1
    25   25    6 1
    26   26    7 1
    27   27    8 1
    28   28   10 1
    29   29   11 1
    30   30   12 1
    31   31   19 1
    32   32   19 1
    33   33   19 1
    34   11   16 ar
    35   12   18 ar
    36   15   18 ar
@<TRIPOS>SUBSTRUCTURE
     1 RES1 1

@<TRIPOS>CRYSIN
  10.7940   14.6970    7.9800  90.0000  93.9500  90.0000  14 1

