# MOL2 file generated by ConQuest
# Please check atom types

@<TRIPOS>MOLECULE
MNBOCT
    44    47     1
SMALL
NO_CHARGES
****
Generated from CSD

@<TRIPOS>ATOM
      1 C1        -9.5867   -2.0601   -0.0273 C.3       1 RES1    0.0000
      2 C2        -5.7561   -1.7651   -1.8759 C.ar      1 RES1    0.0000
      3 C3        -4.4962   -1.7447   -2.5629 C.ar      1 RES1    0.0000
      4 C4        -4.1399   -2.7222   -3.3937 C.ar      1 RES1    0.0000
      5 C5        -4.9928   -3.7601   -3.6406 C.ar      1 RES1    0.0000
      6 C6        -6.2061   -3.8511   -3.0083 C.ar      1 RES1    0.0000
      7 C7        -6.6288   -2.8681   -2.0946 C.ar      1 RES1    0.0000
      8 C8        -7.8448   -2.8917   -1.3855 C.ar      1 RES1    0.0000
      9 C9        -9.8202   -1.4843    1.3723 C.3       1 RES1    0.0000
     10 C10      -11.9279   -1.9432   -3.0947 C.3       1 RES1    0.0000
     11 C11       -9.6460   -1.0818   -3.2764 C.3       1 RES1    0.0000
     12 C12       -9.6760   -3.5601   -0.0917 C.3       1 RES1    0.0000
     13 C13       -8.6921   -5.3652   -1.5284 C.3       1 RES1    0.0000
     14 C14       -9.0027   -3.8715   -1.4455 C.3       1 RES1    0.0000
     15 C15      -10.0037   -3.4581   -2.5355 C.3       1 RES1    0.0000
     16 C16      -10.5229   -2.0083   -2.4641 C.3       1 RES1    0.0000
     17 C17      -10.6386   -1.4953   -1.0098 C.3       1 RES1    0.0000
     18 C18       -8.1892   -1.8577   -0.5600 C.ar      1 RES1    0.0000
     19 C19       -7.3298   -0.7657   -0.3607 C.ar      1 RES1    0.0000
     20 C20       -6.1346   -0.7374   -1.0142 C.ar      1 RES1    0.0000
     21 H1        -4.1405   -0.8943   -2.3988 H         1 RES1    0.0000
     22 H2        -3.2425   -2.7065   -3.8629 H         1 RES1    0.0000
     23 H3        -4.8342   -4.4481   -4.0040 H         1 RES1    0.0000
     24 H4        -6.8146   -4.6207   -3.1309 H         1 RES1    0.0000
     25 H5        -9.2544   -1.9220    2.0284 H         1 RES1    0.0000
     26 H6       -10.7176   -1.8044    1.5787 H         1 RES1    0.0000
     27 H7        -9.7003   -0.5805    1.3670 H         1 RES1    0.0000
     28 H8       -12.4668   -2.4869   -2.6722 H         1 RES1    0.0000
     29 H9       -11.8838   -2.4006   -3.8629 H         1 RES1    0.0000
     30 H10      -12.2424   -1.0669   -3.0338 H         1 RES1    0.0000
     31 H11       -9.6908   -1.2081   -4.1186 H         1 RES1    0.0000
     32 H12       -8.7217   -1.0120   -2.9897 H         1 RES1    0.0000
     33 H13       -9.8793   -0.2275   -3.4483 H         1 RES1    0.0000
     34 H14       -9.1275   -4.0009    0.4586 H         1 RES1    0.0000
     35 H15       -9.4153   -5.7582   -1.3317 H         1 RES1    0.0000
     36 H16       -7.8681   -5.5072   -1.2612 H         1 RES1    0.0000
     37 H17       -8.2758   -5.5386   -2.3283 H         1 RES1    0.0000
     38 H18      -10.4892   -3.9147   -0.2028 H         1 RES1    0.0000
     39 H19       -9.6702   -3.6871   -3.3866 H         1 RES1    0.0000
     40 H20      -10.7580   -4.0009   -2.5223 H         1 RES1    0.0000
     41 H21      -10.6447   -0.5884   -1.1024 H         1 RES1    0.0000
     42 H22      -11.5094   -1.8357   -0.5644 H         1 RES1    0.0000
     43 H23       -7.5704   -0.0941    0.2558 H         1 RES1    0.0000
     44 H24       -5.6763    0.0157   -0.8290 H         1 RES1    0.0000
@<TRIPOS>BOND
     1    1    9 1
     2    2    3 ar
     3    3    4 ar
     4    4    5 ar
     5    5    6 ar
     6    6    7 ar
     7    7    2 ar
     8    8    7 ar
     9    9   25 1
    10   10   16 1
    11   11   16 1
    12   12    1 1
    13   13   14 1
    14   14    8 1
    15   15   14 1
    16   16   15 1
    17   17    1 1
    18   18    1 1
    19   19   18 ar
    20   20    2 ar
    21   21    3 1
    22   22    4 1
    23   23    5 1
    24   24    6 1
    25   26    9 1
    26   27    9 1
    27   28   10 1
    28   29   10 1
    29   30   10 1
    30   31   11 1
    31   32   11 1
    32   33   11 1
    33   34   12 1
    34   35   13 1
    35   36   13 1
    36   37   13 1
    37   38   12 1
    38   39   15 1
    39   40   15 1
    40   41   17 1
    41   42   17 1
    42   43   19 1
    43   44   20 1
    44    8   18 ar
    45   12   14 1
    46   16   17 1
    47   19   20 ar
@<TRIPOS>SUBSTRUCTURE
     1 RES1 1

@<TRIPOS>CRYSIN
  23.4820    7.8450    8.8250  90.0000  92.0600  90.0000  14 2

