# MOL2 file generated by ConQuest
# Please check atom types

@<TRIPOS>MOLECULE
MOCBIR
   118   124     2
SMALL
NO_CHARGES
****
Generated from CSD

@<TRIPOS>ATOM
      1 C1         2.3480   -0.6775   12.8919 C.3       1 RES1    0.0000
      2 H1         3.1683   -0.3195   12.4467 H         1 RES1    0.0000
      3 C2         2.7090   -2.0610   13.4794 C.3       1 RES1    0.0000
      4 H2         3.3382   -1.9319   14.2328 H         1 RES1    0.0000
      5 H3         1.8867   -2.4762   13.8431 H         1 RES1    0.0000
      6 C3         3.3377   -3.0198   12.4767 C.3       1 RES1    0.0000
      7 H4         4.0804   -2.5598   12.0108 H         1 RES1    0.0000
      8 H5         2.6610   -3.2671   11.7981 H         1 RES1    0.0000
      9 C4         3.8753   -4.2948   13.1362 C.3       1 RES1    0.0000
     10 H6         4.5227   -4.0481   13.8431 H         1 RES1    0.0000
     11 H7         3.1270   -4.7819   13.5643 H         1 RES1    0.0000
     12 C5         4.5516   -5.1998   12.1350 C.ar      1 RES1    0.0000
     13 C6         3.9389   -6.3612   11.6840 C.ar      1 RES1    0.0000
     14 H8         3.0888   -6.6090   12.0266 H         1 RES1    0.0000
     15 C7         4.5606   -7.1626   10.7344 C.ar      1 RES1    0.0000
     16 H9         4.1294   -7.9509   10.4269 H         1 RES1    0.0000
     17 C8         5.8043   -6.8178   10.2349 C.ar      1 RES1    0.0000
     18 H10        6.2309   -7.3708    9.5907 H         1 RES1    0.0000
     19 C9         6.4228   -5.6646   10.6780 C.ar      1 RES1    0.0000
     20 H11        7.2748   -5.4210   10.3357 H         1 RES1    0.0000
     21 C10        5.8016   -4.8646   11.6212 C.ar      1 RES1    0.0000
     22 H12        6.2345   -4.0747   11.9223 H         1 RES1    0.0000
     23 C11        1.9906    0.2733   14.0143 C.ar      1 RES1    0.0000
     24 C12        2.8800    1.2282   14.4410 C.ar      1 RES1    0.0000
     25 H13        3.7041    1.3289   13.9791 H         1 RES1    0.0000
     26 C13        2.6058    2.0695   15.5527 C.ar      1 RES1    0.0000
     27 C14        1.3675    1.9190   16.2385 C.ar      1 RES1    0.0000
     28 C15        0.4576    0.9381   15.7792 C.ar      1 RES1    0.0000
     29 H14       -0.3760    0.8324   16.2222 H         1 RES1    0.0000
     30 C16        0.7553    0.1403   14.7104 C.ar      1 RES1    0.0000
     31 H15        0.1277   -0.5139   14.4270 H         1 RES1    0.0000
     32 C17        3.5227    3.0523   15.9995 C.ar      1 RES1    0.0000
     33 H16        4.3531    3.1584   15.5498 H         1 RES1    0.0000
     34 C18        3.2263    3.8515   17.0722 C.ar      1 RES1    0.0000
     35 H17        3.8493    4.5075   17.3610 H         1 RES1    0.0000
     36 C19        1.9942    3.7009   17.7517 C.ar      1 RES1    0.0000
     37 H18        1.7950    4.2568   18.4957 H         1 RES1    0.0000
     38 C20        1.0891    2.7619   17.3462 C.ar      1 RES1    0.0000
     39 H19        0.2646    2.6724   17.8101 H         1 RES1    0.0000
     40 C21        1.2553   -0.8053   11.8105 C.3       1 RES1    0.0000
     41 H20        1.5926   -1.4041   11.0980 H         1 RES1    0.0000
     42 H21        0.4666   -1.2435   12.2169 H         1 RES1    0.0000
     43 C22        0.7945    0.5058   11.1574 C.3       1 RES1    0.0000
     44 H22        0.3414    1.0639   11.8523 H         1 RES1    0.0000
     45 C23        1.9710    1.3034   10.5840 C.3       1 RES1    0.0000
     46 H23        2.4869    0.7235    9.9685 H         1 RES1    0.0000
     47 H24        2.5723    1.5724   11.3239 H         1 RES1    0.0000
     48 C24        1.5131    2.5573    9.8275 C.3       1 RES1    0.0000
     49 H25        1.0856    3.1858   10.4625 H         1 RES1    0.0000
     50 H26        2.3013    3.0093    9.4348 H         1 RES1    0.0000
     51 C25        0.5275    2.2104    8.7210 C.3       1 RES1    0.0000
     52 H27        0.9769    1.6498    8.0398 H         1 RES1    0.0000
     53 H28        0.2177    3.0413    8.2802 H         1 RES1    0.0000
     54 C26       -0.6690    1.4579    9.2952 C.3       1 RES1    0.0000
     55 H29       -1.2821    1.2037    8.5603 H         1 RES1    0.0000
     56 H30       -1.1631    2.0499    9.9156 H         1 RES1    0.0000
     57 C27       -0.2181    0.1967   10.0421 C.3       1 RES1    0.0000
     58 H31        0.1916   -0.4329    9.3978 H         1 RES1    0.0000
     59 H32       -1.0104   -0.2469   10.4374 H         1 RES1    0.0000
     60 C28        4.7098   -0.5956    4.4548 C.3       2 RES2    0.0000
     61 H33        5.5867   -0.9505    4.7782 H         2 RES2    0.0000
     62 C29        4.9683    0.8126    3.8912 C.3       2 RES2    0.0000
     63 H34        5.5757    0.7363    3.1137 H         2 RES2    0.0000
     64 H35        4.1113    1.1872    3.5668 H         2 RES2    0.0000
     65 C30        5.5783    1.7825    4.8960 C.3       2 RES2    0.0000
     66 H36        6.3243    1.3344    5.3673 H         2 RES2    0.0000
     67 H37        4.8944    2.0236    5.5695 H         2 RES2    0.0000
     68 C31        6.1004    3.0599    4.2339 C.3       2 RES2    0.0000
     69 H38        6.8588    2.8336    3.6394 H         2 RES2    0.0000
     70 H39        5.3837    3.4564    3.6764 H         2 RES2    0.0000
     71 C32        6.5523    4.0707    5.2539 C.ar      2 RES2    0.0000
     72 C33        5.6931    5.0895    5.6520 C.ar      2 RES2    0.0000
     73 H40        4.8372    5.1669    5.2458 H         2 RES2    0.0000
     74 C34        6.0678    5.9936    6.6314 C.ar      2 RES2    0.0000
     75 H41        5.4690    6.6831    6.8918 H         2 RES2    0.0000
     76 C35        7.3085    5.8964    7.2307 C.ar      2 RES2    0.0000
     77 H42        7.5656    6.5184    7.9011 H         2 RES2    0.0000
     78 C36        8.1773    4.8845    6.8469 C.ar      2 RES2    0.0000
     79 H43        9.0302    4.8092    7.2591 H         2 RES2    0.0000
     80 C37        7.8006    3.9836    5.8627 C.ar      2 RES2    0.0000
     81 H44        8.4028    3.2974    5.5998 H         2 RES2    0.0000
     82 C38        4.2377   -1.5101    3.3371 C.ar      2 RES2    0.0000
     83 C39        5.0447   -2.5040    2.8517 C.ar      2 RES2    0.0000
     84 H45        5.8876   -2.6535    3.2629 H         2 RES2    0.0000
     85 C40        4.6612   -3.3198    1.7513 C.ar      2 RES2    0.0000
     86 C41        3.3957   -3.0988    1.1398 C.ar      2 RES2    0.0000
     87 C42        2.5631   -2.0757    1.6681 C.ar      2 RES2    0.0000
     88 H46        1.7123   -1.9179    1.2761 H         2 RES2    0.0000
     89 C43        2.9641   -1.3138    2.7286 C.ar      2 RES2    0.0000
     90 H47        2.3841   -0.6417    3.0661 H         2 RES2    0.0000
     91 C44        5.4973   -4.3454    1.2439 C.ar      2 RES2    0.0000
     92 H48        6.3430   -4.5040    1.6460 H         2 RES2    0.0000
     93 C45        5.0995   -5.1099    0.1795 C.ar      2 RES2    0.0000
     94 H49        5.6690   -5.7947   -0.1493 H         2 RES2    0.0000
     95 C46        3.8477   -4.8847   -0.4314 C.ar      2 RES2    0.0000
     96 H50        3.5795   -5.4182   -1.1704 H         2 RES2    0.0000
     97 C47        3.0157   -3.8986    0.0382 C.ar      2 RES2    0.0000
     98 H51        2.1764   -3.7518   -0.3818 H         2 RES2    0.0000
     99 C48        3.7538   -0.5726    5.6599 C.3       2 RES2    0.0000
    100 H52        4.1442    0.0112    6.3581 H         2 RES2    0.0000
    101 H53        2.8998   -0.1623    5.3739 H         2 RES2    0.0000
    102 C49        3.4495   -1.9364    6.2851 C.3       2 RES2    0.0000
    103 H54        2.9828   -2.4961    5.5998 H         2 RES2    0.0000
    104 C50        4.7204   -2.6753    6.7177 C.3       2 RES2    0.0000
    105 H55        5.2943   -2.8291    5.9261 H         2 RES2    0.0000
    106 H56        5.2259   -2.1106    7.3542 H         2 RES2    0.0000
    107 C51        4.3992   -4.0179    7.3779 C.3       2 RES2    0.0000
    108 H57        3.9741   -4.6175    6.7148 H         2 RES2    0.0000
    109 H58        5.2397   -4.4449    7.6818 H         2 RES2    0.0000
    110 C52        3.4648   -3.8358    8.5679 C.3       2 RES2    0.0000
    111 H59        3.9256   -3.3144    9.2723 H         2 RES2    0.0000
    112 H60        3.2342   -4.7226    8.9447 H         2 RES2    0.0000
    113 C53        2.1887   -3.1125    8.1541 C.3       2 RES2    0.0000
    114 H61        1.6250   -2.9552    8.9526 H         2 RES2    0.0000
    115 H62        1.6770   -3.6804    7.5246 H         2 RES2    0.0000
    116 C54        2.5105   -1.7728    7.4860 C.3       2 RES2    0.0000
    117 H63        2.9334   -1.1714    8.1494 H         2 RES2    0.0000
    118 H64        1.6683   -1.3489    7.1851 H         2 RES2    0.0000
@<TRIPOS>BOND
     1    1    2 1
     2    3    1 1
     3    4    3 1
     4    5    3 1
     5    6    3 1
     6    7    6 1
     7    8    6 1
     8    9    6 1
     9   10    9 1
    10   11    9 1
    11   12    9 1
    12   13   12 ar
    13   14   13 1
    14   15   13 ar
    15   16   15 1
    16   17   15 ar
    17   18   17 1
    18   19   17 ar
    19   20   19 1
    20   21   12 ar
    21   22   21 1
    22   23    1 1
    23   24   23 ar
    24   25   24 1
    25   26   24 ar
    26   27   26 ar
    27   28   27 ar
    28   29   28 1
    29   30   23 ar
    30   31   30 1
    31   32   26 ar
    32   33   32 1
    33   34   32 ar
    34   35   34 1
    35   36   34 ar
    36   37   36 1
    37   38   27 ar
    38   39   38 1
    39   40    1 1
    40   41   40 1
    41   42   40 1
    42   43   40 1
    43   44   43 1
    44   45   43 1
    45   46   45 1
    46   47   45 1
    47   48   45 1
    48   49   48 1
    49   50   48 1
    50   51   48 1
    51   52   51 1
    52   53   51 1
    53   54   51 1
    54   55   54 1
    55   56   54 1
    56   57   43 1
    57   58   57 1
    58   59   57 1
    59   60   61 1
    60   62   60 1
    61   63   62 1
    62   64   62 1
    63   65   62 1
    64   66   65 1
    65   67   65 1
    66   68   65 1
    67   69   68 1
    68   70   68 1
    69   71   68 1
    70   72   71 ar
    71   73   72 1
    72   74   72 ar
    73   75   74 1
    74   76   74 ar
    75   77   76 1
    76   78   76 ar
    77   79   78 1
    78   80   71 ar
    79   81   80 1
    80   82   60 1
    81   83   82 ar
    82   84   83 1
    83   85   83 ar
    84   86   85 ar
    85   87   86 ar
    86   88   87 1
    87   89   82 ar
    88   90   89 1
    89   91   85 ar
    90   92   91 1
    91   93   91 ar
    92   94   93 1
    93   95   93 ar
    94   96   95 1
    95   97   86 ar
    96   98   97 1
    97   99   60 1
    98  100   99 1
    99  101   99 1
   100  102   99 1
   101  103  102 1
   102  104  102 1
   103  105  104 1
   104  106  104 1
   105  107  104 1
   106  108  107 1
   107  109  107 1
   108  110  107 1
   109  111  110 1
   110  112  110 1
   111  113  110 1
   112  114  113 1
   113  115  113 1
   114  116  102 1
   115  117  116 1
   116  118  116 1
   117   19   21 ar
   118   28   30 ar
   119   36   38 ar
   120   54   57 1
   121   78   80 ar
   122   87   89 ar
   123   95   97 ar
   124  113  116 1
@<TRIPOS>SUBSTRUCTURE
     1 RES1 1
     2 RES2 60

@<TRIPOS>CRYSIN
   5.9031   13.8552   14.0936 106.3499  98.3273 101.5540   1 1

