# MOL2 file generated by ConQuest
# Please check atom types

@<TRIPOS>MOLECULE
MOGHUM
   186   236     1
SMALL
NO_CHARGES
****
Generated from CSD

@<TRIPOS>ATOM
      1 C1         7.1851    4.2905    9.2950 C.2       1 RES1    0.0000
      2 C2         8.1010    3.4129   10.0424 C.3       1 RES1    0.0000
      3 H1         8.9025    3.3787    9.4769 H         1 RES1    0.0000
      4 C3         8.5235    4.2516   11.1993 C.2       1 RES1    0.0000
      5 C4         8.0560    5.5305   10.9929 C.2       1 RES1    0.0000
      6 C5         7.2136    5.5493    9.8192 C.2       1 RES1    0.0000
      7 C6         6.0364    3.7840    8.3857 C.3       1 RES1    0.0000
      8 C7         7.7537    1.9049   10.2808 C.3       1 RES1    0.0000
      9 C8         9.0179    3.7450   12.5380 C.3       1 RES1    0.0000
     10 C9         8.1193    6.6476   12.0154 C.3       1 RES1    0.0000
     11 C10        6.3067    6.6851    9.4601 C.3       1 RES1    0.0000
     12 C11        5.5352    2.5059    9.0658 C.2       1 RES1    0.0000
     13 C12        6.2766    1.6855    9.8834 C.2       1 RES1    0.0000
     14 C13        7.6508    1.6665   11.7968 C.2       1 RES1    0.0000
     15 C14        8.1902    2.4667   12.8024 C.2       1 RES1    0.0000
     16 C15        8.4208    4.6676   13.6185 C.2       1 RES1    0.0000
     17 C16        8.0026    5.9628   13.3771 C.2       1 RES1    0.0000
     18 C17        6.7471    7.3287   11.9359 C.2       1 RES1    0.0000
     19 C18        5.9295    7.3560   10.8294 C.2       1 RES1    0.0000
     20 C19        4.9398    6.0111    9.0933 C.2       1 RES1    0.0000
     21 C20        4.8483    4.7299    8.6134 C.2       1 RES1    0.0000
     22 C21        4.1149    2.5960    9.2583 C.2       1 RES1    0.0000
     23 C22        5.5969    0.9516   10.9272 C.2       1 RES1    0.0000
     24 C23        6.4396    0.9596   12.1101 C.2       1 RES1    0.0000
     25 C24        7.5699    2.5573   14.0938 C.2       1 RES1    0.0000
     26 C25        7.6990    3.8959   14.5691 C.2       1 RES1    0.0000
     27 C26        6.8993    6.5189   14.1091 C.2       1 RES1    0.0000
     28 C27        6.1281    7.3652   13.2395 C.2       1 RES1    0.0000
     29 C28        4.5069    7.3555   10.9715 C.2       1 RES1    0.0000
     30 C29        3.9155    6.5330    9.9323 C.2       1 RES1    0.0000
     31 C30        3.6702    3.9347    8.9939 C.2       1 RES1    0.0000
     32 C31        3.4378    1.8389   10.2074 C.2       1 RES1    0.0000
     33 C32        4.2072    0.9794   11.0495 C.2       1 RES1    0.0000
     34 C33        5.8525    0.9622   13.3679 C.2       1 RES1    0.0000
     35 C34        6.4368    1.7690   14.3964 C.2       1 RES1    0.0000
     36 C35        6.6721    4.4327   15.3424 C.2       1 RES1    0.0000
     37 C36        6.2673    5.7870   15.1300 C.2       1 RES1    0.0000
     38 C37        4.7731    7.4439   13.4046 C.2       1 RES1    0.0000
     39 C38        3.9458    7.4354   12.2339 C.2       1 RES1    0.0000
     40 C39        2.7608    5.8194   10.2227 C.2       1 RES1    0.0000
     41 C40        2.6269    4.4835    9.7306 C.2       1 RES1    0.0000
     42 C41        2.3700    2.3873   10.9670 C.2       1 RES1    0.0000
     43 C42        3.5950    1.0289   12.3959 C.2       1 RES1    0.0000
     44 C43        4.4253    0.9944   13.5253 C.2       1 RES1    0.0000
     45 C44        5.3776    2.3412   15.1942 C.2       1 RES1    0.0000
     46 C45        5.4661    3.6418   15.6618 C.2       1 RES1    0.0000
     47 C46        4.8252    5.8421   15.2828 C.2       1 RES1    0.0000
     48 C47        4.0923    6.6871   14.4087 C.2       1 RES1    0.0000
     49 C48        2.7342    6.6922   12.5212 C.2       1 RES1    0.0000
     50 C49        2.1397    5.8648   11.5110 C.2       1 RES1    0.0000
     51 C50        1.9524    3.7043   10.7270 C.2       1 RES1    0.0000
     52 C51        2.4635    1.9043   12.3516 C.2       1 RES1    0.0000
     53 C52        4.1236    1.8615   14.6211 C.2       1 RES1    0.0000
     54 C53        4.3404    4.5245   15.5946 C.2       1 RES1    0.0000
     55 C54        2.8462    6.2232   13.8906 C.2       1 RES1    0.0000
     56 C55        1.6592    4.5710   11.8534 C.2       1 RES1    0.0000
     57 C56        2.1756    2.7219   13.4015 C.2       1 RES1    0.0000
     58 C57        3.0214    2.7167   14.5905 C.2       1 RES1    0.0000
     59 C58        3.1451    4.0878   15.0887 C.2       1 RES1    0.0000
     60 C59        2.3427    4.9130   14.2237 C.2       1 RES1    0.0000
     61 C60        1.7772    4.0950   13.1784 C.2       1 RES1    0.0000
     62 C61        6.4111    3.6959    6.8513 C.ar      1 RES1    0.0000
     63 C62        7.2267    4.7400    6.4218 C.ar      1 RES1    0.0000
     64 H2         7.5069    5.3777    7.0377 H         1 RES1    0.0000
     65 C63        7.6347    4.8502    5.0999 C.ar      1 RES1    0.0000
     66 H3         8.1640    5.5661    4.8340 H         1 RES1    0.0000
     67 C64        7.2391    3.8631    4.1508 C.ar      1 RES1    0.0000
     68 C65        7.6151    3.9527    2.7616 C.ar      1 RES1    0.0000
     69 H4         8.1317    4.6723    2.4804 H         1 RES1    0.0000
     70 C66        7.2471    3.0496    1.8844 C.ar      1 RES1    0.0000
     71 H5         7.5292    3.1383    1.0026 H         1 RES1    0.0000
     72 C67        6.4343    1.9457    2.2344 C.ar      1 RES1    0.0000
     73 C68        6.0010    0.9953    1.3586 C.ar      1 RES1    0.0000
     74 H6         6.2770    1.0429    0.4722 H         1 RES1    0.0000
     75 C69        5.1565   -0.0476    1.7484 C.ar      1 RES1    0.0000
     76 H7         4.8815   -0.6754    1.1187 H         1 RES1    0.0000
     77 C70        4.7279   -0.1556    3.0398 C.ar      1 RES1    0.0000
     78 H8         4.1595   -0.8496    3.2843 H         1 RES1    0.0000
     79 C71        5.1474    0.7778    3.9965 C.ar      1 RES1    0.0000
     80 C72        4.7245    0.7324    5.3352 C.ar      1 RES1    0.0000
     81 H9         4.1278    0.0649    5.5859 H         1 RES1    0.0000
     82 C73        5.1348    1.5995    6.2675 C.ar      1 RES1    0.0000
     83 H10        4.8495    1.4757    7.1432 H         1 RES1    0.0000
     84 C74        6.0094    2.7265    5.9756 C.ar      1 RES1    0.0000
     85 C75        6.4410    2.8128    4.5971 C.ar      1 RES1    0.0000
     86 C76        6.0079    1.8245    3.6098 C.ar      1 RES1    0.0000
     87 C77        8.6388    0.9791    9.4524 C.ar      1 RES1    0.0000
     88 C78        8.7521    1.3541    8.1106 C.ar      1 RES1    0.0000
     89 H11        8.3046    2.1160    7.8202 H         1 RES1    0.0000
     90 C79        9.4970    0.6414    7.2104 C.ar      1 RES1    0.0000
     91 H12        9.5758    0.9554    6.3378 H         1 RES1    0.0000
     92 C80       10.1406   -0.5434    7.5635 C.ar      1 RES1    0.0000
     93 C81       10.9131   -1.2720    6.6266 C.ar      1 RES1    0.0000
     94 H13       11.0181   -0.9442    5.7616 H         1 RES1    0.0000
     95 C82       11.5152   -2.4668    6.9827 C.ar      1 RES1    0.0000
     96 H14       12.0026   -2.9485    6.3546 H         1 RES1    0.0000
     97 C83       11.3838   -2.9585    8.3230 C.ar      1 RES1    0.0000
     98 C84       11.9752   -4.1719    8.7005 C.ar      1 RES1    0.0000
     99 H15       12.4053   -4.6960    8.0632 H         1 RES1    0.0000
    100 C85       11.9259   -4.5946   10.0148 C.ar      1 RES1    0.0000
    101 H16       12.3637   -5.3753   10.2640 H         1 RES1    0.0000
    102 C86       11.2269   -3.8628   10.9670 C.ar      1 RES1    0.0000
    103 H17       11.1766   -4.1624   11.8457 H         1 RES1    0.0000
    104 C87       10.6068   -2.6809   10.5941 C.ar      1 RES1    0.0000
    105 C88        9.9098   -1.8807   11.5217 C.ar      1 RES1    0.0000
    106 H18        9.8938   -2.1580   12.4081 H         1 RES1    0.0000
    107 C89        9.2786   -0.7580   11.2130 C.ar      1 RES1    0.0000
    108 H19        8.8223   -0.2999   11.8809 H         1 RES1    0.0000
    109 C90        9.2753   -0.2224    9.8712 C.ar      1 RES1    0.0000
    110 C91       10.0081   -0.9957    8.9007 C.ar      1 RES1    0.0000
    111 C92       10.6447   -2.2184    9.2981 C.ar      1 RES1    0.0000
    112 C93       10.5401    3.4274   12.5564 C.ar      1 RES1    0.0000
    113 C94       10.9827    2.6572   11.5233 C.ar      1 RES1    0.0000
    114 H20       10.3744    2.4191   10.8615 H         1 RES1    0.0000
    115 C95       12.2829    2.2121   11.4071 C.ar      1 RES1    0.0000
    116 H21       12.5380    1.7006   10.6720 H         1 RES1    0.0000
    117 C96       13.2046    2.5264   12.3806 C.ar      1 RES1    0.0000
    118 C97       14.5732    2.0566   12.2767 C.ar      1 RES1    0.0000
    119 H22       14.8416    1.5562   11.5401 H         1 RES1    0.0000
    120 C98       15.4622    2.3486   13.2609 C.ar      1 RES1    0.0000
    121 H23       16.3400    2.0544   13.1769 H         1 RES1    0.0000
    122 C99       15.0952    3.0879   14.4087 C.ar      1 RES1    0.0000
    123 C100      15.9643    3.2832   15.5044 C.ar      1 RES1    0.0000
    124 H24       16.8258    2.9339   15.4647 H         1 RES1    0.0000
    125 C101      15.5826    3.9650   16.6124 C.ar      1 RES1    0.0000
    126 H25       16.1606    4.0283   17.3384 H         1 RES1    0.0000
    127 C102      14.3273    4.5736   16.6705 C.ar      1 RES1    0.0000
    128 H26       14.0928    5.0944   17.4041 H         1 RES1    0.0000
    129 C103      13.4023    4.3892   15.5885 C.ar      1 RES1    0.0000
    130 C104      12.1010    4.9372   15.6282 C.ar      1 RES1    0.0000
    131 H27       11.8621    5.4796   16.3450 H         1 RES1    0.0000
    132 C105      11.1950    4.6974   14.6578 C.ar      1 RES1    0.0000
    133 H28       10.3642    5.1151   14.7067 H         1 RES1    0.0000
    134 C106      11.4655    3.8266   13.5589 C.ar      1 RES1    0.0000
    135 C107      12.8151    3.3204   13.4626 C.ar      1 RES1    0.0000
    136 C108      13.7695    3.6278   14.5141 C.ar      1 RES1    0.0000
    137 C109       9.4212    7.4968   11.8900 C.ar      1 RES1    0.0000
    138 C110      10.5472    6.8062   11.4102 C.ar      1 RES1    0.0000
    139 H29       10.4500    5.9259   11.1305 H         1 RES1    0.0000
    140 C111      11.8010    7.3975   11.3383 C.ar      1 RES1    0.0000
    141 H30       12.5094    6.9133   10.9792 H         1 RES1    0.0000
    142 C112      12.0283    8.7041   11.7968 C.ar      1 RES1    0.0000
    143 C113      13.3001    9.3528   11.7983 C.ar      1 RES1    0.0000
    144 H31       14.0290    8.8916   11.4530 H         1 RES1    0.0000
    145 C114      13.4910   10.5479   12.2553 C.ar      1 RES1    0.0000
    146 H32       14.3509   10.9041   12.2507 H         1 RES1    0.0000
    147 C115      12.4052   11.3371   12.7719 C.ar      1 RES1    0.0000
    148 C116      12.5622   12.6124   13.2793 C.ar      1 RES1    0.0000
    149 H33       13.4149   12.9805   13.3159 H         1 RES1    0.0000
    150 C117      11.4991   13.3506   13.7347 C.ar      1 RES1    0.0000
    151 H34       11.6336   14.2052   14.0770 H         1 RES1    0.0000
    152 C118      10.2176   12.8121   13.6781 C.ar      1 RES1    0.0000
    153 H35        9.4908   13.3275   13.9441 H         1 RES1    0.0000
    154 C119      10.0118   11.5247   13.2303 C.ar      1 RES1    0.0000
    155 C120       8.7105   10.9141   13.2472 C.ar      1 RES1    0.0000
    156 H36        7.9817   11.4063   13.5482 H         1 RES1    0.0000
    157 C121       8.5153    9.6176   12.8299 C.ar      1 RES1    0.0000
    158 H37        7.6633    9.2524   12.8911 H         1 RES1    0.0000
    159 C122       9.5672    8.8116   12.3088 C.ar      1 RES1    0.0000
    160 C123      10.8863    9.4429   12.2843 C.ar      1 RES1    0.0000
    161 C124      11.0749   10.7557   12.7520 C.ar      1 RES1    0.0000
    162 C125       6.9845    7.6973    8.5049 C.ar      1 RES1    0.0000
    163 C126       8.3768    7.6556    8.3903 C.ar      1 RES1    0.0000
    164 H38        8.8337    6.9954    8.8595 H         1 RES1    0.0000
    165 C127       9.1025    8.5170    7.6368 C.ar      1 RES1    0.0000
    166 H39       10.0278    8.4335    7.5971 H         1 RES1    0.0000
    167 C128       8.4482    9.5445    6.9124 C.ar      1 RES1    0.0000
    168 C129       9.1826   10.4684    6.0765 C.ar      1 RES1    0.0000
    169 H40       10.1102   10.4239    6.0459 H         1 RES1    0.0000
    170 C130       8.5481   11.3827    5.3505 C.ar      1 RES1    0.0000
    171 H41        9.0391   11.9397    4.7912 H         1 RES1    0.0000
    172 C131       7.1370   11.5270    5.4117 C.ar      1 RES1    0.0000
    173 C132       6.4673   12.5100    4.6827 C.ar      1 RES1    0.0000
    174 H42        6.9437   13.0713    4.1141 H         1 RES1    0.0000
    175 C133       5.0767   12.6493    4.8065 C.ar      1 RES1    0.0000
    176 H43        4.6483   13.3272    4.3327 H         1 RES1    0.0000
    177 C134       4.3354   11.8272    5.5981 C.ar      1 RES1    0.0000
    178 H44        3.4127   11.9384    5.6485 H         1 RES1    0.0000
    179 C135       4.9714   10.7986    6.3470 C.ar      1 RES1    0.0000
    180 C136       4.2609    9.9220    7.2074 C.ar      1 RES1    0.0000
    181 H45        3.3423   10.0262    7.2991 H         1 RES1    0.0000
    182 C137       4.8726    8.9524    7.8890 C.ar      1 RES1    0.0000
    183 H46        4.3618    8.4041    8.4407 H         1 RES1    0.0000
    184 C138       6.3057    8.7176    7.8034 C.ar      1 RES1    0.0000
    185 C139       7.0596    9.6202    6.9873 C.ar      1 RES1    0.0000
    186 C140       6.3768   10.6365    6.2461 C.ar      1 RES1    0.0000
@<TRIPOS>BOND
     1    1    2 1
     2    2    3 1
     3    4    2 1
     4    5    4 2
     5    6    1 2
     6    7    1 1
     7    8    2 1
     8    9    4 1
     9   10    5 1
    10   11    6 1
    11   12    7 1
    12   13    8 1
    13   14    8 1
    14   15    9 1
    15   16    9 1
    16   17   10 1
    17   18   10 1
    18   19   11 1
    19   20   11 1
    20   21    7 1
    21   22   12 1
    22   23   13 1
    23   24   14 1
    24   25   15 1
    25   26   16 1
    26   27   17 1
    27   28   18 1
    28   29   19 1
    29   30   20 1
    30   31   21 1
    31   32   22 2
    32   33   23 2
    33   34   24 2
    34   35   25 2
    35   36   26 2
    36   37   27 2
    37   38   28 2
    38   39   29 2
    39   40   30 2
    40   41   31 2
    41   42   32 1
    42   43   33 1
    43   44   34 1
    44   45   35 1
    45   46   36 1
    46   47   37 1
    47   48   38 1
    48   49   39 1
    49   50   40 1
    50   51   41 1
    51   52   42 1
    52   53   44 1
    53   54   46 1
    54   55   48 1
    55   56   50 1
    56   57   52 2
    57   58   53 2
    58   59   54 2
    59   60   55 2
    60   61   56 2
    61   62    7 1
    62   63   62 ar
    63   64   63 1
    64   65   63 ar
    65   66   65 1
    66   67   65 ar
    67   68   67 ar
    68   69   68 1
    69   70   68 ar
    70   71   70 1
    71   72   70 ar
    72   73   72 ar
    73   74   73 1
    74   75   73 ar
    75   76   75 1
    76   77   75 ar
    77   78   77 1
    78   79   77 ar
    79   80   79 ar
    80   81   80 1
    81   82   80 ar
    82   83   82 1
    83   84   62 ar
    84   85   67 ar
    85   86   72 ar
    86   87    8 1
    87   88   87 ar
    88   89   88 1
    89   90   88 ar
    90   91   90 1
    91   92   90 ar
    92   93   92 ar
    93   94   93 1
    94   95   93 ar
    95   96   95 1
    96   97   95 ar
    97   98   97 ar
    98   99   98 1
    99  100   98 ar
   100  101  100 1
   101  102  100 ar
   102  103  102 1
   103  104  102 ar
   104  105  104 ar
   105  106  105 1
   106  107  105 ar
   107  108  107 1
   108  109   87 ar
   109  110   92 ar
   110  111   97 ar
   111  112    9 1
   112  113  112 ar
   113  114  113 1
   114  115  113 ar
   115  116  115 1
   116  117  115 ar
   117  118  117 ar
   118  119  118 1
   119  120  118 ar
   120  121  120 1
   121  122  120 ar
   122  123  122 ar
   123  124  123 1
   124  125  123 ar
   125  126  125 1
   126  127  125 ar
   127  128  127 1
   128  129  127 ar
   129  130  129 ar
   130  131  130 1
   131  132  130 ar
   132  133  132 1
   133  134  112 ar
   134  135  117 ar
   135  136  122 ar
   136  137   10 1
   137  138  137 ar
   138  139  138 1
   139  140  138 ar
   140  141  140 1
   141  142  140 ar
   142  143  142 ar
   143  144  143 1
   144  145  143 ar
   145  146  145 1
   146  147  145 ar
   147  148  147 ar
   148  149  148 1
   149  150  148 ar
   150  151  150 1
   151  152  150 ar
   152  153  152 1
   153  154  152 ar
   154  155  154 ar
   155  156  155 1
   156  157  155 ar
   157  158  157 1
   158  159  137 ar
   159  160  142 ar
   160  161  147 ar
   161  162   11 1
   162  163  162 ar
   163  164  163 1
   164  165  163 ar
   165  166  165 1
   166  167  165 ar
   167  168  167 ar
   168  169  168 1
   169  170  168 ar
   170  171  170 1
   171  172  170 ar
   172  173  172 ar
   173  174  173 1
   174  175  173 ar
   175  176  175 1
   176  177  175 ar
   177  178  177 1
   178  179  177 ar
   179  180  179 ar
   180  181  180 1
   181  182  180 ar
   182  183  182 1
   183  184  162 ar
   184  185  167 ar
   185  186  172 ar
   186    5    6 1
   187   12   13 2
   188   14   15 2
   189   16   17 2
   190   18   19 2
   191   20   21 2
   192   22   31 1
   193   23   24 1
   194   25   26 1
   195   27   28 1
   196   29   30 1
   197   32   33 1
   198   34   35 1
   199   36   37 1
   200   38   39 1
   201   40   41 1
   202   42   51 2
   203   43   44 2
   204   43   52 1
   205   45   46 2
   206   45   53 1
   207   47   48 2
   208   47   54 1
   209   49   50 2
   210   49   55 1
   211   51   56 1
   212   57   58 1
   213   57   61 1
   214   58   59 1
   215   59   60 1
   216   60   61 1
   217   79   86 ar
   218   82   84 ar
   219   84   85 ar
   220   85   86 ar
   221  104  111 ar
   222  107  109 ar
   223  109  110 ar
   224  110  111 ar
   225  129  136 ar
   226  132  134 ar
   227  134  135 ar
   228  135  136 ar
   229  154  161 ar
   230  157  159 ar
   231  159  160 ar
   232  160  161 ar
   233  179  186 ar
   234  182  184 ar
   235  184  185 ar
   236  185  186 ar
@<TRIPOS>SUBSTRUCTURE
     1 RES1 1

@<TRIPOS>CRYSIN
  16.8830   17.7710   18.1570 107.0070 111.8460 103.6350   2 1

