# MOL2 file generated by ConQuest
# Please check atom types

@<TRIPOS>MOLECULE
MOKPIL
   102   114     2
SMALL
NO_CHARGES
****
Generated from CSD

@<TRIPOS>ATOM
      1 C1         6.2324    6.1671    5.6471 C.ar      1 RES1    0.0000
      2 C2         5.3534    7.3349    5.9809 C.ar      1 RES1    0.0000
      3 C3         4.4964    7.7803    4.9896 C.ar      1 RES1    0.0000
      4 C4         3.5273    8.7423    5.2031 C.ar      1 RES1    0.0000
      5 C5         3.3953    9.3052    6.4580 C.ar      1 RES1    0.0000
      6 C6         4.2912    8.9397    7.4422 C.ar      1 RES1    0.0000
      7 C7         5.3202    8.0155    7.2107 C.ar      1 RES1    0.0000
      8 C8         6.3429    7.8853    8.2241 C.2       1 RES1    0.0000
      9 C9         7.6064    7.4694    8.0817 C.2       1 RES1    0.0000
     10 C10        8.3126    6.8854    6.9351 C.ar      1 RES1    0.0000
     11 C11        9.7022    6.8854    7.0062 C.ar      1 RES1    0.0000
     12 C12       10.4599    6.1419    6.1192 C.ar      1 RES1    0.0000
     13 C13        9.8797    5.2849    5.2462 C.ar      1 RES1    0.0000
     14 C14        8.4601    5.1966    5.1820 C.ar      1 RES1    0.0000
     15 C15        7.6444    6.1209    5.9217 C.ar      1 RES1    0.0000
     16 C16        7.8580    4.1548    4.4202 C.ar      1 RES1    0.0000
     17 C17        6.4713    4.0456    4.4343 C.ar      1 RES1    0.0000
     18 C18        5.5821    2.9575    4.0343 C.ar      1 RES1    0.0000
     19 C19        5.8640    1.6594    3.6294 C.ar      1 RES1    0.0000
     20 C20        4.8009    0.7940    3.4650 C.ar      1 RES1    0.0000
     21 C21        3.4931    1.1805    3.6765 C.ar      1 RES1    0.0000
     22 C22        3.2123    2.4786    4.0464 C.ar      1 RES1    0.0000
     23 C23        4.2638    3.3608    4.2579 C.ar      1 RES1    0.0000
     24 C24        4.2115    4.7807    4.7169 C.3       1 RES1    0.0000
     25 C25        5.6864    5.1000    4.9735 C.ar      1 RES1    0.0000
     26 C26        8.6514    3.1550    3.6314 C.ar      1 RES1    0.0000
     27 C27        9.2719    2.0711    4.2659 C.ar      1 RES1    0.0000
     28 C28        9.9067    1.0965    3.4981 C.ar      1 RES1    0.0000
     29 C29       10.0023    1.2435    2.1380 C.ar      1 RES1    0.0000
     30 C30        9.4087    2.3232    1.5295 C.ar      1 RES1    0.0000
     31 C31        8.7253    3.2684    2.2753 C.ar      1 RES1    0.0000
     32 C32        5.6881    6.9695    1.0585 C.ar      2 RES2    0.0000
     33 C33        6.4652    7.9693    1.8613 C.ar      2 RES2    0.0000
     34 C34        7.5525    7.5072    2.5740 C.ar      2 RES2    0.0000
     35 C35        8.3815    8.3222    3.3237 C.ar      2 RES2    0.0000
     36 C36        8.0923    9.6875    3.3678 C.ar      2 RES2    0.0000
     37 C37        6.9855   10.1580    2.7133 C.ar      2 RES2    0.0000
     38 C38        6.1129    9.3178    2.0046 C.ar      2 RES2    0.0000
     39 C39        4.8435    9.8639    1.5827 C.2       2 RES2    0.0000
     40 C40        3.6808    9.2338    1.4604 C.2       2 RES2    0.0000
     41 C41        3.3697    7.8181    1.5656 C.ar      2 RES2    0.0000
     42 C42        2.0572    7.4820    1.8463 C.ar      2 RES2    0.0000
     43 C43        1.5764    6.1965    1.7160 C.ar      2 RES2    0.0000
     44 C44        2.3615    5.2428    1.1567 C.ar      2 RES2    0.0000
     45 C45        3.7124    5.4991    0.8049 C.ar      2 RES2    0.0000
     46 C46        4.2710    6.7720    1.1807 C.ar      2 RES2    0.0000
     47 C47        4.4870    4.5539    0.0662 C.ar      2 RES2    0.0000
     48 C48        5.7883    4.8690   -0.2355 C.ar      2 RES2    0.0000
     49 C49        6.8009    4.1632   -1.0324 C.ar      2 RES2    0.0000
     50 C50        6.7213    2.9407   -1.6989 C.ar      2 RES2    0.0000
     51 C51        7.8654    2.4870   -2.3334 C.ar      2 RES2    0.0000
     52 C52        9.0476    3.1802   -2.2843 C.ar      2 RES2    0.0000
     53 C53        9.1319    4.3984   -1.6348 C.ar      2 RES2    0.0000
     54 C54        7.9937    4.8690   -0.9893 C.ar      2 RES2    0.0000
     55 C55        7.8384    6.1209   -0.1844 C.3       2 RES2    0.0000
     56 C56        6.3789    6.0494    0.2967 C.ar      2 RES2    0.0000
     57 C57        3.8559    3.2810   -0.3729 C.ar      2 RES2    0.0000
     58 C58        3.9709    2.1341    0.3618 C.ar      2 RES2    0.0000
     59 C59        3.3988    0.9662   -0.0561 C.ar      2 RES2    0.0000
     60 C60        2.7336    0.8990   -1.2198 C.ar      2 RES2    0.0000
     61 C61        2.6036    2.0417   -1.9806 C.ar      2 RES2    0.0000
     62 C62        3.1601    3.2306   -1.5696 C.ar      2 RES2    0.0000
     63 H1         4.5749    7.4106    4.1396 H         1 RES1    0.0000
     64 H2         2.9694    9.0069    4.5074 H         1 RES1    0.0000
     65 H3         2.7191    9.9186    6.6344 H         1 RES1    0.0000
     66 H4         4.2095    9.3178    8.2882 H         1 RES1    0.0000
     67 H5         6.0892    8.1163    9.0881 H         1 RES1    0.0000
     68 H6         8.1311    7.5744    8.8435 H         1 RES1    0.0000
     69 H7        10.1273    7.3938    7.6597 H         1 RES1    0.0000
     70 H8        11.3855    6.2385    6.1212 H         1 RES1    0.0000
     71 H9        10.4059    4.7513    4.6929 H         1 RES1    0.0000
     72 H10        6.7381    1.3821    3.4740 H         1 RES1    0.0000
     73 H11        4.9727   -0.0798    3.2014 H         1 RES1    0.0000
     74 H12        2.8027    0.5671    3.5703 H         1 RES1    0.0000
     75 H13        2.3328    2.7601    4.1526 H         1 RES1    0.0000
     76 H14        3.6856    4.8690    5.5268 H         1 RES1    0.0000
     77 H15        3.8408    5.3605    4.0313 H         1 RES1    0.0000
     78 H16        9.2590    2.0039    5.1940 H         1 RES1    0.0000
     79 H17       10.2681    0.3445    3.9101 H         1 RES1    0.0000
     80 H18       10.4643    0.6133    1.6318 H         1 RES1    0.0000
     81 H19        9.4670    2.4198    0.6064 H         1 RES1    0.0000
     82 H20        8.3126    3.9825    1.8473 H         1 RES1    0.0000
     83 H21        7.7387    6.5956    2.5489 H         2 RES2    0.0000
     84 H22        9.1088    7.9693    3.7848 H         2 RES2    0.0000
     85 H23        8.6456   10.2714    3.8359 H         2 RES2    0.0000
     86 H24        6.8038   11.0738    2.7393 H         2 RES2    0.0000
     87 H25        4.8406   10.7714    1.3712 H         2 RES2    0.0000
     88 H26        2.9537    9.7841    1.2780 H         2 RES2    0.0000
     89 H27        1.4762    8.1499    2.1339 H         2 RES2    0.0000
     90 H28        0.7196    5.9822    2.0097 H         2 RES2    0.0000
     91 H29        2.0057    4.3984    0.9983 H         2 RES2    0.0000
     92 H30        5.9302    2.4534   -1.7170 H         2 RES2    0.0000
     93 H31        7.8297    1.6888   -2.8085 H         2 RES2    0.0000
     94 H32        9.8035    2.8231   -2.6922 H         2 RES2    0.0000
     95 H33        9.9245    4.8858   -1.6308 H         2 RES2    0.0000
     96 H34        7.9890    6.9064   -0.7307 H         2 RES2    0.0000
     97 H35        8.4540    6.1335    0.5653 H         2 RES2    0.0000
     98 H36        4.4455    2.1467    1.1617 H         2 RES2    0.0000
     99 H37        3.4719    0.2058    0.4721 H         2 RES2    0.0000
    100 H38        2.3646    0.0966   -1.5085 H         2 RES2    0.0000
    101 H39        2.1354    2.0081   -2.7834 H         2 RES2    0.0000
    102 H40        3.0675    3.9952   -2.0898 H         2 RES2    0.0000
@<TRIPOS>BOND
     1    1    2 1
     2    2    3 ar
     3    3    4 ar
     4    4    5 ar
     5    5    6 ar
     6    6    7 ar
     7    7    2 ar
     8    8    7 1
     9    9    8 2
    10   10    9 1
    11   11   10 ar
    12   12   11 ar
    13   13   12 ar
    14   14   13 ar
    15   15    1 ar
    16   16   14 ar
    17   17   16 ar
    18   18   17 1
    19   19   18 ar
    20   20   19 ar
    21   21   20 ar
    22   22   21 ar
    23   23   18 ar
    24   24   23 1
    25   25    1 ar
    26   26   16 1
    27   27   26 ar
    28   28   27 ar
    29   29   28 ar
    30   30   29 ar
    31   31   26 ar
    32   32   33 1
    33   33   34 ar
    34   34   35 ar
    35   35   36 ar
    36   36   37 ar
    37   37   38 ar
    38   38   33 ar
    39   39   38 1
    40   40   39 2
    41   41   40 1
    42   42   41 ar
    43   43   42 ar
    44   44   43 ar
    45   45   44 ar
    46   46   32 ar
    47   47   45 ar
    48   48   47 ar
    49   49   48 1
    50   50   49 ar
    51   51   50 ar
    52   52   51 ar
    53   53   52 ar
    54   54   49 ar
    55   55   54 1
    56   56   32 ar
    57   57   47 1
    58   58   57 ar
    59   59   58 ar
    60   60   59 ar
    61   61   60 ar
    62   62   57 ar
    63   63    3 1
    64   64    4 1
    65   65    5 1
    66   66    6 1
    67   67    8 1
    68   68    9 1
    69   69   11 1
    70   70   12 1
    71   71   13 1
    72   72   19 1
    73   73   20 1
    74   74   21 1
    75   75   22 1
    76   76   24 1
    77   77   24 1
    78   78   27 1
    79   79   28 1
    80   80   29 1
    81   81   30 1
    82   82   31 1
    83   83   34 1
    84   84   35 1
    85   85   36 1
    86   86   37 1
    87   87   39 1
    88   88   40 1
    89   89   42 1
    90   90   43 1
    91   91   44 1
    92   92   50 1
    93   93   51 1
    94   94   52 1
    95   95   53 1
    96   96   55 1
    97   97   55 1
    98   98   58 1
    99   99   59 1
   100  100   60 1
   101  101   61 1
   102  102   62 1
   103   10   15 ar
   104   14   15 ar
   105   17   25 ar
   106   22   23 ar
   107   24   25 1
   108   30   31 ar
   109   41   46 ar
   110   45   46 ar
   111   48   56 ar
   112   53   54 ar
   113   55   56 1
   114   61   62 ar
@<TRIPOS>SUBSTRUCTURE
     1 RES1 1
     2 RES2 32

@<TRIPOS>CRYSIN
   9.9300   42.0100   11.0150  90.0000 114.5000  90.0000 231 1

