# MOL2 file generated by ConQuest
# Please check atom types

@<TRIPOS>MOLECULE
MORROB
   100   114     2
SMALL
NO_CHARGES
****
Generated from CSD

@<TRIPOS>ATOM
      1 C1         4.6685    2.4552    5.0621 C.ar      1 RES1    0.0000
      2 H1         4.1450    2.2929    5.8390 H         1 RES1    0.0000
      3 C2         5.2438    1.4066    4.4042 C.ar      1 RES1    0.0000
      4 H2         5.1173    0.5187    4.7176 H         1 RES1    0.0000
      5 C3         6.0181    1.6459    3.2678 C.ar      1 RES1    0.0000
      6 H3         6.4260    0.9153    2.8179 H         1 RES1    0.0000
      7 C4         6.1996    2.9105    2.7935 C.ar      1 RES1    0.0000
      8 H4         6.7292    3.0456    2.0171 H         1 RES1    0.0000
      9 C5         5.6154    4.0204    3.4346 C.ar      1 RES1    0.0000
     10 C6         5.7770    5.3812    2.9329 C.ar      1 RES1    0.0000
     11 C7         6.5287    5.6516    1.7764 C.ar      1 RES1    0.0000
     12 H5         6.9594    4.9359    1.3231 H         1 RES1    0.0000
     13 C8         6.6515    6.9203    1.2926 C.ar      1 RES1    0.0000
     14 H6         7.1580    7.0770    0.5043 H         1 RES1    0.0000
     15 C9         6.0414    7.9900    1.9436 C.ar      1 RES1    0.0000
     16 H7         6.1227    8.8690    1.5926 H         1 RES1    0.0000
     17 C10        5.3238    7.7737    3.0902 C.ar      1 RES1    0.0000
     18 H8         4.9207    8.5081    3.5389 H         1 RES1    0.0000
     19 C11        5.1789    6.4782    3.6067 C.ar      1 RES1    0.0000
     20 C12        4.4485    6.1647    4.7865 C.ar      1 RES1    0.0000
     21 C13        3.6516    6.7908    5.9195 C.3       1 RES1    0.0000
     22 H9         2.7943    7.2047    5.6132 H         1 RES1    0.0000
     23 C14        4.3809    7.6334    6.9963 C.3       1 RES1    0.0000
     24 H10        4.4998    8.5861    6.7151 H         1 RES1    0.0000
     25 C15        3.5234    7.5071    8.2434 C.ar      1 RES1    0.0000
     26 C16        2.9045    8.5345    8.9280 C.ar      1 RES1    0.0000
     27 H11        2.9925    9.4312    8.6268 H         1 RES1    0.0000
     28 C17        2.1505    8.2462   10.0637 C.ar      1 RES1    0.0000
     29 H12        1.7130    8.9497   10.5280 H         1 RES1    0.0000
     30 C18        2.0334    6.9547   10.5185 C.ar      1 RES1    0.0000
     31 H13        1.5207    6.7671   11.2957 H         1 RES1    0.0000
     32 C19        2.6686    5.9237    9.8358 C.ar      1 RES1    0.0000
     33 H14        2.6006    5.0307   10.1547 H         1 RES1    0.0000
     34 C20        3.3985    6.1947    8.6953 C.ar      1 RES1    0.0000
     35 C21        4.1245    5.1817    7.8346 C.3       1 RES1    0.0000
     36 H15        4.0512    4.2540    8.1993 H         1 RES1    0.0000
     37 C22        3.4741    5.3144    6.4368 C.3       1 RES1    0.0000
     38 H16        2.5286    4.9915    6.4050 H         1 RES1    0.0000
     39 C23        4.2886    4.9100    5.2345 C.ar      1 RES1    0.0000
     40 C24        4.8424    3.7657    4.6042 C.ar      1 RES1    0.0000
     41 C25        5.5567    5.6401    7.7241 C.ar      1 RES1    0.0000
     42 C26        5.6976    6.9600    7.3015 C.ar      1 RES1    0.0000
     43 C27        6.9505    7.5372    7.2177 C.ar      1 RES1    0.0000
     44 H17        7.0456    8.4347    6.9228 H         1 RES1    0.0000
     45 C28        8.0707    6.7927    7.5686 C.ar      1 RES1    0.0000
     46 H18        8.9322    7.1910    7.5415 H         1 RES1    0.0000
     47 C29        7.9338    5.4791    7.9550 C.ar      1 RES1    0.0000
     48 H19        8.7043    4.9702    8.1782 H         1 RES1    0.0000
     49 C30        6.6770    4.8903    8.0218 C.ar      1 RES1    0.0000
     50 H20        6.5891    3.9781    8.2716 H         1 RES1    0.0000
     51 C31        1.6260    1.1210    3.2752 C.ar      2 RES2    0.0000
     52 H21        2.0072    0.4968    2.6689 H         2 RES2    0.0000
     53 C32        1.0099    0.6731    4.4103 C.ar      2 RES2    0.0000
     54 H22        0.9630   -0.2584    4.5896 H         2 RES2    0.0000
     55 C33        0.4515    1.5834    5.3030 C.ar      2 RES2    0.0000
     56 H23        0.0453    1.2695    6.1024 H         2 RES2    0.0000
     57 C34        0.4830    2.9281    5.0382 C.ar      2 RES2    0.0000
     58 H24        0.0835    3.5331    5.6524 H         2 RES2    0.0000
     59 C35        1.0952    3.4291    3.8757 C.ar      2 RES2    0.0000
     60 C36        1.1308    4.8588    3.5725 C.ar      2 RES2    0.0000
     61 C37        0.4526    5.7976    4.3598 C.ar      2 RES2    0.0000
     62 H25       -0.0687    5.4980    5.0954 H         2 RES2    0.0000
     63 C38        0.5262    7.1378    4.0905 C.ar      2 RES2    0.0000
     64 H26        0.0600    7.7559    4.6408 H         2 RES2    0.0000
     65 C39        1.2794    7.6011    3.0160 C.ar      2 RES2    0.0000
     66 H27        1.3490    8.5348    2.8540 H         2 RES2    0.0000
     67 C40        1.9199    6.7151    2.1920 C.ar      2 RES2    0.0000
     68 H28        2.4154    7.0358    1.4466 H         2 RES2    0.0000
     69 C41        1.8490    5.3361    2.4423 C.ar      2 RES2    0.0000
     70 C42        2.4586    4.3501    1.6307 C.ar      2 RES2    0.0000
     71 C43        3.2771    4.1881    0.3640 C.3       2 RES2    0.0000
     72 H29        4.2006    4.5646    0.4365 H         2 RES2    0.0000
     73 C44        2.5990    4.4806   -0.9951 C.3       2 RES2    0.0000
     74 H30        2.5993    5.4559   -1.2148 H         2 RES2    0.0000
     75 C45        3.3720    3.6645   -2.0115 C.ar      2 RES2    0.0000
     76 C46        4.0201    4.1393   -3.1358 C.ar      2 RES2    0.0000
     77 H31        4.0088    5.0677   -3.3357 H         2 RES2    0.0000
     78 C47        4.6895    3.2541   -3.9729 C.ar      2 RES2    0.0000
     79 H32        5.1368    3.5771   -4.7462 H         2 RES2    0.0000
     80 C48        4.7041    1.9120   -3.6807 C.ar      2 RES2    0.0000
     81 H33        5.1764    1.3124   -4.2449 H         2 RES2    0.0000
     82 C49        4.0328    1.4253   -2.5647 C.ar      2 RES2    0.0000
     83 H34        4.0387    0.4952   -2.3723 H         2 RES2    0.0000
     84 C50        3.3594    2.2978   -1.7382 C.ar      2 RES2    0.0000
     85 C51        2.5351    1.9228   -0.5267 C.3       2 RES2    0.0000
     86 H35        2.4913    0.9327   -0.3914 H         2 RES2    0.0000
     87 C52        3.2064    2.6446    0.6646 C.3       2 RES2    0.0000
     88 H36        4.0938    2.2533    0.9092 H         2 RES2    0.0000
     89 C53        2.3781    3.0343    1.8715 C.ar      2 RES2    0.0000
     90 C54        1.7006    2.4917    2.9979 C.ar      2 RES2    0.0000
     91 C55        1.1713    2.5300   -0.7349 C.ar      2 RES2    0.0000
     92 C56        1.2019    3.9019   -0.9640 C.ar      2 RES2    0.0000
     93 C57        0.0263    4.5885   -1.1947 C.ar      2 RES2    0.0000
     94 H37        0.0413    5.5275   -1.3382 H         2 RES2    0.0000
     95 C58       -1.1748    3.8999   -1.2163 C.ar      2 RES2    0.0000
     96 H38       -1.9839    4.3697   -1.3803 H         2 RES2    0.0000
     97 C59       -1.2048    2.5463   -1.0022 C.ar      2 RES2    0.0000
     98 H39       -2.0331    2.0817   -1.0176 H         2 RES2    0.0000
     99 C60       -0.0274    1.8552   -0.7635 C.ar      2 RES2    0.0000
    100 H40       -0.0478    0.9161   -0.6202 H         2 RES2    0.0000
@<TRIPOS>BOND
     1    1    2 1
     2    3    1 ar
     3    4    3 1
     4    5    3 ar
     5    6    5 1
     6    7    5 ar
     7    8    7 1
     8    9    7 ar
     9   10    9 ar
    10   11   10 ar
    11   12   11 1
    12   13   11 ar
    13   14   13 1
    14   15   13 ar
    15   16   15 1
    16   17   15 ar
    17   18   17 1
    18   19   10 ar
    19   20   19 ar
    20   21   20 1
    21   22   21 1
    22   23   21 1
    23   24   23 1
    24   25   23 1
    25   26   25 ar
    26   27   26 1
    27   28   26 ar
    28   29   28 1
    29   30   28 ar
    30   31   30 1
    31   32   30 ar
    32   33   32 1
    33   34   25 ar
    34   35   34 1
    35   36   35 1
    36   37   21 1
    37   38   37 1
    38   39   20 ar
    39   40    1 ar
    40   41   35 1
    41   42   23 1
    42   43   42 ar
    43   44   43 1
    44   45   43 ar
    45   46   45 1
    46   47   45 ar
    47   48   47 1
    48   49   41 ar
    49   50   49 1
    50   51   52 1
    51   53   51 ar
    52   54   53 1
    53   55   53 ar
    54   56   55 1
    55   57   55 ar
    56   58   57 1
    57   59   57 ar
    58   60   59 ar
    59   61   60 ar
    60   62   61 1
    61   63   61 ar
    62   64   63 1
    63   65   63 ar
    64   66   65 1
    65   67   65 ar
    66   68   67 1
    67   69   60 ar
    68   70   69 ar
    69   71   70 1
    70   72   71 1
    71   73   71 1
    72   74   73 1
    73   75   73 1
    74   76   75 ar
    75   77   76 1
    76   78   76 ar
    77   79   78 1
    78   80   78 ar
    79   81   80 1
    80   82   80 ar
    81   83   82 1
    82   84   75 ar
    83   85   84 1
    84   86   85 1
    85   87   71 1
    86   88   87 1
    87   89   70 ar
    88   90   51 ar
    89   91   85 1
    90   92   73 1
    91   93   92 ar
    92   94   93 1
    93   95   93 ar
    94   96   95 1
    95   97   95 ar
    96   98   97 1
    97   99   91 ar
    98  100   99 1
    99    9   40 ar
   100   17   19 ar
   101   32   34 ar
   102   35   37 1
   103   37   39 1
   104   39   40 ar
   105   41   42 ar
   106   47   49 ar
   107   59   90 ar
   108   67   69 ar
   109   82   84 ar
   110   85   87 1
   111   87   89 1
   112   89   90 ar
   113   91   92 ar
   114   97   99 ar
@<TRIPOS>SUBSTRUCTURE
     1 RES1 1
     2 RES2 51

@<TRIPOS>CRYSIN
   8.3424   15.5130   15.5598  75.5240  84.9590  78.8130   2 1

