# MOL2 file generated by ConQuest
# Please check atom types

@<TRIPOS>MOLECULE
MORRIV
    44    50     1
SMALL
NO_CHARGES
****
Generated from CSD

@<TRIPOS>ATOM
      1 C1         4.6753    2.0623    3.6760 C.ar      1 RES1    0.0000
      2 H1         5.0010    1.1729    3.6058 H         1 RES1    0.0000
      3 C2         3.9408    2.6080    2.6625 C.ar      1 RES1    0.0000
      4 H2         3.7913    2.1024    1.8726 H         1 RES1    0.0000
      5 C3         3.4030    3.8985    2.7617 C.ar      1 RES1    0.0000
      6 H3         2.8879    4.2494    2.0450 H         1 RES1    0.0000
      7 C4         3.6154    4.6692    3.8955 C.ar      1 RES1    0.0000
      8 H4         3.2391    5.5380    3.9677 H         1 RES1    0.0000
      9 C5         4.4018    4.1380    4.9410 C.ar      1 RES1    0.0000
     10 C6         4.6583    4.9199    6.1560 C.ar      1 RES1    0.0000
     11 H5         4.2950    5.7947    6.2142 H         1 RES1    0.0000
     12 C7         5.3763    4.4632    7.1835 C.ar      1 RES1    0.0000
     13 H6         5.5283    4.9887    7.9604 H         1 RES1    0.0000
     14 C8         5.9022    3.1465    7.0552 C.ar      1 RES1    0.0000
     15 C9         6.7210    2.0750    7.7489 C.3       1 RES1    0.0000
     16 H7         7.6700    2.3456    7.9083 H         1 RES1    0.0000
     17 C10        6.0956    1.3055    8.9428 C.3       1 RES1    0.0000
     18 H8         6.1719    1.8162    9.7999 H         1 RES1    0.0000
     19 C11        6.8538   -0.0084    8.9929 C.ar      1 RES1    0.0000
     20 C12        7.6083   -0.4731   10.0585 C.ar      1 RES1    0.0000
     21 H9         7.6927    0.0487   10.8485 H         1 RES1    0.0000
     22 C13        8.2404   -1.7107    9.9623 C.ar      1 RES1    0.0000
     23 H10        8.7569   -2.0356   10.6901 H         1 RES1    0.0000
     24 C14        8.1221   -2.4629    8.8175 C.ar      1 RES1    0.0000
     25 H11        8.5612   -3.3038    8.7614 H         1 RES1    0.0000
     26 C15        7.3707   -2.0109    7.7499 C.ar      1 RES1    0.0000
     27 H12        7.2957   -2.5371    6.9620 H         1 RES1    0.0000
     28 C16        6.7248   -0.7857    7.8331 C.ar      1 RES1    0.0000
     29 C17        5.8332   -0.1529    6.7755 C.3       1 RES1    0.0000
     30 H13        5.7146   -0.7332    5.9706 H         1 RES1    0.0000
     31 C18        6.5308    1.2188    6.4407 C.3       1 RES1    0.0000
     32 H14        7.3825    1.1021    5.9295 H         1 RES1    0.0000
     33 C19        5.6985    2.4007    5.9375 C.ar      1 RES1    0.0000
     34 C20        4.9453    2.8326    4.8308 C.ar      1 RES1    0.0000
     35 C21        4.5148    0.1823    7.4582 C.ar      1 RES1    0.0000
     36 C22        4.6597    0.9666    8.6090 C.ar      1 RES1    0.0000
     37 C23        3.5318    1.3355    9.3378 C.ar      1 RES1    0.0000
     38 H15        3.6215    1.8764   10.1137 H         1 RES1    0.0000
     39 C24        2.2780    0.9108    8.9268 C.ar      1 RES1    0.0000
     40 H16        1.5092    1.1658    9.4240 H         1 RES1    0.0000
     41 C25        2.1340    0.1214    7.8050 C.ar      1 RES1    0.0000
     42 H17        1.2705   -0.1747    7.5414 H         1 RES1    0.0000
     43 C26        3.2572   -0.2421    7.0552 C.ar      1 RES1    0.0000
     44 H18        3.1589   -0.7751    6.2753 H         1 RES1    0.0000
@<TRIPOS>BOND
     1    1    2 1
     2    3    1 ar
     3    4    3 1
     4    5    3 ar
     5    6    5 1
     6    7    5 ar
     7    8    7 1
     8    9    7 ar
     9   10    9 ar
    10   11   10 1
    11   12   10 ar
    12   13   12 1
    13   14   12 ar
    14   15   14 1
    15   16   15 1
    16   17   15 1
    17   18   17 1
    18   19   17 1
    19   20   19 ar
    20   21   20 1
    21   22   20 ar
    22   23   22 1
    23   24   22 ar
    24   25   24 1
    25   26   24 ar
    26   27   26 1
    27   28   19 ar
    28   29   28 1
    29   30   29 1
    30   31   15 1
    31   32   31 1
    32   33   14 ar
    33   34    1 ar
    34   35   29 1
    35   36   17 1
    36   37   36 ar
    37   38   37 1
    38   39   37 ar
    39   40   39 1
    40   41   39 ar
    41   42   41 1
    42   43   35 ar
    43   44   43 1
    44    9   34 ar
    45   26   28 ar
    46   29   31 1
    47   31   33 1
    48   33   34 ar
    49   35   36 ar
    50   41   43 ar
@<TRIPOS>SUBSTRUCTURE
     1 RES1 1

@<TRIPOS>CRYSIN
   8.5159   10.1940   10.4954  99.8010 102.5650  97.6580   2 1

