# MOL2 file generated by ConQuest
# Please check atom types

@<TRIPOS>MOLECULE
MOSZAV
    69    75     1
SMALL
NO_CHARGES
****
Generated from CSD

@<TRIPOS>ATOM
      1 C1         2.0945    8.7699    3.8856 C.ar      1 RES1    0.0000
      2 C2         2.6406    9.3587    5.0253 C.ar      1 RES1    0.0000
      3 H1         2.0983    9.8677    5.5835 H         1 RES1    0.0000
      4 C3         3.9800    9.1966    5.3393 C.ar      1 RES1    0.0000
      5 C4         4.7699    8.4501    4.4841 C.ar      1 RES1    0.0000
      6 H2         5.6729    8.3441    4.6811 H         1 RES1    0.0000
      7 C5         4.2525    7.8520    3.3327 C.ar      1 RES1    0.0000
      8 C6         2.9146    8.0081    3.0698 C.ar      1 RES1    0.0000
      9 H3         2.5481    7.5908    2.3240 H         1 RES1    0.0000
     10 C7         0.6541    8.9320    3.5709 C.ar      1 RES1    0.0000
     11 C8        -0.2842    8.5375    4.4721 C.ar      1 RES1    0.0000
     12 H4        -0.0126    8.1999    5.2949 H         1 RES1    0.0000
     13 C9        -1.6534    8.6300    4.1885 C.ar      1 RES1    0.0000
     14 H5        -2.2698    8.3364    4.8205 H         1 RES1    0.0000
     15 C10       -2.1029    9.1390    3.0107 C.ar      1 RES1    0.0000
     16 C11       -1.1629    9.5809    2.0470 C.ar      1 RES1    0.0000
     17 C12        0.2142    9.4986    2.3240 C.ar      1 RES1    0.0000
     18 C13        1.1086   10.0051    1.3834 C.ar      1 RES1    0.0000
     19 H6         2.0190    9.9830    1.5709 H         1 RES1    0.0000
     20 C14        0.6910   10.5285    0.2040 C.ar      1 RES1    0.0000
     21 H7         1.3141   10.8339   -0.4147 H         1 RES1    0.0000
     22 C15       -0.6635   10.6099   -0.0796 C.ar      1 RES1    0.0000
     23 H8        -0.9496   10.9798   -0.8825 H         1 RES1    0.0000
     24 C16       -1.5626   10.1518    0.8128 C.ar      1 RES1    0.0000
     25 H9        -2.4698   10.2112    0.6138 H         1 RES1    0.0000
     26 C17       -3.5908    9.2153    2.7204 C.3       1 RES1    0.0000
     27 H10       -3.8072    8.6198    1.9989 H         1 RES1    0.0000
     28 H11       -3.8233   10.1137    2.4749 H         1 RES1    0.0000
     29 H12       -4.0833    8.9608    3.5050 H         1 RES1    0.0000
     30 C18        4.6333    9.8507    6.5184 C.ar      1 RES1    0.0000
     31 C19        5.7717   10.5624    6.3227 C.ar      1 RES1    0.0000
     32 H13        6.0914   10.6693    5.4558 H         1 RES1    0.0000
     33 C20        6.4841   11.1444    7.3883 C.ar      1 RES1    0.0000
     34 H14        7.2704   11.6093    7.2141 H         1 RES1    0.0000
     35 C21        6.0324   11.0349    8.6777 C.ar      1 RES1    0.0000
     36 C22        4.8470   10.3139    8.9121 C.ar      1 RES1    0.0000
     37 C23        4.1490    9.6954    7.8360 C.ar      1 RES1    0.0000
     38 C24        3.0237    8.8963    8.1480 C.ar      1 RES1    0.0000
     39 H15        2.5742    8.4527    7.4662 H         1 RES1    0.0000
     40 C25        2.5899    8.7648    9.4220 C.ar      1 RES1    0.0000
     41 H16        1.8523    8.2304    9.6094 H         1 RES1    0.0000
     42 C26        3.2544    9.4359   10.4620 C.ar      1 RES1    0.0000
     43 H17        2.9300    9.3722   11.3312 H         1 RES1    0.0000
     44 C27        4.3390   10.1586   10.2182 C.ar      1 RES1    0.0000
     45 H18        4.7766   10.5743   10.9265 H         1 RES1    0.0000
     46 C28        6.8053   11.6754    9.7886 C.3       1 RES1    0.0000
     47 H19        7.5038   12.2192    9.4203 H         1 RES1    0.0000
     48 H20        7.1892   10.9942   10.3459 H         1 RES1    0.0000
     49 H21        6.2168   12.2226   10.3127 H         1 RES1    0.0000
     50 C29        5.1442    7.1437    2.3920 C.ar      1 RES1    0.0000
     51 C30        5.0635    7.4550    1.0557 C.ar      1 RES1    0.0000
     52 H22        4.4024    8.0395    0.7614 H         1 RES1    0.0000
     53 C31        5.9618    6.9062    0.1272 C.ar      1 RES1    0.0000
     54 H23        5.8668    7.1242   -0.7713 H         1 RES1    0.0000
     55 C32        6.9591    6.0731    0.4963 C.ar      1 RES1    0.0000
     56 C33        7.0897    5.7194    1.8683 C.ar      1 RES1    0.0000
     57 C34        6.1547    6.2275    2.8062 C.ar      1 RES1    0.0000
     58 C35        6.2341    5.7592    4.1425 C.ar      1 RES1    0.0000
     59 H24        5.5995    6.0341    4.7657 H         1 RES1    0.0000
     60 C36        7.2292    4.9118    4.5235 C.ar      1 RES1    0.0000
     61 H25        7.2692    4.6225    5.4077 H         1 RES1    0.0000
     62 C37        8.1754    4.4749    3.6261 C.ar      1 RES1    0.0000
     63 H26        8.8565    3.9074    3.9048 H         1 RES1    0.0000
     64 C38        8.1103    4.8744    2.3290 C.ar      1 RES1    0.0000
     65 H27        8.7589    4.5809    1.7318 H         1 RES1    0.0000
     66 C39        7.9113    5.5141   -0.5156 C.3       1 RES1    0.0000
     67 H28        7.6784    5.8381   -1.3884 H         1 RES1    0.0000
     68 H29        7.8614    4.5555   -0.5059 H         1 RES1    0.0000
     69 H30        8.8058    5.7906   -0.3002 H         1 RES1    0.0000
@<TRIPOS>BOND
     1    1    2 ar
     2    2    3 1
     3    4    2 ar
     4    5    4 ar
     5    6    5 1
     6    7    5 ar
     7    8    1 ar
     8    9    8 1
     9   10    1 1
    10   11   10 ar
    11   12   11 1
    12   13   11 ar
    13   14   13 1
    14   15   13 ar
    15   16   15 ar
    16   17   10 ar
    17   18   17 ar
    18   19   18 1
    19   20   18 ar
    20   21   20 1
    21   22   20 ar
    22   23   22 1
    23   24   16 ar
    24   25   24 1
    25   26   15 1
    26   27   26 1
    27   28   26 1
    28   29   26 1
    29   30    4 1
    30   31   30 ar
    31   32   31 1
    32   33   31 ar
    33   34   33 1
    34   35   33 ar
    35   36   35 ar
    36   37   30 ar
    37   38   37 ar
    38   39   38 1
    39   40   38 ar
    40   41   40 1
    41   42   40 ar
    42   43   42 1
    43   44   36 ar
    44   45   44 1
    45   46   35 1
    46   47   46 1
    47   48   46 1
    48   49   46 1
    49   50    7 1
    50   51   50 ar
    51   52   51 1
    52   53   51 ar
    53   54   53 1
    54   55   53 ar
    55   56   55 ar
    56   57   50 ar
    57   58   57 ar
    58   59   58 1
    59   60   58 ar
    60   61   60 1
    61   62   60 ar
    62   63   62 1
    63   64   56 ar
    64   65   64 1
    65   66   55 1
    66   67   66 1
    67   68   66 1
    68   69   66 1
    69    7    8 ar
    70   16   17 ar
    71   22   24 ar
    72   36   37 ar
    73   42   44 ar
    74   56   57 ar
    75   62   64 ar
@<TRIPOS>SUBSTRUCTURE
     1 RES1 1

@<TRIPOS>CRYSIN
  18.9270    8.4832   16.7260  90.0000  97.3660  90.0000  14 1

