# MOL2 file generated by ConQuest
# Please check atom types

@<TRIPOS>MOLECULE
MOVNER
   120   132     2
SMALL
NO_CHARGES
****
Generated from CSD

@<TRIPOS>ATOM
      1 C1        10.3697   11.6566    1.0983 C.ar      1 RES1    0.0000
      2 C2        11.4474   11.4210    0.2132 C.ar      1 RES1    0.0000
      3 H1        12.0866   12.0849    0.0916 H         1 RES1    0.0000
      4 C3        11.5730   10.2636   -0.4556 C.ar      1 RES1    0.0000
      5 H2        12.2788   10.1504   -1.0521 H         1 RES1    0.0000
      6 C4        10.6414    9.2104   -0.2638 C.ar      1 RES1    0.0000
      7 C5        10.7650    7.9685   -0.9302 C.ar      1 RES1    0.0000
      8 H3        11.4628    7.8383   -1.5324 H         1 RES1    0.0000
      9 C6         9.8813    6.9674   -0.7038 C.ar      1 RES1    0.0000
     10 H4         9.9905    6.1459   -1.1281 H         1 RES1    0.0000
     11 C7         8.8145    7.1653    0.1595 C.ar      1 RES1    0.0000
     12 H5         8.2021    6.4792    0.2972 H         1 RES1    0.0000
     13 C8         8.6530    8.3486    0.8061 C.ar      1 RES1    0.0000
     14 H6         7.9369    8.4554    1.3890 H         1 RES1    0.0000
     15 C9         9.5540    9.4226    0.6097 C.ar      1 RES1    0.0000
     16 C10        9.4208   10.6633    1.2828 C.ar      1 RES1    0.0000
     17 C11        8.2490   10.8755    2.1908 C.ar      1 RES1    0.0000
     18 C12        8.4001   10.7245    3.5853 C.ar      1 RES1    0.0000
     19 C13        9.6429   10.4459    4.1911 C.ar      1 RES1    0.0000
     20 H7        10.3902   10.3066    3.6557 H         1 RES1    0.0000
     21 C14        9.7669   10.3795    5.5405 C.ar      1 RES1    0.0000
     22 H8        10.5979   10.1933    5.9154 H         1 RES1    0.0000
     23 C15        8.6754   10.5852    6.3663 C.ar      1 RES1    0.0000
     24 H9         8.7817   10.5774    7.2906 H         1 RES1    0.0000
     25 C16        7.4496   10.7961    5.8252 C.ar      1 RES1    0.0000
     26 H10        6.7133   10.8846    6.3870 H         1 RES1    0.0000
     27 C17        7.2679   10.8859    4.4336 C.ar      1 RES1    0.0000
     28 C18        6.0102   11.1489    3.8435 C.ar      1 RES1    0.0000
     29 H11        5.2596   11.2322    4.3847 H         1 RES1    0.0000
     30 C19        5.8838   11.2804    2.5161 C.ar      1 RES1    0.0000
     31 H12        5.0446   11.4457    2.1509 H         1 RES1    0.0000
     32 C20        7.0163   11.1723    1.6559 C.ar      1 RES1    0.0000
     33 C21        6.8415   11.4392    0.2581 C.1       1 RES1    0.0000
     34 C22        6.6184   11.7581   -0.8769 C.1       1 RES1    0.0000
     35 C23        6.3230   12.2255   -2.2012 C.ar      1 RES1    0.0000
     36 C24        5.6877   11.4157   -3.1279 C.ar      1 RES1    0.0000
     37 H13        5.4554   10.5461   -2.8921 H         1 RES1    0.0000
     38 C25        5.3948   11.8714   -4.3847 C.ar      1 RES1    0.0000
     39 H14        4.9705   11.3090   -4.9928 H         1 RES1    0.0000
     40 C26        5.7223   13.1472   -4.7558 C.ar      1 RES1    0.0000
     41 H15        5.5327   13.4479   -5.6148 H         1 RES1    0.0000
     42 C27        6.3316   13.9804   -3.8514 C.ar      1 RES1    0.0000
     43 H16        6.5249   14.8578   -4.0928 H         1 RES1    0.0000
     44 C28        6.6631   13.5299   -2.5804 C.ar      1 RES1    0.0000
     45 C29        7.3366   14.3774   -1.6573 C.1       1 RES1    0.0000
     46 C30        7.9229   15.0257   -0.8403 C.1       1 RES1    0.0000
     47 C31        8.6163   15.6610    0.1501 C.1       1 RES1    0.0000
     48 C32        9.2300   16.0984    1.0786 C.1       1 RES1    0.0000
     49 C33        9.9483   16.3601    2.2815 C.ar      1 RES1    0.0000
     50 C34       10.0434   17.6203    2.8278 C.ar      1 RES1    0.0000
     51 H17        9.6540   18.3441    2.3910 H         1 RES1    0.0000
     52 C35       10.7100   17.8168    4.0116 C.ar      1 RES1    0.0000
     53 H18       10.7677   18.6695    4.3795 H         1 RES1    0.0000
     54 C36       11.2788   16.7689    4.6421 C.ar      1 RES1    0.0000
     55 H19       11.7294   16.9095    5.4438 H         1 RES1    0.0000
     56 C37       11.2054   15.4983    4.1273 C.ar      1 RES1    0.0000
     57 H20       11.6111   14.7914    4.5748 H         1 RES1    0.0000
     58 C38       10.5299   15.2679    2.9406 C.ar      1 RES1    0.0000
     59 C39       10.4389   13.9465    2.3556 C.1       1 RES1    0.0000
     60 C40       10.3374   12.8985    1.8024 C.1       1 RES1    0.0000
     61 C41        1.4204   13.8853    7.1589 C.ar      2 RES2    0.0000
     62 C42        0.5820   14.9815    7.4836 C.ar      2 RES2    0.0000
     63 H21        0.8198   15.8420    7.2198 H         2 RES2    0.0000
     64 C43       -0.5499   14.7784    8.1700 C.ar      2 RES2    0.0000
     65 H22       -1.0921   15.5074    8.3721 H         2 RES2    0.0000
     66 C44       -0.9466   13.4922    8.5974 C.ar      2 RES2    0.0000
     67 C45       -2.1367   13.2305    9.3102 C.ar      2 RES2    0.0000
     68 H23       -2.7083   13.9400    9.5002 H         2 RES2    0.0000
     69 C46       -2.4732   12.0185    9.7196 C.ar      2 RES2    0.0000
     70 H24       -3.2662   11.8961   10.1913 H         2 RES2    0.0000
     71 C47       -1.6334   10.9015    9.4470 C.ar      2 RES2    0.0000
     72 H25       -1.8680   10.0501    9.7386 H         2 RES2    0.0000
     73 C48       -0.4745   11.1033    8.7461 C.ar      2 RES2    0.0000
     74 H26        0.0747   10.3756    8.5604 H         2 RES2    0.0000
     75 C49       -0.0933   12.3765    8.3021 C.ar      2 RES2    0.0000
     76 C50        1.0941   12.6082    7.5489 C.ar      2 RES2    0.0000
     77 C51        1.9172   11.4574    7.0943 C.ar      2 RES2    0.0000
     78 C52        1.8149   11.0356    5.7316 C.ar      2 RES2    0.0000
     79 C53        0.9378   11.6553    4.8076 C.ar      2 RES2    0.0000
     80 H27        0.3713   12.3335    5.0982 H         2 RES2    0.0000
     81 C54        0.9103   11.2778    3.5178 C.ar      2 RES2    0.0000
     82 H28        0.3353   11.7100    2.9283 H         2 RES2    0.0000
     83 C55        1.7312   10.2454    3.0439 C.ar      2 RES2    0.0000
     84 H29        1.7054    9.9955    2.1492 H         2 RES2    0.0000
     85 C56        2.5595    9.6192    3.9060 C.ar      2 RES2    0.0000
     86 H30        3.1067    8.9358    3.5917 H         2 RES2    0.0000
     87 C57        2.6192    9.9746    5.2632 C.ar      2 RES2    0.0000
     88 C58        3.4715    9.3198    6.1763 C.ar      2 RES2    0.0000
     89 H31        3.9854    8.6012    5.8878 H         2 RES2    0.0000
     90 C59        3.5492    9.7182    7.4564 C.ar      2 RES2    0.0000
     91 H32        4.1099    9.2599    8.0404 H         2 RES2    0.0000
     92 C60        2.8103   10.8065    7.9326 C.ar      2 RES2    0.0000
     93 C61        3.0423   11.2530    9.2729 C.1       2 RES2    0.0000
     94 C62        3.3967   11.5303   10.3846 C.1       2 RES2    0.0000
     95 C63        3.9359   11.9248   11.6586 C.ar      2 RES2    0.0000
     96 C64        3.4269   11.4353   12.8415 C.ar      2 RES2    0.0000
     97 H33        2.7119   10.8403   12.8259 H         2 RES2    0.0000
     98 C65        3.9733   11.8245   14.0525 C.ar      2 RES2    0.0000
     99 H34        3.6393   11.4743   14.8472 H         2 RES2    0.0000
    100 C66        4.9888   12.7124   14.0819 C.ar      2 RES2    0.0000
    101 H35        5.3324   12.9871   14.9008 H         2 RES2    0.0000
    102 C67        5.5282   13.2214   12.9192 C.ar      2 RES2    0.0000
    103 H36        6.2277   13.8332   12.9589 H         2 RES2    0.0000
    104 C68        5.0248   12.8191   11.6864 C.ar      2 RES2    0.0000
    105 C69        5.5622   13.3034   10.4660 C.1       2 RES2    0.0000
    106 C70        5.8719   13.5911    9.3517 C.1       2 RES2    0.0000
    107 C71        6.0722   13.8996    8.0300 C.1       2 RES2    0.0000
    108 C72        6.1178   14.1040    6.8518 C.1       2 RES2    0.0000
    109 C73        6.0068   14.2954    5.4477 C.ar      2 RES2    0.0000
    110 C74        7.1190   14.2928    4.6041 C.ar      2 RES2    0.0000
    111 H37        7.9707   14.2082    4.9687 H         2 RES2    0.0000
    112 C75        6.9815   14.4100    3.2618 C.ar      2 RES2    0.0000
    113 H38        7.7349   14.3904    2.7193 H         2 RES2    0.0000
    114 C76        5.7464   14.5571    2.7003 C.ar      2 RES2    0.0000
    115 H39        5.6619   14.6430    1.7777 H         2 RES2    0.0000
    116 C77        4.6177   14.5792    3.5041 C.ar      2 RES2    0.0000
    117 H40        3.7787   14.7042    3.1236 H         2 RES2    0.0000
    118 C78        4.7378   14.4152    4.8729 C.ar      2 RES2    0.0000
    119 C79        3.5638   14.3123    5.6908 C.1       2 RES2    0.0000
    120 C80        2.5964   14.1379    6.3653 C.1       2 RES2    0.0000
@<TRIPOS>BOND
     1    1    2 ar
     2    2    3 1
     3    4    2 ar
     4    5    4 1
     5    6    4 ar
     6    7    6 ar
     7    8    7 1
     8    9    7 ar
     9   10    9 1
    10   11    9 ar
    11   12   11 1
    12   13   11 ar
    13   14   13 1
    14   15    6 ar
    15   16    1 ar
    16   17   16 1
    17   18   17 ar
    18   19   18 ar
    19   20   19 1
    20   21   19 ar
    21   22   21 1
    22   23   21 ar
    23   24   23 1
    24   25   23 ar
    25   26   25 1
    26   27   18 ar
    27   28   27 ar
    28   29   28 1
    29   30   28 ar
    30   31   30 1
    31   32   17 ar
    32   33   32 1
    33   34   33 3
    34   35   34 1
    35   36   35 ar
    36   37   36 1
    37   38   36 ar
    38   39   38 1
    39   40   38 ar
    40   41   40 1
    41   42   40 ar
    42   43   42 1
    43   44   35 ar
    44   45   44 1
    45   46   45 3
    46   47   46 1
    47   48   47 3
    48   49   48 1
    49   50   49 ar
    50   51   50 1
    51   52   50 ar
    52   53   52 1
    53   54   52 ar
    54   55   54 1
    55   56   54 ar
    56   57   56 1
    57   58   49 ar
    58   59   58 1
    59   60    1 1
    60   61   62 ar
    61   62   63 1
    62   64   62 ar
    63   65   64 1
    64   66   64 ar
    65   67   66 ar
    66   68   67 1
    67   69   67 ar
    68   70   69 1
    69   71   69 ar
    70   72   71 1
    71   73   71 ar
    72   74   73 1
    73   75   66 ar
    74   76   61 ar
    75   77   76 1
    76   78   77 ar
    77   79   78 ar
    78   80   79 1
    79   81   79 ar
    80   82   81 1
    81   83   81 ar
    82   84   83 1
    83   85   83 ar
    84   86   85 1
    85   87   78 ar
    86   88   87 ar
    87   89   88 1
    88   90   88 ar
    89   91   90 1
    90   92   77 ar
    91   93   92 1
    92   94   93 3
    93   95   94 1
    94   96   95 ar
    95   97   96 1
    96   98   96 ar
    97   99   98 1
    98  100   98 ar
    99  101  100 1
   100  102  100 ar
   101  103  102 1
   102  104   95 ar
   103  105  104 1
   104  106  105 3
   105  107  106 1
   106  108  107 3
   107  109  108 1
   108  110  109 ar
   109  111  110 1
   110  112  110 ar
   111  113  112 1
   112  114  112 ar
   113  115  114 1
   114  116  114 ar
   115  117  116 1
   116  118  109 ar
   117  119  118 1
   118  120   61 1
   119   13   15 ar
   120   15   16 ar
   121   25   27 ar
   122   30   32 ar
   123   42   44 ar
   124   56   58 ar
   125   59   60 3
   126   73   75 ar
   127   75   76 ar
   128   85   87 ar
   129   90   92 ar
   130  102  104 ar
   131  116  118 ar
   132  119  120 3
@<TRIPOS>SUBSTRUCTURE
     1 RES1 1
     2 RES2 61

@<TRIPOS>CRYSIN
  12.3515   13.0183   18.1930  90.0000 108.2660  90.0000   4 1

