# MOL2 file generated by ConQuest
# Please check atom types

@<TRIPOS>MOLECULE
MUTJOC
    68    74     1
SMALL
NO_CHARGES
****
Generated from CSD

@<TRIPOS>ATOM
      1 C1         0.7281    9.9653    3.6595 C.2       1 RES1    0.0000
      2 C2         1.7783    9.1379    3.4864 C.2       1 RES1    0.0000
      3 C3         0.2379   10.2939    5.0445 C.ar      1 RES1    0.0000
      4 C4         0.3755   11.5895    5.5210 C.ar      1 RES1    0.0000
      5 H1         0.7776   12.2558    4.9767 H         1 RES1    0.0000
      6 C5        -0.0792   11.9127    6.8067 C.ar      1 RES1    0.0000
      7 H2         0.0313   12.7934    7.1456 H         1 RES1    0.0000
      8 C6        -0.6911   10.9403    7.5785 C.ar      1 RES1    0.0000
      9 H3        -0.9999   11.1584    8.4506 H         1 RES1    0.0000
     10 C7        -0.8560    9.6731    7.1024 C.ar      1 RES1    0.0000
     11 H4        -1.2933    9.0192    7.6350 H         1 RES1    0.0000
     12 C8        -0.3836    9.3374    5.8343 C.ar      1 RES1    0.0000
     13 H5        -0.4882    8.4513    5.5099 H         1 RES1    0.0000
     14 C9         2.4684    8.4772    4.6378 C.ar      1 RES1    0.0000
     15 C10        2.6455    7.0972    4.5941 C.ar      1 RES1    0.0000
     16 H6         2.3622    6.6105    3.8288 H         1 RES1    0.0000
     17 C11        3.2353    6.4246    5.6635 C.ar      1 RES1    0.0000
     18 H7         3.3389    5.4811    5.6337 H         1 RES1    0.0000
     19 C12        3.6699    7.1380    6.7704 C.ar      1 RES1    0.0000
     20 H8         4.0602    6.6823    7.5066 H         1 RES1    0.0000
     21 C13        3.5353    8.5116    6.8000 C.ar      1 RES1    0.0000
     22 H9         3.8471    9.0017    7.5519 H         1 RES1    0.0000
     23 C14        2.9504    9.1739    5.7423 C.ar      1 RES1    0.0000
     24 H10        2.8748   10.1199    5.7681 H         1 RES1    0.0000
     25 C15       -0.0693   10.6179    2.5769 C.ar      1 RES1    0.0000
     26 C16       -1.4443   10.7551    2.7737 C.ar      1 RES1    0.0000
     27 H11       -1.8314   10.4246    3.5766 H         1 RES1    0.0000
     28 C17       -2.2603   11.3589    1.8339 C.ar      1 RES1    0.0000
     29 H12       -3.1942   11.4311    1.9907 H         1 RES1    0.0000
     30 C18       -1.7116   11.8562    0.6674 C.ar      1 RES1    0.0000
     31 H13       -2.2655   12.2798    0.0227 H         1 RES1    0.0000
     32 C19       -0.3491   11.7337    0.4433 C.ar      1 RES1    0.0000
     33 H14        0.0295   12.0724   -0.3595 H         1 RES1    0.0000
     34 C20        0.4664   11.1191    1.3829 C.ar      1 RES1    0.0000
     35 H15        1.3976   11.0371    1.2143 H         1 RES1    0.0000
     36 C21        2.2825    8.7268    2.1339 C.ar      1 RES1    0.0000
     37 C22        1.4674    8.0260    1.2562 C.ar      1 RES1    0.0000
     38 H16        0.5757    7.8228    1.5134 H         1 RES1    0.0000
     39 C23        1.9258    7.6156    0.0097 C.ar      1 RES1    0.0000
     40 H17        1.3609    7.1130   -0.5649 H         1 RES1    0.0000
     41 C24        3.2099    7.9434   -0.3904 C.ar      1 RES1    0.0000
     42 H18        3.5186    7.7064   -1.2566 H         1 RES1    0.0000
     43 C25        4.0414    8.6222    0.4895 C.ar      1 RES1    0.0000
     44 H19        4.9247    8.8421    0.2160 H         1 RES1    0.0000
     45 C26        3.6115    8.9897    1.7676 C.ar      1 RES1    0.0000
     46 C27        4.6003    9.5968    2.7139 C.ar      1 RES1    0.0000
     47 C28        4.5902   10.9215    2.9925 C.ar      1 RES1    0.0000
     48 H20        3.9198   11.4678    2.6009 H         1 RES1    0.0000
     49 C29        5.5622   11.5281    3.8616 C.ar      1 RES1    0.0000
     50 C30        5.5799   12.9252    4.0646 C.ar      1 RES1    0.0000
     51 H21        4.9302   13.4698    3.6340 H         1 RES1    0.0000
     52 C31        6.5211   13.5079    4.8731 C.ar      1 RES1    0.0000
     53 H22        6.5260   14.4508    4.9948 H         1 RES1    0.0000
     54 C32        7.4733   12.7141    5.5195 C.ar      1 RES1    0.0000
     55 H23        8.1173   13.1172    6.0899 H         1 RES1    0.0000
     56 C33        7.4819   11.3554    5.3321 C.ar      1 RES1    0.0000
     57 H24        8.1324   10.8281    5.7802 H         1 RES1    0.0000
     58 C34        6.5420   10.7246    4.4863 C.ar      1 RES1    0.0000
     59 C35        6.5546    9.2987    4.2183 C.ar      1 RES1    0.0000
     60 C36        7.4927    8.4314    4.8118 C.ar      1 RES1    0.0000
     61 H25        8.1424    8.7911    5.4041 H         1 RES1    0.0000
     62 C37        7.4951    7.0876    4.5620 C.ar      1 RES1    0.0000
     63 H26        8.1394    6.5275    4.9797 H         1 RES1    0.0000
     64 C38        6.5503    6.5380    3.6918 C.ar      1 RES1    0.0000
     65 H27        6.5496    5.6039    3.5192 H         1 RES1    0.0000
     66 C39        5.6241    7.3489    3.0871 C.ar      1 RES1    0.0000
     67 H28        4.9871    6.9662    2.4951 H         1 RES1    0.0000
     68 C40        5.5994    8.7410    3.3266 C.ar      1 RES1    0.0000
@<TRIPOS>BOND
     1    1    2 2
     2    2   14 1
     3    3    1 1
     4    4    3 ar
     5    5    4 1
     6    6    4 ar
     7    7    6 1
     8    8    6 ar
     9    9    8 1
    10   10    8 ar
    11   11   10 1
    12   12    3 ar
    13   13   12 1
    14   14   15 ar
    15   15   16 1
    16   17   15 ar
    17   18   17 1
    18   19   17 ar
    19   20   19 1
    20   21   19 ar
    21   22   21 1
    22   23   14 ar
    23   24   23 1
    24   25    1 1
    25   26   25 ar
    26   27   26 1
    27   28   26 ar
    28   29   28 1
    29   30   28 ar
    30   31   30 1
    31   32   30 ar
    32   33   32 1
    33   34   25 ar
    34   35   34 1
    35   36    2 1
    36   37   36 ar
    37   38   37 1
    38   39   37 ar
    39   40   39 1
    40   41   39 ar
    41   42   41 1
    42   43   41 ar
    43   44   43 1
    44   45   36 ar
    45   46   45 1
    46   47   46 ar
    47   48   47 1
    48   49   47 ar
    49   50   49 ar
    50   51   50 1
    51   52   50 ar
    52   53   52 1
    53   54   52 ar
    54   55   54 1
    55   56   54 ar
    56   57   56 1
    57   58   49 ar
    58   59   58 ar
    59   60   59 ar
    60   61   60 1
    61   62   60 ar
    62   63   62 1
    63   64   62 ar
    64   65   64 1
    65   66   64 ar
    66   67   66 1
    67   68   46 ar
    68   10   12 ar
    69   21   23 ar
    70   32   34 ar
    71   43   45 ar
    72   56   58 ar
    73   59   68 ar
    74   66   68 ar
@<TRIPOS>SUBSTRUCTURE
     1 RES1 1

@<TRIPOS>CRYSIN
  11.3717   15.9519   15.1309  90.0000  93.4290  90.0000 231 1

