# MOL2 file generated by ConQuest
# Please check atom types

@<TRIPOS>MOLECULE
MUTJES
    62    67     1
SMALL
NO_CHARGES
****
Generated from CSD

@<TRIPOS>ATOM
      1 C1         6.6995    3.9144    2.9523 C.2       1 RES1    0.0000
      2 C2         7.8513    3.9454    3.6503 C.2       1 RES1    0.0000
      3 C3         6.4262    2.9781    1.8152 C.ar      1 RES1    0.0000
      4 C4         5.6077    3.3839    0.7588 C.ar      1 RES1    0.0000
      5 H1         5.2504    4.2642    0.7575 H         1 RES1    0.0000
      6 C5         5.3066    2.5255   -0.2880 C.ar      1 RES1    0.0000
      7 H2         4.7523    2.8225   -1.0006 H         1 RES1    0.0000
      8 C6         5.8104    1.2369   -0.2989 C.ar      1 RES1    0.0000
      9 H3         5.6049    0.6488   -1.0165 H         1 RES1    0.0000
     10 C7         6.6162    0.8098    0.7445 C.ar      1 RES1    0.0000
     11 H4         6.9662   -0.0736    0.7394 H         1 RES1    0.0000
     12 C8         6.9138    1.6632    1.7935 C.ar      1 RES1    0.0000
     13 H5         7.4559    1.3529    2.5088 H         1 RES1    0.0000
     14 C9         9.0773    3.1968    3.2471 C.ar      1 RES1    0.0000
     15 C10        9.6399    3.3506    1.9834 C.ar      1 RES1    0.0000
     16 H6         9.2298    3.9333    1.3549 H         1 RES1    0.0000
     17 C11       10.7889    2.6659    1.6318 C.ar      1 RES1    0.0000
     18 H7        11.1621    2.7808    0.7655 H         1 RES1    0.0000
     19 C12       11.3961    1.8157    2.5346 C.ar      1 RES1    0.0000
     20 H8        12.1792    1.3374    2.2885 H         1 RES1    0.0000
     21 C13       10.8563    1.6632    3.8047 C.ar      1 RES1    0.0000
     22 H9        11.2717    1.0813    4.4304 H         1 RES1    0.0000
     23 C14        9.7167    2.3555    4.1582 C.ar      1 RES1    0.0000
     24 H10        9.3619    2.2584    5.0346 H         1 RES1    0.0000
     25 C15        8.0166    4.7711    4.8834 C.ar      1 RES1    0.0000
     26 C16        9.0187    5.7335    4.9347 C.ar      1 RES1    0.0000
     27 H11        9.5669    5.8778    4.1726 H         1 RES1    0.0000
     28 C17        9.2301    6.4856    6.0809 C.ar      1 RES1    0.0000
     29 H12        9.9084    7.1509    6.0977 H         1 RES1    0.0000
     30 C18        8.4459    6.2608    7.2040 C.ar      1 RES1    0.0000
     31 H13        8.5937    6.7659    7.9955 H         1 RES1    0.0000
     32 C19        7.4511    5.3034    7.1721 C.ar      1 RES1    0.0000
     33 H14        6.9174    5.1503    7.9432 H         1 RES1    0.0000
     34 C20        7.2274    4.5628    6.0175 C.ar      1 RES1    0.0000
     35 H15        6.5350    3.9127    5.9989 H         1 RES1    0.0000
     36 C21        5.5596    4.8289    3.2902 C.ar      1 RES1    0.0000
     37 C22        5.6304    6.2316    3.1710 C.ar      1 RES1    0.0000
     38 C23        4.4859    6.9808    3.4465 C.ar      1 RES1    0.0000
     39 H16        4.5193    7.9259    3.3515 H         1 RES1    0.0000
     40 C24        3.3089    6.3904    3.8517 C.ar      1 RES1    0.0000
     41 H17        2.5476    6.9269    4.0409 H         1 RES1    0.0000
     42 C25        3.2367    5.0075    3.9823 C.ar      1 RES1    0.0000
     43 H18        2.4302    4.5900    4.2624 H         1 RES1    0.0000
     44 C26        4.3576    4.2481    3.6971 C.ar      1 RES1    0.0000
     45 H19        4.3075    3.3033    3.7808 H         1 RES1    0.0000
     46 C27        6.8723    6.9530    2.7835 C.ar      1 RES1    0.0000
     47 C28        7.6301    6.5802    1.6400 C.ar      1 RES1    0.0000
     48 H20        7.3355    5.8617    1.0937 H         1 RES1    0.0000
     49 C29        8.7812    7.2477    1.3189 C.ar      1 RES1    0.0000
     50 H21        9.2763    6.9783    0.5542 H         1 RES1    0.0000
     51 C30        9.2504    8.3305    2.1004 C.ar      1 RES1    0.0000
     52 C31        8.4951    8.7225    3.2333 C.ar      1 RES1    0.0000
     53 C32        7.3055    8.0124    3.5409 C.ar      1 RES1    0.0000
     54 H22        6.7933    8.2787    4.2953 H         1 RES1    0.0000
     55 C33       10.4407    9.0460    1.7960 C.ar      1 RES1    0.0000
     56 H23       10.9573    8.7980    1.0392 H         1 RES1    0.0000
     57 C34       10.8478   10.0837    2.5787 C.ar      1 RES1    0.0000
     58 H24       11.6360   10.5638    2.3521 H         1 RES1    0.0000
     59 C35       10.1107   10.4536    3.7230 C.ar      1 RES1    0.0000
     60 H25       10.4127   11.1685    4.2703 H         1 RES1    0.0000
     61 C36        8.9639    9.7861    4.0463 C.ar      1 RES1    0.0000
     62 H26        8.4765   10.0361    4.8223 H         1 RES1    0.0000
@<TRIPOS>BOND
     1    1    2 2
     2    2   14 1
     3    3    1 1
     4    4    3 ar
     5    5    4 1
     6    6    4 ar
     7    7    6 1
     8    8    6 ar
     9    9    8 1
    10   10    8 ar
    11   11   10 1
    12   12    3 ar
    13   13   12 1
    14   14   15 ar
    15   15   16 1
    16   17   15 ar
    17   18   17 1
    18   19   17 ar
    19   20   19 1
    20   21   19 ar
    21   22   21 1
    22   23   14 ar
    23   24   23 1
    24   25    2 1
    25   26   25 ar
    26   27   26 1
    27   28   26 ar
    28   29   28 1
    29   30   28 ar
    30   31   30 1
    31   32   30 ar
    32   33   32 1
    33   34   25 ar
    34   35   34 1
    35   36    1 1
    36   37   36 ar
    37   38   37 ar
    38   39   38 1
    39   40   38 ar
    40   41   40 1
    41   42   40 ar
    42   43   42 1
    43   44   36 ar
    44   45   44 1
    45   46   37 1
    46   47   46 ar
    47   48   47 1
    48   49   47 ar
    49   50   49 1
    50   51   49 ar
    51   52   51 ar
    52   53   46 ar
    53   54   53 1
    54   55   51 ar
    55   56   55 1
    56   57   55 ar
    57   58   57 1
    58   59   57 ar
    59   60   59 1
    60   61   52 ar
    61   62   61 1
    62   10   12 ar
    63   21   23 ar
    64   32   34 ar
    65   42   44 ar
    66   52   53 ar
    67   59   61 ar
@<TRIPOS>SUBSTRUCTURE
     1 RES1 1

@<TRIPOS>CRYSIN
   9.2253   12.0172   12.8207  65.0230  76.2450  83.6550   2 1

