# MOL2 file generated by ConQuest
# Please check atom types

@<TRIPOS>MOLECULE
MUTJIW
    68    74     1
SMALL
NO_CHARGES
****
Generated from CSD

@<TRIPOS>ATOM
      1 C1         2.3272    4.2386    8.6414 C.2       1 RES1    0.0000
      2 C2         2.4536    3.8599    9.9344 C.2       1 RES1    0.0000
      3 C3         2.8950    3.4200    7.5287 C.ar      1 RES1    0.0000
      4 C4         3.8196    3.9861    6.6532 C.ar      1 RES1    0.0000
      5 H1         4.1009    4.8842    6.7832 H         1 RES1    0.0000
      6 C5         4.3357    3.2529    5.5929 C.ar      1 RES1    0.0000
      7 H2         4.9723    3.6478    5.0100 H         1 RES1    0.0000
      8 C6         3.9263    1.9551    5.3851 C.ar      1 RES1    0.0000
      9 H3         4.2705    1.4575    4.6524 H         1 RES1    0.0000
     10 C7         3.0094    1.3778    6.2516 C.ar      1 RES1    0.0000
     11 H4         2.7291    0.4806    6.1139 H         1 RES1    0.0000
     12 C8         2.4999    2.1011    7.3150 C.ar      1 RES1    0.0000
     13 H5         1.8756    1.6950    7.9037 H         1 RES1    0.0000
     14 C9         3.1717    2.6120   10.3287 C.ar      1 RES1    0.0000
     15 C10        4.5135    2.3889   10.0116 C.ar      1 RES1    0.0000
     16 H6         4.9996    3.0461    9.5266 H         1 RES1    0.0000
     17 C11        5.1397    1.2172   10.3980 C.ar      1 RES1    0.0000
     18 H7         6.0572    1.0842   10.1941 H         1 RES1    0.0000
     19 C12        4.4380    0.2381   11.0809 C.ar      1 RES1    0.0000
     20 H8         4.8632   -0.5778   11.3164 H         1 RES1    0.0000
     21 C13        3.1141    0.4554   11.4163 C.ar      1 RES1    0.0000
     22 H9         2.6281   -0.2119   11.8867 H         1 RES1    0.0000
     23 C14        2.4943    1.6474   11.0668 C.ar      1 RES1    0.0000
     24 H10        1.5968    1.8060   11.3347 H         1 RES1    0.0000
     25 C15        1.9435    4.6431   11.1031 C.ar      1 RES1    0.0000
     26 C16        2.8692    5.1791   11.9955 C.ar      1 RES1    0.0000
     27 H11        3.7959    5.0502   11.8372 H         1 RES1    0.0000
     28 C17        2.4655    5.8960   13.1080 C.ar      1 RES1    0.0000
     29 H12        3.1117    6.2664   13.6967 H         1 RES1    0.0000
     30 C18        1.1169    6.0707   13.3574 C.ar      1 RES1    0.0000
     31 H13        0.8332    6.5581   14.1221 H         1 RES1    0.0000
     32 C19        0.1781    5.5324   12.4897 C.ar      1 RES1    0.0000
     33 H14       -0.7487    5.6464   12.6642 H         1 RES1    0.0000
     34 C20        0.5880    4.8277   11.3677 C.ar      1 RES1    0.0000
     35 H15       -0.0618    4.4678   10.7754 H         1 RES1    0.0000
     36 C21        1.6888    5.5261    8.2222 C.ar      1 RES1    0.0000
     37 C22        2.0459    6.7118    8.8653 C.ar      1 RES1    0.0000
     38 H16        2.6807    6.6829    9.5725 H         1 RES1    0.0000
     39 C23        1.5004    7.9239    8.5015 C.ar      1 RES1    0.0000
     40 H17        1.7497    8.7154    8.9636 H         1 RES1    0.0000
     41 C24        0.5892    7.9877    7.4623 C.ar      1 RES1    0.0000
     42 H18        0.2102    8.8209    7.2087 H         1 RES1    0.0000
     43 C25        0.2338    6.8269    6.7924 C.ar      1 RES1    0.0000
     44 H19       -0.3897    6.8746    6.0772 H         1 RES1    0.0000
     45 C26        0.7728    5.5903    7.1474 C.ar      1 RES1    0.0000
     46 C27        0.3143    4.3746    6.4046 C.ar      1 RES1    0.0000
     47 C28       -0.6269    3.5129    6.9969 C.ar      1 RES1    0.0000
     48 C29       -1.2551    3.8118    8.2448 C.ar      1 RES1    0.0000
     49 H20       -1.0223    4.6099    8.7051 H         1 RES1    0.0000
     50 C30       -2.1815    2.9759    8.7876 C.ar      1 RES1    0.0000
     51 H21       -2.5976    3.2084    9.6091 H         1 RES1    0.0000
     52 C31       -2.5338    1.7645    8.1447 C.ar      1 RES1    0.0000
     53 H22       -3.1673    1.1805    8.5437 H         1 RES1    0.0000
     54 C32       -1.9664    1.4400    6.9591 C.ar      1 RES1    0.0000
     55 H23       -2.2072    0.6246    6.5357 H         1 RES1    0.0000
     56 C33       -1.0129    2.3006    6.3321 C.ar      1 RES1    0.0000
     57 C34       -0.4677    2.0042    5.0842 C.ar      1 RES1    0.0000
     58 H24       -0.6914    1.1823    4.6634 H         1 RES1    0.0000
     59 C35        0.3957    2.8852    4.4418 C.ar      1 RES1    0.0000
     60 C36        0.9001    2.6187    3.1331 C.ar      1 RES1    0.0000
     61 H25        0.6559    1.8106    2.6975 H         1 RES1    0.0000
     62 C37        1.7216    3.4937    2.4971 C.ar      1 RES1    0.0000
     63 H26        2.0306    3.3029    1.6192 H         1 RES1    0.0000
     64 C38        2.1169    4.6888    3.1422 C.ar      1 RES1    0.0000
     65 H27        2.6923    5.2979    2.6957 H         1 RES1    0.0000
     66 C39        1.6777    4.9722    4.4017 C.ar      1 RES1    0.0000
     67 H28        1.9684    5.7721    4.8229 H         1 RES1    0.0000
     68 C40        0.7927    4.0981    5.1026 C.ar      1 RES1    0.0000
@<TRIPOS>BOND
     1    1    2 2
     2    2   14 1
     3    3    1 1
     4    4    3 ar
     5    5    4 1
     6    6    4 ar
     7    7    6 1
     8    8    6 ar
     9    9    8 1
    10   10    8 ar
    11   11   10 1
    12   12    3 ar
    13   13   12 1
    14   14   15 ar
    15   15   16 1
    16   17   15 ar
    17   18   17 1
    18   19   17 ar
    19   20   19 1
    20   21   19 ar
    21   22   21 1
    22   23   14 ar
    23   24   23 1
    24   25    2 1
    25   26   25 ar
    26   27   26 1
    27   28   26 ar
    28   29   28 1
    29   30   28 ar
    30   31   30 1
    31   32   30 ar
    32   33   32 1
    33   34   25 ar
    34   35   34 1
    35   36    1 1
    36   37   36 ar
    37   38   37 1
    38   39   37 ar
    39   40   39 1
    40   41   39 ar
    41   42   41 1
    42   43   41 ar
    43   44   43 1
    44   45   36 ar
    45   46   45 1
    46   47   46 ar
    47   48   47 ar
    48   49   48 1
    49   50   48 ar
    50   51   50 1
    51   52   50 ar
    52   53   52 1
    53   54   52 ar
    54   55   54 1
    55   56   47 ar
    56   57   56 ar
    57   58   57 1
    58   59   57 ar
    59   60   59 ar
    60   61   60 1
    61   62   60 ar
    62   63   62 1
    63   64   62 ar
    64   65   64 1
    65   66   64 ar
    66   67   66 1
    67   68   46 ar
    68   10   12 ar
    69   21   23 ar
    70   32   34 ar
    71   43   45 ar
    72   54   56 ar
    73   59   68 ar
    74   66   68 ar
@<TRIPOS>SUBSTRUCTURE
     1 RES1 1

@<TRIPOS>CRYSIN
  16.4844    9.1722   19.2250  90.0000 107.4720  90.0000  14 1

