# MOL2 file generated by ConQuest
# Please check atom types

@<TRIPOS>MOLECULE
MUVCIQ
    42    45     1
SMALL
NO_CHARGES
****
Generated from CSD

@<TRIPOS>ATOM
      1 C1         1.1331    0.3664    4.8495 C.ar      1 RES1    0.0000
      2 C2        -0.5593    0.4186    3.0217 C.ar      1 RES1    0.0000
      3 C3        -0.2038    0.2039    4.3865 C.ar      1 RES1    0.0000
      4 C4        -1.9092    0.5084    2.6641 C.ar      1 RES1    0.0000
      5 C5         1.4800   -0.1005    6.1247 C.ar      1 RES1    0.0000
      6 C6         2.1801   -1.0092    8.7107 C.ar      1 RES1    0.0000
      7 C7         2.8430   -0.1389    6.5748 C.ar      1 RES1    0.0000
      8 C8         3.1778   -0.5895    7.8035 C.ar      1 RES1    0.0000
      9 C9        -2.3237    0.9488    1.3602 C.ar      1 RES1    0.0000
     10 C10        2.1710    1.1375    4.0778 C.3       1 RES1    0.0000
     11 C11        0.4543    0.3601    1.8932 C.3       1 RES1    0.0000
     12 H1         3.5389    0.1736    5.9501 H         1 RES1    0.0000
     13 H2         2.7674    0.5208    3.5567 H         1 RES1    0.0000
     14 H3        -1.6622    1.2304    0.7521 H         1 RES1    0.0000
     15 H4         1.3176   -0.1736    2.1505 H         1 RES1    0.0000
     16 H5         4.1143   -0.6341    8.0365 H         1 RES1    0.0000
     17 H6         0.0251   -0.2114    1.1078 H         1 RES1    0.0000
     18 H7         2.4099   -1.3662    9.6020 H         1 RES1    0.0000
     19 H8         1.7532    1.7437    3.4644 H         1 RES1    0.0000
     20 H9         0.7641    1.2681    1.5062 H         1 RES1    0.0000
     21 H10        2.7370    1.6984    4.7315 H         1 RES1    0.0000
     22 C1B       -2.5812   -0.3664    4.8682 C.ar      1 RES1    0.0000
     23 C2B       -0.8889   -0.4186    6.6960 C.ar      1 RES1    0.0000
     24 C3B       -1.2443   -0.2039    5.3312 C.ar      1 RES1    0.0000
     25 C4B        0.4611   -0.5084    7.0536 C.ar      1 RES1    0.0000
     26 C5B       -2.9281    0.1005    3.5930 C.ar      1 RES1    0.0000
     27 C6B       -3.6282    1.0092    1.0069 C.ar      1 RES1    0.0000
     28 C7B       -4.2911    0.1389    3.1429 C.ar      1 RES1    0.0000
     29 C8B       -4.6260    0.5895    1.9142 C.ar      1 RES1    0.0000
     30 C9B        0.8756   -0.9488    8.3575 C.ar      1 RES1    0.0000
     31 C10B      -3.6192   -1.1375    5.6399 C.3       1 RES1    0.0000
     32 C11B      -1.9024   -0.3601    7.8245 C.3       1 RES1    0.0000
     33 H1B       -4.9871   -0.1736    3.7675 H         1 RES1    0.0000
     34 H2B       -4.2156   -0.5208    6.1610 H         1 RES1    0.0000
     35 H3B        0.2140   -1.2304    8.9655 H         1 RES1    0.0000
     36 H4B       -2.7658    0.1736    7.5672 H         1 RES1    0.0000
     37 H5B       -5.5625    0.6341    1.6812 H         1 RES1    0.0000
     38 H6B       -1.4733    0.2114    8.6099 H         1 RES1    0.0000
     39 H7B       -3.8580    1.3662    0.1156 H         1 RES1    0.0000
     40 H8B       -3.2014   -1.7437    6.2533 H         1 RES1    0.0000
     41 H9B       -2.2122   -1.2681    8.2114 H         1 RES1    0.0000
     42 H10B      -4.1852   -1.6984    4.9861 H         1 RES1    0.0000
@<TRIPOS>BOND
     1    1    3 ar
     2    2    3 ar
     3    3   24 ar
     4    4    2 ar
     5    5    1 ar
     6    6    8 ar
     7    7    5 ar
     8    8    7 ar
     9    9    4 ar
    10   10    1 1
    11   11    2 1
    12   12    7 1
    13   13   10 1
    14   14    9 1
    15   15   11 1
    16   16    8 1
    17   17   11 1
    18   18    6 1
    19   19   10 1
    20   20   11 1
    21   21   10 1
    22   22   24 ar
    23   23   24 ar
    24   25    5 ar
    25   26    4 ar
    26   27    9 ar
    27   28   26 ar
    28   29   27 ar
    29   30    6 ar
    30   31   22 1
    31   32   23 1
    32   33   28 1
    33   34   31 1
    34   35   30 1
    35   36   32 1
    36   37   29 1
    37   38   32 1
    38   39   27 1
    39   40   31 1
    40   41   32 1
    41   42   31 1
    42   22   26 ar
    43   23   25 ar
    44   25   30 ar
    45   28   29 ar
@<TRIPOS>SUBSTRUCTURE
     1 RES1 1

@<TRIPOS>CRYSIN
  10.1180    7.5483    9.8250  90.0000  98.4760  90.0000  14 1

