# MOL2 file generated by ConQuest
# Please check atom types

@<TRIPOS>MOLECULE
NALQIB
    68    75     1
SMALL
NO_CHARGES
****
Generated from CSD

@<TRIPOS>ATOM
      1 C1         1.0856   -1.9789   12.0655 C.3       1 RES1    0.0000
      2 H1         0.2322   -1.9129   11.5878 H         1 RES1    0.0000
      3 C2         2.1652   -1.1558   11.2773 C.3       1 RES1    0.0000
      4 H2         1.7406   -0.8127   10.4628 H         1 RES1    0.0000
      5 C3         2.7627    0.0271   12.0177 C.2       1 RES1    0.0000
      6 C4         2.4536    0.3025   13.2948 C.2       1 RES1    0.0000
      7 C5         1.5373   -0.5553   14.0843 C.2       1 RES1    0.0000
      8 C6         0.8643   -1.5701   13.5131 C.2       1 RES1    0.0000
      9 C7         1.5805   -3.4235   11.9815 C.ar      1 RES1    0.0000
     10 C8         1.0555   -4.6059   12.4167 C.ar      1 RES1    0.0000
     11 H3         0.2259   -4.6287   12.8378 H         1 RES1    0.0000
     12 C9         1.7927   -5.7941   12.2172 C.ar      1 RES1    0.0000
     13 H4         1.4376   -6.5979   12.5227 H         1 RES1    0.0000
     14 C10        2.9974   -5.8084   11.5982 C.ar      1 RES1    0.0000
     15 H5         3.4528   -6.6119   11.4928 H         1 RES1    0.0000
     16 C11        3.5678   -4.6100   11.1098 C.ar      1 RES1    0.0000
     17 C12        4.7846   -4.4528   10.4114 C.ar      1 RES1    0.0000
     18 H6         5.3343   -5.1897   10.2709 H         1 RES1    0.0000
     19 C13        5.1595   -3.2334    9.9430 C.ar      1 RES1    0.0000
     20 H7         5.9589   -3.1596    9.4734 H         1 RES1    0.0000
     21 C14        4.3799   -2.0763   10.1430 C.ar      1 RES1    0.0000
     22 H8         4.6522   -1.2575    9.7974 H         1 RES1    0.0000
     23 C15        3.2134   -2.1794   10.8574 C.ar      1 RES1    0.0000
     24 C16        2.8136   -3.4394   11.3169 C.ar      1 RES1    0.0000
     25 C17        3.7279    0.8536   11.2456 C.ar      1 RES1    0.0000
     26 C18        3.3931    1.4257   10.0319 C.ar      1 RES1    0.0000
     27 H9         2.5422    1.2942    9.6794 H         1 RES1    0.0000
     28 C19        4.3106    2.1924    9.3357 C.ar      1 RES1    0.0000
     29 H10        4.0706    2.5776    8.5245 H         1 RES1    0.0000
     30 C20        5.5659    2.3854    9.8331 C.ar      1 RES1    0.0000
     31 H11        6.1724    2.9167    9.3696 H         1 RES1    0.0000
     32 C21        5.9324    1.8029   11.0090 C.ar      1 RES1    0.0000
     33 H12        6.7945    1.9204   11.3378 H         1 RES1    0.0000
     34 C22        5.0227    1.0382   11.7119 C.ar      1 RES1    0.0000
     35 H13        5.2821    0.6392   12.5121 H         1 RES1    0.0000
     36 C23        2.9144    1.5905   13.9161 C.ar      1 RES1    0.0000
     37 C24        2.3695    2.7769   13.4772 C.ar      1 RES1    0.0000
     38 H14        1.7142    2.7610   12.8167 H         1 RES1    0.0000
     39 C25        2.7757    3.9884   13.9968 C.ar      1 RES1    0.0000
     40 H15        2.3930    4.7780   13.6881 H         1 RES1    0.0000
     41 C26        3.7334    4.0281   14.9573 C.ar      1 RES1    0.0000
     42 H16        4.0188    4.8460   15.2955 H         1 RES1    0.0000
     43 C27        4.2773    2.8639   15.4279 C.ar      1 RES1    0.0000
     44 H17        4.9252    2.8903   16.0948 H         1 RES1    0.0000
     45 C28        3.8677    1.6522   14.9142 C.ar      1 RES1    0.0000
     46 H18        4.2373    0.8650   15.2444 H         1 RES1    0.0000
     47 C29        1.3287   -0.2088   15.5219 C.ar      1 RES1    0.0000
     48 C30        2.1931   -0.6736   16.4999 C.ar      1 RES1    0.0000
     49 H19        2.9108   -1.2141   16.2585 H         1 RES1    0.0000
     50 C31        2.0071   -0.3482   17.8240 C.ar      1 RES1    0.0000
     51 H20        2.5949   -0.6729   18.4680 H         1 RES1    0.0000
     52 C32        0.9649    0.4467   18.1977 C.ar      1 RES1    0.0000
     53 H21        0.8431    0.6703   19.0930 H         1 RES1    0.0000
     54 C33        0.1007    0.9128   17.2495 C.ar      1 RES1    0.0000
     55 H22       -0.6169    1.4475   17.5014 H         1 RES1    0.0000
     56 C34        0.2858    0.5937   15.9207 C.ar      1 RES1    0.0000
     57 H23       -0.3043    0.9271   15.2832 H         1 RES1    0.0000
     58 C35       -0.1731   -2.3487   14.2490 C.ar      1 RES1    0.0000
     59 C36        0.1143   -3.0598   15.4069 C.ar      1 RES1    0.0000
     60 H24        0.9845   -3.0692   15.7356 H         1 RES1    0.0000
     61 C37       -0.8710   -3.7518   16.0747 C.ar      1 RES1    0.0000
     62 H25       -0.6638   -4.2166   16.8518 H         1 RES1    0.0000
     63 C38       -2.1616   -3.7580   15.5966 C.ar      1 RES1    0.0000
     64 H26       -2.8272   -4.2208   16.0525 H         1 RES1    0.0000
     65 C39       -2.4611   -3.0789   14.4446 C.ar      1 RES1    0.0000
     66 H27       -3.3301   -3.0849   14.1142 H         1 RES1    0.0000
     67 C40       -1.4763   -2.3859   13.7733 C.ar      1 RES1    0.0000
     68 H28       -1.6895   -1.9357   12.9874 H         1 RES1    0.0000
@<TRIPOS>BOND
     1    1    2 1
     2    3    1 1
     3    4    3 1
     4    5    3 1
     5    6    5 2
     6    7    6 1
     7    8    1 1
     8    9    1 1
     9   10    9 ar
    10   11   10 1
    11   12   10 ar
    12   13   12 1
    13   14   12 ar
    14   15   14 1
    15   16   14 ar
    16   17   16 ar
    17   18   17 1
    18   19   17 ar
    19   20   19 1
    20   21   19 ar
    21   22   21 1
    22   23    3 1
    23   24    9 ar
    24   25    5 1
    25   26   25 ar
    26   27   26 1
    27   28   26 ar
    28   29   28 1
    29   30   28 ar
    30   31   30 1
    31   32   30 ar
    32   33   32 1
    33   34   25 ar
    34   35   34 1
    35   36    6 1
    36   37   36 ar
    37   38   37 1
    38   39   37 ar
    39   40   39 1
    40   41   39 ar
    41   42   41 1
    42   43   41 ar
    43   44   43 1
    44   45   36 ar
    45   46   45 1
    46   47    7 1
    47   48   47 ar
    48   49   48 1
    49   50   48 ar
    50   51   50 1
    51   52   50 ar
    52   53   52 1
    53   54   52 ar
    54   55   54 1
    55   56   47 ar
    56   57   56 1
    57   58    8 1
    58   59   58 ar
    59   60   59 1
    60   61   59 ar
    61   62   61 1
    62   63   61 ar
    63   64   63 1
    64   65   63 ar
    65   66   65 1
    66   67   58 ar
    67   68   67 1
    68    7    8 2
    69   16   24 ar
    70   21   23 ar
    71   23   24 ar
    72   32   34 ar
    73   43   45 ar
    74   54   56 ar
    75   65   67 ar
@<TRIPOS>SUBSTRUCTURE
     1 RES1 1

@<TRIPOS>CRYSIN
   7.0160   11.6460   17.9410  98.7500  94.5400 103.5300   2 1

