# MOL2 file generated by ConQuest
# Please check atom types

@<TRIPOS>MOLECULE
NAMQAV
   142   154     2
SMALL
NO_CHARGES
****
Generated from CSD

@<TRIPOS>ATOM
      1 C1       -11.7897    2.2452   11.3609 C.3       1 RES1    0.0000
      2 C2       -12.1333    1.5977   12.7046 C.ar      1 RES1    0.0000
      3 C3       -13.0256    2.0776   13.7373 C.ar      1 RES1    0.0000
      4 C4       -13.6488    3.3544   13.7150 C.ar      1 RES1    0.0000
      5 H1       -13.5491    3.9009   12.9572 H         1 RES1    0.0000
      6 C5       -14.3846    3.8002   14.7624 C.ar      1 RES1    0.0000
      7 H2       -14.7900    4.6480   14.7186 H         1 RES1    0.0000
      8 C6       -14.5463    3.0132   15.9029 C.ar      1 RES1    0.0000
      9 H3       -15.0385    3.3364   16.6369 H         1 RES1    0.0000
     10 C7       -13.9827    1.7635   15.9457 C.ar      1 RES1    0.0000
     11 H4       -14.0883    1.2398   16.7186 H         1 RES1    0.0000
     12 C8       -13.2491    1.2453   14.8624 C.ar      1 RES1    0.0000
     13 C9       -12.7729   -0.1265   14.8451 C.ar      1 RES1    0.0000
     14 C10      -13.2684   -1.0982   15.7581 C.ar      1 RES1    0.0000
     15 H5       -13.8349   -0.8259   16.4571 H         1 RES1    0.0000
     16 C11      -12.9382   -2.4148   15.6418 C.ar      1 RES1    0.0000
     17 H6       -13.2697   -3.0342   16.2676 H         1 RES1    0.0000
     18 C12      -12.1180   -2.8526   14.6121 C.ar      1 RES1    0.0000
     19 H7       -11.9216   -3.7683   14.5258 H         1 RES1    0.0000
     20 C13      -11.5901   -1.9470   13.7167 C.ar      1 RES1    0.0000
     21 H8       -11.0267   -2.2482   13.0258 H         1 RES1    0.0000
     22 C14      -11.8893   -0.5638   13.8278 C.ar      1 RES1    0.0000
     23 C15      -11.4615    0.4056   12.8455 C.ar      1 RES1    0.0000
     24 C16      -10.4800    0.3015   11.7563 C.ar      1 RES1    0.0000
     25 C17       -9.2458   -0.4594   11.7001 C.ar      1 RES1    0.0000
     26 C18       -8.6891   -1.0976   12.8268 C.ar      1 RES1    0.0000
     27 H9        -9.1621   -1.0962   13.6402 H         1 RES1    0.0000
     28 C19       -7.4689   -1.7196   12.7576 C.ar      1 RES1    0.0000
     29 H10       -7.1059   -2.1275   13.5226 H         1 RES1    0.0000
     30 C20       -6.7664   -1.7505   11.5589 C.ar      1 RES1    0.0000
     31 H11       -5.9511   -2.2143   11.5063 H         1 RES1    0.0000
     32 C21       -7.2564   -1.1081   10.4543 C.ar      1 RES1    0.0000
     33 H12       -6.7664   -1.1311    9.6534 H         1 RES1    0.0000
     34 C22       -8.4863   -0.4115   10.4975 C.ar      1 RES1    0.0000
     35 C23       -8.9325    0.4228    9.3864 C.ar      1 RES1    0.0000
     36 C24       -8.2878    0.4129    8.1345 C.ar      1 RES1    0.0000
     37 H13       -7.5964   -0.2065    7.9802 H         1 RES1    0.0000
     38 C25       -8.6378    1.2777    7.1342 C.ar      1 RES1    0.0000
     39 H14       -8.2006    1.2398    6.3038 H         1 RES1    0.0000
     40 C26       -9.6427    2.2123    7.3505 C.ar      1 RES1    0.0000
     41 H15       -9.8638    2.8267    6.6731 H         1 RES1    0.0000
     42 C27      -10.3124    2.2412    8.5462 C.ar      1 RES1    0.0000
     43 H16      -10.9910    2.8786    8.6763 H         1 RES1    0.0000
     44 C28      -10.0093    1.3386    9.5864 C.ar      1 RES1    0.0000
     45 C29      -10.7514    1.2650   10.8138 C.ar      1 RES1    0.0000
     46 C30      -13.0753    2.3489   10.5014 C.3       1 RES1    0.0000
     47 H17      -13.7082    2.9414   10.9605 H         1 RES1    0.0000
     48 H18      -12.8442    2.7689    9.6468 H         1 RES1    0.0000
     49 C31      -13.7732    1.0293   10.2161 C.3       1 RES1    0.0000
     50 H19      -13.1804    0.4618    9.6795 H         1 RES1    0.0000
     51 H20      -13.9454    0.5675   11.0618 H         1 RES1    0.0000
     52 C32      -15.0794    1.2109    9.4795 C.3       1 RES1    0.0000
     53 H21      -14.8939    1.6148    8.6076 H         1 RES1    0.0000
     54 H22      -15.6378    1.8383    9.9834 H         1 RES1    0.0000
     55 C33      -15.8595   -0.0678    9.2655 C.3       1 RES1    0.0000
     56 H23      -16.6822    0.1307    8.7907 H         1 RES1    0.0000
     57 H24      -16.0698   -0.4668   10.1240 H         1 RES1    0.0000
     58 H25      -15.3276   -0.6882    8.7416 H         1 RES1    0.0000
     59 C34      -11.0962    3.6277   11.5305 C.3       1 RES1    0.0000
     60 H26      -10.8773    3.9817   10.6436 H         1 RES1    0.0000
     61 H27      -11.7283    4.2481   11.9507 H         1 RES1    0.0000
     62 C35       -9.8301    3.5858   12.3648 C.3       1 RES1    0.0000
     63 H28      -10.0002    3.0412   13.1631 H         1 RES1    0.0000
     64 H29       -9.1296    3.1389   11.8461 H         1 RES1    0.0000
     65 C36       -9.3167    4.9273   12.8040 C.3       1 RES1    0.0000
     66 H30       -9.9515    5.3233   13.4376 H         1 RES1    0.0000
     67 H31       -9.2579    5.5208   12.0259 H         1 RES1    0.0000
     68 C37       -7.9560    4.8296   13.4585 C.3       1 RES1    0.0000
     69 H32       -7.7247    5.6854   13.8526 H         1 RES1    0.0000
     70 H33       -7.2927    4.5912   12.7906 H         1 RES1    0.0000
     71 H34       -7.9781    4.1503   14.1500 H         1 RES1    0.0000
     72 C38       -8.6692   -2.8038    4.6764 C.3       2 RES2    0.0000
     73 C39       -9.7124   -3.7803    5.2388 C.ar      2 RES2    0.0000
     74 C40      -10.4522   -3.6786    6.4721 C.ar      2 RES2    0.0000
     75 C41      -10.1399   -2.7589    7.4972 C.ar      2 RES2    0.0000
     76 H35       -9.4512   -2.1345    7.3560 H         2 RES2    0.0000
     77 C42      -10.8128   -2.7519    8.6907 C.ar      2 RES2    0.0000
     78 H36      -10.5817   -2.1315    9.3593 H         2 RES2    0.0000
     79 C43      -11.8388   -3.6656    8.9132 C.ar      2 RES2    0.0000
     80 H37      -12.2854   -3.6785    9.7383 H         2 RES2    0.0000
     81 C44      -12.1961   -4.5463    7.9263 C.ar      2 RES2    0.0000
     82 H38      -12.8994   -5.1497    8.0848 H         2 RES2    0.0000
     83 C45      -11.5362   -4.5713    6.6815 C.ar      2 RES2    0.0000
     84 C46      -11.9803   -5.4281    5.5875 C.ar      2 RES2    0.0000
     85 C47      -13.2073   -6.1152    5.6375 C.ar      2 RES2    0.0000
     86 H39      -13.7001   -6.1123    6.4378 H         2 RES2    0.0000
     87 C48      -13.7026   -6.7875    4.5532 C.ar      2 RES2    0.0000
     88 H40      -14.5236   -7.2403    4.6175 H         2 RES2    0.0000
     89 C49      -12.9892   -6.8015    3.3538 C.ar      2 RES2    0.0000
     90 H41      -13.3461   -7.2274    2.5947 H         2 RES2    0.0000
     91 C50      -11.7662   -6.1904    3.2901 C.ar      2 RES2    0.0000
     92 H42      -11.2817   -6.2190    2.4836 H         2 RES2    0.0000
     93 C51      -11.2127   -5.5198    4.3989 C.ar      2 RES2    0.0000
     94 C52       -9.9781   -4.7656    4.3234 C.ar      2 RES2    0.0000
     95 C53       -8.9961   -4.6704    3.2355 C.ar      2 RES2    0.0000
     96 C54       -8.5498   -5.6551    2.2633 C.ar      2 RES2    0.0000
     97 C55       -8.8324   -7.0279    2.3911 C.ar      2 RES2    0.0000
     98 H43       -9.3846   -7.3241    3.0914 H         2 RES2    0.0000
     99 C56       -8.3123   -7.9405    1.5045 C.ar      2 RES2    0.0000
    100 H44       -8.5092   -8.8542    1.6045 H         2 RES2    0.0000
    101 C57       -7.4996   -7.5236    0.4621 C.ar      2 RES2    0.0000
    102 H45       -7.1708   -8.1480   -0.1601 H         2 RES2    0.0000
    103 C58       -7.1762   -6.1960    0.3399 C.ar      2 RES2    0.0000
    104 H46       -6.6121   -5.9227   -0.3595 H         2 RES2    0.0000
    105 C59       -7.6708   -5.2355    1.2405 C.ar      2 RES2    0.0000
    106 C60       -7.2243   -3.8441    1.1892 C.ar      2 RES2    0.0000
    107 C61       -6.5260   -3.3224    0.0843 C.ar      2 RES2    0.0000
    108 H47       -6.4042   -3.8640   -0.6732 H         2 RES2    0.0000
    109 C62       -6.0203   -2.0547    0.0794 C.ar      2 RES2    0.0000
    110 H48       -5.5759   -1.7266   -0.6797 H         2 RES2    0.0000
    111 C63       -6.1661   -1.2518    1.2013 C.ar      2 RES2    0.0000
    112 H49       -5.7903   -0.3900    1.2124 H         2 RES2    0.0000
    113 C64       -6.8595   -1.7126    2.3006 C.ar      2 RES2    0.0000
    114 H50       -6.9386   -1.1650    3.0620 H         2 RES2    0.0000
    115 C65       -7.4554   -2.9983    2.3029 C.ar      2 RES2    0.0000
    116 C66       -8.3349   -3.4700    3.3401 C.ar      2 RES2    0.0000
    117 C67       -9.3710   -1.4283    4.4787 C.3       2 RES2    0.0000
    118 H51       -9.6575   -1.0932    5.3528 H         2 RES2    0.0000
    119 H52       -8.7187   -0.7930    4.1176 H         2 RES2    0.0000
    120 C68      -10.5744   -1.4692    3.5578 C.3       2 RES2    0.0000
    121 H53      -10.3494   -2.0158    2.7777 H         2 RES2    0.0000
    122 H54      -11.3093   -1.9151    4.0261 H         2 RES2    0.0000
    123 C69      -11.0584   -0.1366    3.0780 C.3       2 RES2    0.0000
    124 H55      -11.2947    0.4109    3.8561 H         2 RES2    0.0000
    125 H56      -10.3267    0.3152    2.6078 H         2 RES2    0.0000
    126 C70      -12.2383   -0.2135    2.1669 C.3       2 RES2    0.0000
    127 H57      -12.3959    0.6563    1.7679 H         2 RES2    0.0000
    128 H58      -13.0212   -0.4848    2.6731 H         2 RES2    0.0000
    129 H59      -12.0646   -0.8628    1.4673 H         2 RES2    0.0000
    130 C71       -7.3735   -2.6811    5.5162 C.3       2 RES2    0.0000
    131 H60       -6.7827   -2.0328    5.0783 H         2 RES2    0.0000
    132 H61       -7.6078   -2.3180    6.3953 H         2 RES2    0.0000
    133 C72       -6.6066   -3.9648    5.7195 C.3       2 RES2    0.0000
    134 H62       -6.4026   -4.3548    4.8430 H         2 RES2    0.0000
    135 H63       -7.1741   -4.6001    6.2057 H         2 RES2    0.0000
    136 C73       -5.3119   -3.7773    6.4861 C.3       2 RES2    0.0000
    137 H64       -4.7557   -3.1259    6.0097 H         2 RES2    0.0000
    138 H65       -5.5207   -3.4022    7.3658 H         2 RES2    0.0000
    139 C74       -4.5141   -5.0460    6.6770 C.3       2 RES2    0.0000
    140 H66       -3.6967   -4.8445    7.1600 H         2 RES2    0.0000
    141 H67       -4.2944   -5.4230    5.8103 H         2 RES2    0.0000
    142 H68       -5.0383   -5.6844    7.1861 H         2 RES2    0.0000
@<TRIPOS>BOND
     1    1    2 1
     2    2    3 ar
     3    3    4 ar
     4    4    5 1
     5    6    4 ar
     6    7    6 1
     7    8    6 ar
     8    9    8 1
     9   10    8 ar
    10   11   10 1
    11   12    3 ar
    12   13   12 ar
    13   14   13 ar
    14   15   14 1
    15   16   14 ar
    16   17   16 1
    17   18   16 ar
    18   19   18 1
    19   20   18 ar
    20   21   20 1
    21   22   13 ar
    22   23    2 ar
    23   24   23 1
    24   25   24 ar
    25   26   25 ar
    26   27   26 1
    27   28   26 ar
    28   29   28 1
    29   30   28 ar
    30   31   30 1
    31   32   30 ar
    32   33   32 1
    33   34   25 ar
    34   35   34 ar
    35   36   35 ar
    36   37   36 1
    37   38   36 ar
    38   39   38 1
    39   40   38 ar
    40   41   40 1
    41   42   40 ar
    42   43   42 1
    43   44   35 ar
    44   45    1 1
    45   46    1 1
    46   47   46 1
    47   48   46 1
    48   49   46 1
    49   50   49 1
    50   51   49 1
    51   52   49 1
    52   53   52 1
    53   54   52 1
    54   55   52 1
    55   56   55 1
    56   57   55 1
    57   58   55 1
    58   59    1 1
    59   60   59 1
    60   61   59 1
    61   62   59 1
    62   63   62 1
    63   64   62 1
    64   65   62 1
    65   66   65 1
    66   67   65 1
    67   68   65 1
    68   69   68 1
    69   70   68 1
    70   71   68 1
    71   72   73 1
    72   73   74 ar
    73   74   75 ar
    74   75   76 1
    75   77   75 ar
    76   78   77 1
    77   79   77 ar
    78   80   79 1
    79   81   79 ar
    80   82   81 1
    81   83   74 ar
    82   84   83 ar
    83   85   84 ar
    84   86   85 1
    85   87   85 ar
    86   88   87 1
    87   89   87 ar
    88   90   89 1
    89   91   89 ar
    90   92   91 1
    91   93   84 ar
    92   94   73 ar
    93   95   94 1
    94   96   95 ar
    95   97   96 ar
    96   98   97 1
    97   99   97 ar
    98  100   99 1
    99  101   99 ar
   100  102  101 1
   101  103  101 ar
   102  104  103 1
   103  105   96 ar
   104  106  105 ar
   105  107  106 ar
   106  108  107 1
   107  109  107 ar
   108  110  109 1
   109  111  109 ar
   110  112  111 1
   111  113  111 ar
   112  114  113 1
   113  115  106 ar
   114  116   72 1
   115  117   72 1
   116  118  117 1
   117  119  117 1
   118  120  117 1
   119  121  120 1
   120  122  120 1
   121  123  120 1
   122  124  123 1
   123  125  123 1
   124  126  123 1
   125  127  126 1
   126  128  126 1
   127  129  126 1
   128  130   72 1
   129  131  130 1
   130  132  130 1
   131  133  130 1
   132  134  133 1
   133  135  133 1
   134  136  133 1
   135  137  136 1
   136  138  136 1
   137  139  136 1
   138  140  139 1
   139  141  139 1
   140  142  139 1
   141   10   12 ar
   142   20   22 ar
   143   22   23 ar
   144   24   45 ar
   145   32   34 ar
   146   42   44 ar
   147   44   45 ar
   148   81   83 ar
   149   91   93 ar
   150   93   94 ar
   151   95  116 ar
   152  103  105 ar
   153  113  115 ar
   154  115  116 ar
@<TRIPOS>SUBSTRUCTURE
     1 RES1 1
     2 RES2 72

@<TRIPOS>CRYSIN
  16.2420    9.9743   32.6790  90.0000  90.0000  90.0000  33 1

