# MOL2 file generated by ConQuest
# Please check atom types

@<TRIPOS>MOLECULE
NAMQUP
    77    83     1
SMALL
NO_CHARGES
****
Generated from CSD

@<TRIPOS>ATOM
      1 C1         2.3546    7.5736   12.1106 C.3       1 RES1    0.0000
      2 C2         3.5593    8.2124   12.7867 C.ar      1 RES1    0.0000
      3 C3         3.5717    9.1295   13.8944 C.ar      1 RES1    0.0000
      4 C4         2.4043    9.7749   14.3641 C.ar      1 RES1    0.0000
      5 H1         1.5718    9.5936   13.9448 H         1 RES1    0.0000
      6 C5         2.4494   10.6620   15.4203 C.ar      1 RES1    0.0000
      7 H2         1.6601   11.1089   15.7027 H         1 RES1    0.0000
      8 C6         3.6574   10.8992   16.0693 C.ar      1 RES1    0.0000
      9 H3         3.6845   11.4883   16.8141 H         1 RES1    0.0000
     10 C7         4.8093   10.2861   15.6393 C.ar      1 RES1    0.0000
     11 H4         5.6228   10.4470   16.1046 H         1 RES1    0.0000
     12 C8         4.8154    9.4226   14.5230 C.ar      1 RES1    0.0000
     13 C9         6.0360    8.7839   14.0487 C.ar      1 RES1    0.0000
     14 C10        7.2756    8.9381   14.7129 C.ar      1 RES1    0.0000
     15 H5         7.3380    9.5504   15.4371 H         1 RES1    0.0000
     16 C11        8.3843    8.2336   14.3458 C.ar      1 RES1    0.0000
     17 H6         9.2064    8.3725   14.7993 H         1 RES1    0.0000
     18 C12        8.3072    7.3055   13.3010 C.ar      1 RES1    0.0000
     19 H7         9.0664    6.7790   13.0745 H         1 RES1    0.0000
     20 C13        7.1334    7.1560   12.6043 C.ar      1 RES1    0.0000
     21 H8         7.0894    6.5269   11.8950 H         1 RES1    0.0000
     22 C14        5.9886    7.9218   12.9239 C.ar      1 RES1    0.0000
     23 C15        4.7286    7.7549   12.2331 C.ar      1 RES1    0.0000
     24 C16        4.3924    6.9686   11.0284 C.ar      1 RES1    0.0000
     25 C17        5.1945    6.5934    9.8800 C.ar      1 RES1    0.0000
     26 C18        6.4158    7.2274    9.5644 C.ar      1 RES1    0.0000
     27 H9         6.7785    7.8694   10.1632 H         1 RES1    0.0000
     28 C19        7.0896    6.9281    8.3990 C.ar      1 RES1    0.0000
     29 H10        7.8929    7.3872    8.1851 H         1 RES1    0.0000
     30 C20        6.5909    5.9493    7.5319 C.ar      1 RES1    0.0000
     31 H11        7.0777    5.7097    6.7539 H         1 RES1    0.0000
     32 C21        5.3914    5.3352    7.8108 C.ar      1 RES1    0.0000
     33 H12        5.0614    4.6719    7.2153 H         1 RES1    0.0000
     34 C22        4.6392    5.6664    8.9591 C.ar      1 RES1    0.0000
     35 C23        3.2816    5.1735    9.1492 C.ar      1 RES1    0.0000
     36 C24        2.7481    4.1397    8.3604 C.ar      1 RES1    0.0000
     37 H13        3.3092    3.6901    7.7395 H         1 RES1    0.0000
     38 C25        1.4336    3.7660    8.4680 C.ar      1 RES1    0.0000
     39 H14        1.0978    3.0562    7.9335 H         1 RES1    0.0000
     40 C26        0.5884    4.4291    9.3626 C.ar      1 RES1    0.0000
     41 H15       -0.3297    4.1921    9.4136 H         1 RES1    0.0000
     42 C27        1.0853    5.4179   10.1636 C.ar      1 RES1    0.0000
     43 H16        0.5022    5.8556   10.7731 H         1 RES1    0.0000
     44 C28        2.4405    5.8067   10.1091 C.ar      1 RES1    0.0000
     45 C29        3.0410    6.7376   11.0307 C.ar      1 RES1    0.0000
     46 C30        1.3979    8.5930   11.4324 C.3       1 RES1    0.0000
     47 H17        0.8242    8.1075   10.7871 H         1 RES1    0.0000
     48 H18        0.8070    8.9819   12.1256 H         1 RES1    0.0000
     49 C31        2.1053    9.7337   10.6957 C.3       1 RES1    0.0000
     50 H19        2.6411   10.2520   11.3480 H         1 RES1    0.0000
     51 H20        2.7304    9.3461   10.0339 H         1 RES1    0.0000
     52 C32        1.1622   10.6769    9.9813 C.3       1 RES1    0.0000
     53 H21        1.7048   11.2501    9.3839 H         1 RES1    0.0000
     54 H22        0.5710   10.1318    9.4031 H         1 RES1    0.0000
     55 C33        0.3380   11.5268   10.7609 C.3       1 RES1    0.0000
     56 H23       -0.1653   10.9595   11.3970 H         1 RES1    0.0000
     57 H24       -0.3255   11.9447   10.1563 H         1 RES1    0.0000
     58 C34        1.0160   12.6522   11.5682 C.3       1 RES1    0.0000
     59 H25        0.3351   13.1530   12.0662 H         1 RES1    0.0000
     60 H26        1.4856   13.2569   10.9566 H         1 RES1    0.0000
     61 H27        1.6570   12.2611   12.1973 H         1 RES1    0.0000
     62 C35        1.5885    6.7058   13.1528 C.3       1 RES1    0.0000
     63 H28        1.4062    7.2658   13.9483 H         1 RES1    0.0000
     64 H29        0.7139    6.4522   12.7635 H         1 RES1    0.0000
     65 C36        2.2947    5.4341   13.6140 C.3       1 RES1    0.0000
     66 H30        2.5011    4.8727   12.8264 H         1 RES1    0.0000
     67 H31        3.1499    5.6759   14.0496 H         1 RES1    0.0000
     68 C37        1.4437    4.6334   14.5904 C.3       1 RES1    0.0000
     69 H32        1.3698    5.1482   15.4318 H         1 RES1    0.0000
     70 H33        0.5329    4.5493   14.2121 H         1 RES1    0.0000
     71 C38        1.9528    3.2383   14.9258 C.3       1 RES1    0.0000
     72 H34        1.2571    2.7620   15.4441 H         1 RES1    0.0000
     73 H35        2.0941    2.7399   14.0828 H         1 RES1    0.0000
     74 C39        3.2093    3.2267   15.6978 C.3       1 RES1    0.0000
     75 H36        3.4772    2.2998   15.8687 H         1 RES1    0.0000
     76 H37        3.0741    3.6901   16.5502 H         1 RES1    0.0000
     77 H38        3.9112    3.6808   15.1872 H         1 RES1    0.0000
@<TRIPOS>BOND
     1    1    2 1
     2    2    3 ar
     3    3    4 ar
     4    4    5 1
     5    6    4 ar
     6    7    6 1
     7    8    6 ar
     8    9    8 1
     9   10    8 ar
    10   11   10 1
    11   12    3 ar
    12   13   12 ar
    13   14   13 ar
    14   15   14 1
    15   16   14 ar
    16   17   16 1
    17   18   16 ar
    18   19   18 1
    19   20   18 ar
    20   21   20 1
    21   22   13 ar
    22   23    2 ar
    23   24   23 1
    24   25   24 ar
    25   26   25 ar
    26   27   26 1
    27   28   26 ar
    28   29   28 1
    29   30   28 ar
    30   31   30 1
    31   32   30 ar
    32   33   32 1
    33   34   25 ar
    34   35   34 ar
    35   36   35 ar
    36   37   36 1
    37   38   36 ar
    38   39   38 1
    39   40   38 ar
    40   41   40 1
    41   42   40 ar
    42   43   42 1
    43   44   35 ar
    44   45    1 1
    45   46    1 1
    46   47   46 1
    47   48   46 1
    48   49   46 1
    49   50   49 1
    50   51   49 1
    51   52   49 1
    52   53   52 1
    53   54   52 1
    54   55   52 1
    55   56   55 1
    56   57   55 1
    57   58   55 1
    58   59   58 1
    59   60   58 1
    60   61   58 1
    61   62    1 1
    62   63   62 1
    63   64   62 1
    64   65   62 1
    65   66   65 1
    66   67   65 1
    67   68   65 1
    68   69   68 1
    69   70   68 1
    70   71   68 1
    71   72   71 1
    72   73   71 1
    73   74   71 1
    74   75   74 1
    75   76   74 1
    76   77   74 1
    77   10   12 ar
    78   20   22 ar
    79   22   23 ar
    80   24   45 ar
    81   32   34 ar
    82   42   44 ar
    83   44   45 ar
@<TRIPOS>SUBSTRUCTURE
     1 RES1 1

@<TRIPOS>CRYSIN
  28.0470   11.6739   17.4859  90.0000  92.0570  90.0000  15 1

