# MOL2 file generated by ConQuest
# Please check atom types

@<TRIPOS>MOLECULE
NAMRAW
   130   142     2
SMALL
NO_CHARGES
****
Generated from CSD

@<TRIPOS>ATOM
      1 C1        12.2704   -1.9741    4.5618 C.3       1 RES1    0.0000
      2 C2        10.9033   -1.2984    4.6390 C.ar      1 RES1    0.0000
      3 C3         9.7194   -1.7528    5.3316 C.ar      1 RES1    0.0000
      4 C4         9.6081   -3.0353    5.9227 C.ar      1 RES1    0.0000
      5 H1        10.3571   -3.6044    5.9295 H         1 RES1    0.0000
      6 C5         8.4371   -3.4653    6.4835 C.ar      1 RES1    0.0000
      7 H2         8.3907   -4.3174    6.8772 H         1 RES1    0.0000
      8 C6         7.3150   -2.6455    6.4728 C.ar      1 RES1    0.0000
      9 H3         6.5068   -2.9501    6.8410 H         1 RES1    0.0000
     10 C7         7.3927   -1.3879    5.9211 C.ar      1 RES1    0.0000
     11 H4         6.6286   -0.8423    5.9190 H         1 RES1    0.0000
     12 C8         8.5873   -0.8951    5.3579 C.ar      1 RES1    0.0000
     13 C9         8.7008    0.4700    4.8535 C.ar      1 RES1    0.0000
     14 C10        7.6962    1.4378    5.0798 C.ar      1 RES1    0.0000
     15 H5         6.8780    1.1744    5.4610 H         1 RES1    0.0000
     16 C11        7.8949    2.7581    4.7521 C.ar      1 RES1    0.0000
     17 H6         7.2068    3.3820    4.8911 H         1 RES1    0.0000
     18 C12        9.1055    3.1783    4.2170 C.ar      1 RES1    0.0000
     19 H7         9.2583    4.0912    4.0538 H         1 RES1    0.0000
     20 C13       10.0799    2.2559    3.9267 C.ar      1 RES1    0.0000
     21 H8        10.8889    2.5436    3.5459 H         1 RES1    0.0000
     22 C14        9.8852    0.8778    4.1907 C.ar      1 RES1    0.0000
     23 C15       10.9241   -0.0978    3.9710 C.ar      1 RES1    0.0000
     24 C16       12.1932    0.0023    3.2328 C.ar      1 RES1    0.0000
     25 C17       12.5460    0.7785    2.0606 C.ar      1 RES1    0.0000
     26 C18       11.5746    1.4736    1.2961 C.ar      1 RES1    0.0000
     27 H9        10.6765    1.4711    1.5734 H         1 RES1    0.0000
     28 C19       11.9334    2.1519    0.1519 C.ar      1 RES1    0.0000
     29 H10       11.2774    2.5995   -0.3537 H         1 RES1    0.0000
     30 C20       13.2602    2.1763   -0.2563 C.ar      1 RES1    0.0000
     31 H11       13.5086    2.6788   -1.0112 H         1 RES1    0.0000
     32 C21       14.2067    1.4731    0.4342 C.ar      1 RES1    0.0000
     33 H12       15.0992    1.4907    0.1391 H         1 RES1    0.0000
     34 C22       13.8729    0.7181    1.5851 C.ar      1 RES1    0.0000
     35 C23       14.8485   -0.1489    2.2383 C.ar      1 RES1    0.0000
     36 C24       16.2045   -0.1597    1.8833 C.ar      1 RES1    0.0000
     37 H13       16.5019    0.4339    1.2183 H         1 RES1    0.0000
     38 C25       17.1088   -1.0030    2.4698 C.ar      1 RES1    0.0000
     39 H14       18.0160   -0.9579    2.2355 H         1 RES1    0.0000
     40 C26       16.6742   -1.9266    3.4162 C.ar      1 RES1    0.0000
     41 H15       17.2842   -2.5309    3.7999 H         1 RES1    0.0000
     42 C27       15.3592   -1.9520    3.7852 C.ar      1 RES1    0.0000
     43 H16       15.0782   -2.5848    4.4211 H         1 RES1    0.0000
     44 C28       14.4095   -1.0607    3.2450 C.ar      1 RES1    0.0000
     45 C29       13.0408   -0.9824    3.6839 C.ar      1 RES1    0.0000
     46 C30       12.2237   -3.3243    3.7925 C.3       1 RES1    0.0000
     47 H17       13.1391   -3.6514    3.6789 H         1 RES1    0.0000
     48 H18       11.7412   -3.9795    4.3395 H         1 RES1    0.0000
     49 C31       11.5610   -3.2498    2.4244 C.3       1 RES1    0.0000
     50 H19       10.6428   -2.9295    2.5348 H         1 RES1    0.0000
     51 H20       12.0403   -2.5946    1.8757 H         1 RES1    0.0000
     52 C32       11.5312   -4.5721    1.6897 C.3       1 RES1    0.0000
     53 H21       11.0877   -4.4565    0.8343 H         1 RES1    0.0000
     54 H22       11.0470   -5.2254    2.2189 H         1 RES1    0.0000
     55 H23       12.4380   -4.8816    1.5447 H         1 RES1    0.0000
     56 C33       12.8443   -2.1362    5.9929 C.3       1 RES1    0.0000
     57 H24       12.2591   -2.7385    6.4978 H         1 RES1    0.0000
     58 H25       13.7259   -2.5603    5.9310 H         1 RES1    0.0000
     59 C34       12.9836   -0.8413    6.7608 C.3       1 RES1    0.0000
     60 H26       12.1021   -0.4241    6.8455 H         1 RES1    0.0000
     61 H27       13.5580   -0.2302    6.2530 H         1 RES1    0.0000
     62 C35       13.5752   -1.0353    8.1500 C.3       1 RES1    0.0000
     63 H28       13.6380   -0.1763    8.5973 H         1 RES1    0.0000
     64 H29       14.4587   -1.4261    8.0728 H         1 RES1    0.0000
     65 H30       13.0028   -1.6259    8.6653 H         1 RES1    0.0000
     66 C36        2.0648   -1.8853    6.0440 C.3       2 RES2    0.0000
     67 C37        1.7313   -0.9041    4.9146 C.ar      2 RES2    0.0000
     68 C38        0.6823   -1.0054    3.9297 C.ar      2 RES2    0.0000
     69 C39       -0.3894   -1.9109    4.0155 C.ar      2 RES2    0.0000
     70 H31       -0.3938   -2.5466    4.7083 H         2 RES2    0.0000
     71 C40       -1.4322   -1.8992    3.1218 C.ar      2 RES2    0.0000
     72 H32       -2.1429   -2.5084    3.2134 H         2 RES2    0.0000
     73 C41       -1.4292   -0.9775    2.0783 C.ar      2 RES2    0.0000
     74 H33       -2.1518   -0.9461    1.4767 H         2 RES2    0.0000
     75 C42       -0.3750   -0.1166    1.9291 C.ar      2 RES2    0.0000
     76 H34       -0.3740    0.4809    1.2031 H         2 RES2    0.0000
     77 C43        0.7112   -0.0994    2.8307 C.ar      2 RES2    0.0000
     78 C44        1.8610    0.7725    2.6398 C.ar      2 RES2    0.0000
     79 C45        2.0579    1.4937    1.4497 C.ar      2 RES2    0.0000
     80 H35        1.3807    1.4907    0.7965 H         2 RES2    0.0000
     81 C46        3.2021    2.1979    1.2151 C.ar      2 RES2    0.0000
     82 H36        3.2970    2.6837    0.4157 H         2 RES2    0.0000
     83 C47        4.2306    2.1989    2.1579 C.ar      2 RES2    0.0000
     84 H37        5.0405    2.6435    1.9785 H         2 RES2    0.0000
     85 C48        4.0500    1.5456    3.3500 C.ar      2 RES2    0.0000
     86 H38        4.7385    1.5593    3.9888 H         2 RES2    0.0000
     87 C49        2.8602    0.8560    3.6430 C.ar      2 RES2    0.0000
     88 C50        2.6651    0.0920    4.8573 C.ar      2 RES2    0.0000
     89 C51        3.4911    0.0275    6.0820 C.ar      2 RES2    0.0000
     90 C52        4.3083    1.0447    6.7179 C.ar      2 RES2    0.0000
     91 C53        4.2582    2.4045    6.3535 C.ar      2 RES2    0.0000
     92 H39        3.7008    2.6710    5.6454 H         2 RES2    0.0000
     93 C54        5.0072    3.3487    7.0090 C.ar      2 RES2    0.0000
     94 H40        4.9512    4.2538    6.7608 H         2 RES2    0.0000
     95 C55        5.8566    2.9560    8.0491 C.ar      2 RES2    0.0000
     96 H41        6.4101    3.5907    8.4688 H         2 RES2    0.0000
     97 C56        5.8854    1.6543    8.4537 C.ar      2 RES2    0.0000
     98 H42        6.4513    1.4114    9.1626 H         2 RES2    0.0000
     99 C57        5.0888    0.6572    7.8419 C.ar      2 RES2    0.0000
    100 C58        4.9947   -0.6935    8.3701 C.ar      2 RES2    0.0000
    101 C59        5.8224   -1.1489    9.4099 C.ar      2 RES2    0.0000
    102 H43        6.4967   -0.5818    9.7369 H         2 RES2    0.0000
    103 C60        5.6765   -2.3840    9.9579 C.ar      2 RES2    0.0000
    104 H44        6.2405   -2.6533   10.6605 H         2 RES2    0.0000
    105 C61        4.6947   -3.2537    9.4814 C.ar      2 RES2    0.0000
    106 H45        4.5909   -4.1039    9.8684 H         2 RES2    0.0000
    107 C62        3.8806   -2.8688    8.4511 C.ar      2 RES2    0.0000
    108 H46        3.2250   -3.4614    8.1348 H         2 RES2    0.0000
    109 C63        4.0110   -1.5896    7.8524 C.ar      2 RES2    0.0000
    110 C64        3.2410   -1.1670    6.7045 C.ar      2 RES2    0.0000
    111 C65        2.4790   -3.2253    5.3792 C.3       2 RES2    0.0000
    112 H47        2.7121   -3.8639    6.0852 H         2 RES2    0.0000
    113 H48        1.7058   -3.5867    4.8987 H         2 RES2    0.0000
    114 C66        3.6475   -3.1303    4.4088 C.3       2 RES2    0.0000
    115 H49        3.4264   -2.4800    3.7092 H         2 RES2    0.0000
    116 H50        4.4341   -2.7944    4.8896 H         2 RES2    0.0000
    117 C67        4.0004   -4.4428    3.7589 C.3       2 RES2    0.0000
    118 H51        4.7573   -4.3164    3.1650 H         2 RES2    0.0000
    119 H52        3.2408   -4.7660    3.2497 H         2 RES2    0.0000
    120 H53        4.2286   -5.0912    4.4437 H         2 RES2    0.0000
    121 C68        0.9334   -2.0784    7.0848 C.3       2 RES2    0.0000
    122 H54        0.1817   -2.5270    6.6460 H         2 RES2    0.0000
    123 H55        1.2610   -2.6729    7.7917 H         2 RES2    0.0000
    124 C69        0.4278   -0.8051    7.7229 C.3       2 RES2    0.0000
    125 H56        0.1155   -0.1978    7.0208 H         2 RES2    0.0000
    126 H57        1.1691   -0.3653    8.1907 H         2 RES2    0.0000
    127 C70       -0.7094   -1.0519    8.7116 C.3       2 RES2    0.0000
    128 H58       -0.9918   -0.2067    9.0961 H         2 RES2    0.0000
    129 H59       -0.4028   -1.6406    9.4180 H         2 RES2    0.0000
    130 H60       -1.4567   -1.4633    8.2497 H         2 RES2    0.0000
@<TRIPOS>BOND
     1    1    2 1
     2    2    3 ar
     3    3    4 ar
     4    4    5 1
     5    6    4 ar
     6    7    6 1
     7    8    6 ar
     8    9    8 1
     9   10    8 ar
    10   11   10 1
    11   12    3 ar
    12   13   12 ar
    13   14   13 ar
    14   15   14 1
    15   16   14 ar
    16   17   16 1
    17   18   16 ar
    18   19   18 1
    19   20   18 ar
    20   21   20 1
    21   22   13 ar
    22   23    2 ar
    23   24   23 1
    24   25   24 ar
    25   26   25 ar
    26   27   26 1
    27   28   26 ar
    28   29   28 1
    29   30   28 ar
    30   31   30 1
    31   32   30 ar
    32   33   32 1
    33   34   25 ar
    34   35   34 ar
    35   36   35 ar
    36   37   36 1
    37   38   36 ar
    38   39   38 1
    39   40   38 ar
    40   41   40 1
    41   42   40 ar
    42   43   42 1
    43   44   35 ar
    44   45    1 1
    45   46    1 1
    46   47   46 1
    47   48   46 1
    48   49   46 1
    49   50   49 1
    50   51   49 1
    51   52   49 1
    52   53   52 1
    53   54   52 1
    54   55   52 1
    55   56    1 1
    56   57   56 1
    57   58   56 1
    58   59   56 1
    59   60   59 1
    60   61   59 1
    61   62   59 1
    62   63   62 1
    63   64   62 1
    64   65   62 1
    65   66   67 1
    66   67   68 ar
    67   68   69 ar
    68   69   70 1
    69   71   69 ar
    70   72   71 1
    71   73   71 ar
    72   74   73 1
    73   75   73 ar
    74   76   75 1
    75   77   68 ar
    76   78   77 ar
    77   79   78 ar
    78   80   79 1
    79   81   79 ar
    80   82   81 1
    81   83   81 ar
    82   84   83 1
    83   85   83 ar
    84   86   85 1
    85   87   78 ar
    86   88   67 ar
    87   89   88 1
    88   90   89 ar
    89   91   90 ar
    90   92   91 1
    91   93   91 ar
    92   94   93 1
    93   95   93 ar
    94   96   95 1
    95   97   95 ar
    96   98   97 1
    97   99   90 ar
    98  100   99 ar
    99  101  100 ar
   100  102  101 1
   101  103  101 ar
   102  104  103 1
   103  105  103 ar
   104  106  105 1
   105  107  105 ar
   106  108  107 1
   107  109  100 ar
   108  110   66 1
   109  111   66 1
   110  112  111 1
   111  113  111 1
   112  114  111 1
   113  115  114 1
   114  116  114 1
   115  117  114 1
   116  118  117 1
   117  119  117 1
   118  120  117 1
   119  121   66 1
   120  122  121 1
   121  123  121 1
   122  124  121 1
   123  125  124 1
   124  126  124 1
   125  127  124 1
   126  128  127 1
   127  129  127 1
   128  130  127 1
   129   10   12 ar
   130   20   22 ar
   131   22   23 ar
   132   24   45 ar
   133   32   34 ar
   134   42   44 ar
   135   44   45 ar
   136   75   77 ar
   137   85   87 ar
   138   87   88 ar
   139   89  110 ar
   140   97   99 ar
   141  107  109 ar
   142  109  110 ar
@<TRIPOS>SUBSTRUCTURE
     1 RES1 1
     2 RES2 66

@<TRIPOS>CRYSIN
  33.4910    9.7945   15.5100  90.0000 102.9620  90.0000  14 1

