# MOL2 file generated by ConQuest
# Please check atom types

@<TRIPOS>MOLECULE
NAMYUV
    31    34     1
SMALL
NO_CHARGES
****
Generated from CSD

@<TRIPOS>ATOM
      1 C1         2.2441    4.7984   10.0914 C.ar      1 RES1    0.0000
      2 C2         1.4947    3.7503   10.6817 C.ar      1 RES1    0.0000
      3 C3         1.8455    3.3195   11.9633 C.ar      1 RES1    0.0000
      4 C4         2.8945    3.9044   12.6451 C.ar      1 RES1    0.0000
      5 C5         3.6188    4.9220   12.0811 C.ar      1 RES1    0.0000
      6 C6         3.3194    5.3954   10.8077 C.ar      1 RES1    0.0000
      7 C7         4.0498    6.4516   10.1773 C.ar      1 RES1    0.0000
      8 C8         3.7439    6.8935    8.9469 C.ar      1 RES1    0.0000
      9 C9         2.6654    6.3178    8.1917 C.ar      1 RES1    0.0000
     10 C10        1.9138    5.2657    8.7848 C.ar      1 RES1    0.0000
     11 C11        0.8398    4.6605    8.0656 C.ar      1 RES1    0.0000
     12 C12        0.0968    3.6175    8.7072 C.ar      1 RES1    0.0000
     13 C13        0.4014    3.1959    9.9445 C.ar      1 RES1    0.0000
     14 C14        0.5761    5.1035    6.7784 C.ar      1 RES1    0.0000
     15 C15        1.2991    6.1181    6.2006 C.ar      1 RES1    0.0000
     16 C16        2.3417    6.7465    6.8934 C.ar      1 RES1    0.0000
     17 C17        3.0757    7.8118    6.2574 C.1       1 RES1    0.0000
     18 C18        3.6545    8.6866    5.7046 C.1       1 RES1    0.0000
     19 C19        4.3366    9.7660    5.0048 C.3       1 RES1    0.0000
     20 H1         1.3564    2.6151   12.3707 H         1 RES1    0.0000
     21 H2         3.1159    3.5963   13.5166 H         1 RES1    0.0000
     22 H3         4.3371    5.3103   12.5675 H         1 RES1    0.0000
     23 H4         4.7735    6.8529   10.6429 H         1 RES1    0.0000
     24 H5         4.2507    7.6010    8.5672 H         1 RES1    0.0000
     25 H6        -0.6305    3.2162    8.2471 H         1 RES1    0.0000
     26 H7        -0.1226    2.5097   10.3408 H         1 RES1    0.0000
     27 H8        -0.1247    4.6950    6.2837 H         1 RES1    0.0000
     28 H9         1.0898    6.3978    5.3166 H         1 RES1    0.0000
     29 H10        3.9549   10.5972    5.2570 H         1 RES1    0.0000
     30 H11        4.2424    9.6444    4.0668 H         1 RES1    0.0000
     31 H12        5.2599    9.7579    5.2334 H         1 RES1    0.0000
@<TRIPOS>BOND
     1    1    2 ar
     2    2    3 ar
     3    3    4 ar
     4    4    5 ar
     5    5    6 ar
     6    6    1 ar
     7    7    6 ar
     8    8    7 ar
     9    9    8 ar
    10   10    1 ar
    11   11   10 ar
    12   12   11 ar
    13   13    2 ar
    14   14   11 ar
    15   15   14 ar
    16   16    9 ar
    17   17   16 1
    18   18   17 3
    19   19   18 1
    20   20    3 1
    21   21    4 1
    22   22    5 1
    23   23    7 1
    24   24    8 1
    25   25   12 1
    26   26   13 1
    27   27   14 1
    28   28   15 1
    29   29   19 1
    30   30   19 1
    31   31   19 1
    32    9   10 ar
    33   12   13 ar
    34   15   16 ar
@<TRIPOS>SUBSTRUCTURE
     1 RES1 1

@<TRIPOS>CRYSIN
   8.9720   10.1360   14.0600  90.0000  99.7700  90.0000 231 1

