# MOL2 file generated by ConQuest
# Please check atom types

@<TRIPOS>MOLECULE
NAMZEG
    26    28     1
SMALL
NO_CHARGES
****
Generated from CSD

@<TRIPOS>ATOM
      1 C1         2.9378    2.9859   11.9199 C.ar      1 RES1    0.0000
      2 C2         2.9820    1.8129   12.7065 C.ar      1 RES1    0.0000
      3 C3         3.5438    0.6696   12.2542 C.ar      1 RES1    0.0000
      4 C4         4.0954    0.6202   10.9646 C.ar      1 RES1    0.0000
      5 C5         4.0465    1.7487   10.1747 C.ar      1 RES1    0.0000
      6 C6         3.4886    2.9497   10.6118 C.ar      1 RES1    0.0000
      7 C7         3.4705    4.1539    9.8067 C.ar      1 RES1    0.0000
      8 C8         4.0126    4.2147    8.5155 C.ar      1 RES1    0.0000
      9 C9         3.9550    5.3515    7.7593 C.ar      1 RES1    0.0000
     10 C10        3.3529    6.4965    8.2758 C.ar      1 RES1    0.0000
     11 C11        2.8344    6.4800    9.5333 C.ar      1 RES1    0.0000
     12 C12        2.8802    5.3235   10.3283 C.ar      1 RES1    0.0000
     13 C13        2.3318    5.2972   11.6482 C.ar      1 RES1    0.0000
     14 C14        2.3570    4.1868   12.3909 C.ar      1 RES1    0.0000
     15 C15        4.7575   -0.5593   10.5021 C.1       1 RES1    0.0000
     16 C16        5.3359   -1.5020   10.1257 C.1       1 RES1    0.0000
     17 H1         5.7683   -2.2044    9.8067 H         1 RES1    0.0000
     18 H2         2.6064    1.8277   13.5792 H         1 RES1    0.0000
     19 H3         3.5652   -0.1004   12.8095 H         1 RES1    0.0000
     20 H4         4.4071    1.7060    9.2970 H         1 RES1    0.0000
     21 H5         4.4324    3.4415    8.1542 H         1 RES1    0.0000
     22 H6         4.3251    5.3614    6.8849 H         1 RES1    0.0000
     23 H7         3.3048    7.2861    7.7508 H         1 RES1    0.0000
     24 H8         2.4320    7.2664    9.8810 H         1 RES1    0.0000
     25 H9         1.9404    6.0869   12.0043 H         1 RES1    0.0000
     26 H10        1.9743    4.2049   13.2601 H         1 RES1    0.0000
@<TRIPOS>BOND
     1    1    2 ar
     2    2    3 ar
     3    3    4 ar
     4    4    5 ar
     5    5    6 ar
     6    6    1 ar
     7    7    6 ar
     8    8    7 ar
     9    9    8 ar
    10   10    9 ar
    11   11   10 ar
    12   12    7 ar
    13   13   12 ar
    14   14    1 ar
    15   15    4 1
    16   16   15 3
    17   17   16 1
    18   18    2 1
    19   19    3 1
    20   20    5 1
    21   21    8 1
    22   22    9 1
    23   23   10 1
    24   24   11 1
    25   25   13 1
    26   26   14 1
    27   11   12 ar
    28   13   14 ar
@<TRIPOS>SUBSTRUCTURE
     1 RES1 1

@<TRIPOS>CRYSIN
   7.8910   16.4510   16.8790  90.0000  90.0000  90.0000  61 1

