# MOL2 file generated by ConQuest
# Please check atom types

@<TRIPOS>MOLECULE
NAMZOQ
    52    56     2
SMALL
NO_CHARGES
****
Generated from CSD

@<TRIPOS>ATOM
      1 C1         0.3991    1.2039   10.6391 C.ar      1 RES1    0.0000
      2 C2         0.4434    0.4064   11.7979 C.ar      1 RES1    0.0000
      3 C3         1.4018    0.5556   12.7239 C.ar      1 RES1    0.0000
      4 C4         2.3886    1.5331   12.5685 C.ar      1 RES1    0.0000
      5 C5         2.3679    2.3203   11.4545 C.ar      1 RES1    0.0000
      6 C6         1.3990    2.1916   10.4569 C.ar      1 RES1    0.0000
      7 C7         1.3846    2.9839    9.2502 C.ar      1 RES1    0.0000
      8 C8         2.3255    3.9923    8.9903 C.ar      1 RES1    0.0000
      9 C9         2.2863    4.7177    7.8329 C.ar      1 RES1    0.0000
     10 C10        1.3371    4.4862    6.8742 C.ar      1 RES1    0.0000
     11 C11        0.4022    3.5138    7.0922 C.ar      1 RES1    0.0000
     12 C12        0.4287    2.7421    8.2854 C.ar      1 RES1    0.0000
     13 C13       -0.5763    1.7492    8.4960 C.ar      1 RES1    0.0000
     14 C14       -0.6047    1.0187    9.6370 C.ar      1 RES1    0.0000
     15 C15       -1.6331    0.0206    9.8520 C.1       1 RES1    0.0000
     16 C16       -2.4783   -0.7563   10.0671 C.1       1 RES1    0.0000
     17 H1        -0.2255   -0.2577   11.9279 H         1 RES1    0.0000
     18 H2         1.4109   -0.0051   13.4900 H         1 RES1    0.0000
     19 H3         3.0632    1.6453   13.2271 H         1 RES1    0.0000
     20 H4         3.0429    2.9834   11.3529 H         1 RES1    0.0000
     21 H5         3.0023    4.1785    9.6310 H         1 RES1    0.0000
     22 H6         2.9336    5.3973    7.6911 H         1 RES1    0.0000
     23 H7         1.3304    4.9919    6.0692 H         1 RES1    0.0000
     24 H8        -0.2721    3.3559    6.4426 H         1 RES1    0.0000
     25 H9        -1.2345    1.5964    7.8285 H         1 RES1    0.0000
     26 H10       -3.1648   -1.3855   10.2403 H         1 RES1    0.0000
     27 C17        7.2353   -0.0977   14.2143 C.ar      2 RES2    0.0000
     28 C18        7.9534   -0.8386   13.2480 C.ar      2 RES2    0.0000
     29 C19        7.3050   -1.8212   12.5252 C.ar      2 RES2    0.0000
     30 C20        5.9734   -2.0836   12.7627 C.ar      2 RES2    0.0000
     31 C21        5.2746   -1.3736   13.6991 C.ar      2 RES2    0.0000
     32 C22        5.9024   -0.3653   14.4562 C.ar      2 RES2    0.0000
     33 C23        5.1871    0.3859   15.4523 C.ar      2 RES2    0.0000
     34 C24        3.8308    0.2161   15.7585 C.ar      2 RES2    0.0000
     35 C25        3.1694    0.9775   16.6904 C.ar      2 RES2    0.0000
     36 C26        3.8527    1.9293   17.3878 C.ar      2 RES2    0.0000
     37 C27        5.1962    2.1351   17.1473 C.ar      2 RES2    0.0000
     38 C28        5.8820    1.3736   16.1975 C.ar      2 RES2    0.0000
     39 C29        7.2669    1.6103   15.9481 C.ar      2 RES2    0.0000
     40 C30        7.9201    0.9158   14.9759 C.ar      2 RES2    0.0000
     41 C31        7.9919    2.5981   16.7053 C.1       2 RES2    0.0000
     42 C32        8.5263    3.3801   17.3788 C.1       2 RES2    0.0000
     43 H11        8.8752   -0.6642   13.0972 H         2 RES2    0.0000
     44 H12        7.7766   -2.3167   11.8666 H         2 RES2    0.0000
     45 H13        5.5334   -2.7632   12.2684 H         2 RES2    0.0000
     46 H14        4.3554   -1.5594   13.8409 H         2 RES2    0.0000
     47 H15        3.3457   -0.4579   15.2970 H         2 RES2    0.0000
     48 H16        2.2428    0.8386   16.8487 H         2 RES2    0.0000
     49 H17        3.4025    2.4525   18.0389 H         2 RES2    0.0000
     50 H18        5.6596    2.8018   17.6372 H         2 RES2    0.0000
     51 H19        8.8355    1.1005   14.7982 H         2 RES2    0.0000
     52 H20        8.9644    4.0180   17.9299 H         2 RES2    0.0000
@<TRIPOS>BOND
     1    1    2 ar
     2    2    3 ar
     3    3    4 ar
     4    4    5 ar
     5    5    6 ar
     6    6    1 ar
     7    7    6 ar
     8    8    7 ar
     9    9    8 ar
    10   10    9 ar
    11   11   10 ar
    12   12    7 ar
    13   13   12 ar
    14   14    1 ar
    15   15   14 1
    16   16   15 3
    17   17    2 1
    18   18    3 1
    19   19    4 1
    20   20    5 1
    21   21    8 1
    22   22    9 1
    23   23   10 1
    24   24   11 1
    25   25   13 1
    26   26   16 1
    27   27   28 ar
    28   28   29 ar
    29   29   30 ar
    30   30   31 ar
    31   31   32 ar
    32   32   27 ar
    33   33   32 ar
    34   34   33 ar
    35   35   34 ar
    36   36   35 ar
    37   37   36 ar
    38   38   33 ar
    39   39   38 ar
    40   40   27 ar
    41   41   39 1
    42   42   41 3
    43   43   28 1
    44   44   29 1
    45   45   30 1
    46   46   31 1
    47   47   34 1
    48   48   35 1
    49   49   36 1
    50   50   37 1
    51   51   40 1
    52   52   42 1
    53   11   12 ar
    54   13   14 ar
    55   37   38 ar
    56   39   40 ar
@<TRIPOS>SUBSTRUCTURE
     1 RES1 1
     2 RES2 27

@<TRIPOS>CRYSIN
  27.7550    5.1447   15.5000  90.0000 105.5300  90.0000  14 1

