# MOL2 file generated by ConQuest
# Please check atom types

@<TRIPOS>MOLECULE
NAPCPR01
    19    21     1
SMALL
NO_CHARGES
****
Generated from CSD

@<TRIPOS>ATOM
      1 C1         2.1231    7.7220    2.7339 C.3       1 RES1    0.0000
      2 H1         2.5543    7.7220    3.6320 H         1 RES1    0.0000
      3 H2         1.0971    7.7220    2.6917 H         1 RES1    0.0000
      4 C2         2.8515    7.0343    1.6129 C.ar      1 RES1    0.0000
      5 C3         3.4577    6.2529    0.6872 C.ar      1 RES1    0.0000
      6 H3         3.4669    5.2510    0.6892 H         1 RES1    0.0000
      7 C4         4.1429    6.9979   -0.3382 C.ar      1 RES1    0.0000
      8 C5         4.8506    6.3215   -1.3664 C.ar      1 RES1    0.0000
      9 H4         4.8582    5.3189   -1.3509 H         1 RES1    0.0000
     10 C6         5.5313    7.0144   -2.3383 C.ar      1 RES1    0.0000
     11 H5         6.0179    6.5050   -3.0321 H         1 RES1    0.0000
     12 C2G        2.8515    8.4097    1.6129 C.ar      1 RES1    0.0000
     13 C3G        3.4577    9.1911    0.6872 C.ar      1 RES1    0.0000
     14 H3G        3.4669   10.1930    0.6892 H         1 RES1    0.0000
     15 C4G        4.1429    8.4461   -0.3382 C.ar      1 RES1    0.0000
     16 C6G        5.5313    8.4296   -2.3383 C.ar      1 RES1    0.0000
     17 C5G        4.8506    9.1225   -1.3664 C.ar      1 RES1    0.0000
     18 H4G        4.8582   10.1251   -1.3509 H         1 RES1    0.0000
     19 H5G        6.0179    8.9390   -3.0321 H         1 RES1    0.0000
@<TRIPOS>BOND
     1    1    2 1
     2    3    1 1
     3    4    1 1
     4    5    4 ar
     5    6    5 1
     6    7    5 ar
     7    8    7 ar
     8    9    8 1
     9   10    8 ar
    10   11   10 1
    11   12    1 1
    12   13   12 ar
    13   14   13 1
    14   15    7 ar
    15   16   10 ar
    16   17   15 ar
    17   18   17 1
    18   19   16 1
    19    4   12 ar
    20   13   15 ar
    21   16   17 ar
@<TRIPOS>SUBSTRUCTURE
     1 RES1 1

@<TRIPOS>CRYSIN
  11.1836   10.2960    6.3753  90.0000  90.0000  90.0000  62 1

