# MOL2 file generated by ConQuest
# Please check atom types

@<TRIPOS>MOLECULE
NAPCBU
    22    24     1
SMALL
NO_CHARGES
****
Generated from CSD

@<TRIPOS>ATOM
      1 C1        -1.4598    1.0582    0.8212 C.ar      1 RES1    0.0000
      2 C2         0.6504    2.0827    1.6042 C.ar      1 RES1    0.0000
      3 C3        -1.6238   -1.3790    2.0558 C.3       1 RES1    0.0000
      4 C4        -0.3284   -1.4389    2.9302 C.3       1 RES1    0.0000
      5 C5        -1.1557   -0.0072    1.5987 C.ar      1 RES1    0.0000
      6 C6         0.0139   -0.0658    2.3793 C.ar      1 RES1    0.0000
      7 C7         0.9216    0.9384    2.4047 C.ar      1 RES1    0.0000
      8 C8         1.5464    3.1786    1.5478 C.ar      1 RES1    0.0000
      9 C9         1.3028    4.2593    0.7576 C.ar      1 RES1    0.0000
     10 C10        0.1357    4.3178   -0.0199 C.ar      1 RES1    0.0000
     11 C11       -0.7614    3.2962    0.0191 C.ar      1 RES1    0.0000
     12 C12       -0.5407    2.1443    0.8117 C.ar      1 RES1    0.0000
     13 H1        -2.2720    1.1349    0.2544 H         1 RES1    0.0000
     14 H2        -0.4897   -1.4826    3.9032 H         1 RES1    0.0000
     15 H3         1.7346    0.8953    2.9493 H         1 RES1    0.0000
     16 H4         2.3644    3.1184    2.1146 H         1 RES1    0.0000
     17 H5         1.9487    5.0046    0.7393 H         1 RES1    0.0000
     18 H6        -0.0297    5.1145   -0.6042 H         1 RES1    0.0000
     19 H7        -1.6008    3.3364   -0.5247 H         1 RES1    0.0000
     20 H8        -1.6870   -2.0681    1.3514 H         1 RES1    0.0000
     21 H9        -2.4762   -1.3818    2.5677 H         1 RES1    0.0000
     22 H10        0.3238   -2.1816    2.7029 H         1 RES1    0.0000
@<TRIPOS>BOND
     1    1    5 ar
     2    2    7 ar
     3    3    4 1
     4    4    6 1
     5    5    3 1
     6    6    5 ar
     7    7    6 ar
     8    8    2 ar
     9    9    8 ar
    10   10    9 ar
    11   11   10 ar
    12   12    1 ar
    13   13    1 1
    14   14    4 1
    15   15    7 1
    16   16    8 1
    17   17    9 1
    18   18   10 1
    19   19   11 1
    20   20    3 1
    21   21    3 1
    22   22    4 1
    23    2   12 ar
    24   11   12 ar
@<TRIPOS>SUBSTRUCTURE
     1 RES1 1

@<TRIPOS>CRYSIN
   5.7960   18.0150    8.2910  90.0000 106.5000  90.0000  14 1

