# MOL2 file generated by ConQuest
# Please check atom types

@<TRIPOS>MOLECULE
NAPHTA
    10    11     1
SMALL
NO_CHARGES
****
Generated from CSD

@<TRIPOS>ATOM
      1 C1        -0.8136    0.0918    2.3620 C.ar      1 RES1    0.0000
      2 C2        -0.0956    0.9605    1.5887 C.ar      1 RES1    0.0000
      3 C3         0.2293    0.6105    0.2500 C.ar      1 RES1    0.0000
      4 C4         0.9853    1.4821   -0.5756 C.ar      1 RES1    0.0000
      5 C5        -1.2756   -1.1208    1.8431 C.ar      1 RES1    0.0000
      6 C3B       -0.2293   -0.6105   -0.2500 C.ar      1 RES1    0.0000
      7 C5B        1.2756    1.1208   -1.8431 C.ar      1 RES1    0.0000
      8 C4B       -0.9853   -1.4821    0.5756 C.ar      1 RES1    0.0000
      9 C2B        0.0956   -0.9605   -1.5887 C.ar      1 RES1    0.0000
     10 C1B        0.8136   -0.0918   -2.3620 C.ar      1 RES1    0.0000
@<TRIPOS>BOND
     1    1    2 ar
     2    2    3 ar
     3    3    4 ar
     4    4    7 ar
     5    5    1 ar
     6    6    3 ar
     7    7   10 ar
     8    8    5 ar
     9    9    6 ar
    10   10    9 ar
    11    6    8 ar
@<TRIPOS>SUBSTRUCTURE
     1 RES1 1

@<TRIPOS>CRYSIN
   8.2350    6.0030    8.6580  90.0000 122.9200  90.0000  14 2

