# MOL2 file generated by ConQuest
# Please check atom types

@<TRIPOS>MOLECULE
NAPHTA32
    18    19     1
SMALL
NO_CHARGES
****
Generated from CSD

@<TRIPOS>ATOM
      1 C1        -0.9530    0.1179    2.3411 C.ar      1 RES1    0.0000
      2 C2        -0.1850    0.9750    1.5876 C.ar      1 RES1    0.0000
      3 C3         0.2046    0.6279    0.2658 C.ar      1 RES1    0.0000
      4 C4         0.9913    1.4975   -0.5358 C.ar      1 RES1    0.0000
      5 C5        -1.3611   -1.1341    1.8098 C.ar      1 RES1    0.0000
      6 H1        -1.2473    0.4058    3.3496 H         1 RES1    0.0000
      7 H2         0.1319    1.9384    1.9839 H         1 RES1    0.0000
      8 H3         1.3048    2.4552   -0.1201 H         1 RES1    0.0000
      9 H4        -1.9741   -1.8049    2.4052 H         1 RES1    0.0000
     10 C1B        0.9530   -0.1179   -2.3411 C.ar      1 RES1    0.0000
     11 C2B        0.1850   -0.9750   -1.5876 C.ar      1 RES1    0.0000
     12 C3B       -0.2046   -0.6279   -0.2658 C.ar      1 RES1    0.0000
     13 C4B       -0.9913   -1.4975    0.5358 C.ar      1 RES1    0.0000
     14 C5B        1.3611    1.1341   -1.8098 C.ar      1 RES1    0.0000
     15 H1B        1.2473   -0.4058   -3.3496 H         1 RES1    0.0000
     16 H2B       -0.1319   -1.9384   -1.9839 H         1 RES1    0.0000
     17 H3B       -1.3048   -2.4552    0.1201 H         1 RES1    0.0000
     18 H4B        1.9741    1.8049   -2.4052 H         1 RES1    0.0000
@<TRIPOS>BOND
     1    1    2 ar
     2    2    3 ar
     3    3    4 ar
     4    4    8 1
     5    5    1 ar
     6    6    1 1
     7    7    2 1
     8    9    5 1
     9   10   11 ar
    10   11   12 ar
    11   12    3 ar
    12   13    5 ar
    13   14    4 ar
    14   15   10 1
    15   16   11 1
    16   17   13 1
    17   18   14 1
    18   10   14 ar
    19   12   13 ar
@<TRIPOS>SUBSTRUCTURE
     1 RES1 1

@<TRIPOS>CRYSIN
   8.0815    5.9334    8.6344  90.0000 124.6200  90.0000  14 2

