# MOL2 file generated by ConQuest
# Please check atom types

@<TRIPOS>MOLECULE
NAPHTA22
    18    19     1
SMALL
NO_CHARGES
****
Generated from CSD

@<TRIPOS>ATOM
      1 C1        -0.9594    0.1161    2.3322 C.ar      1 RES1    0.0000
      2 H1        -1.2206    0.3604    3.1910 H         1 RES1    0.0000
      3 C2        -0.2049    0.9829    1.5765 C.ar      1 RES1    0.0000
      4 H2         0.0455    1.8061    1.9298 H         1 RES1    0.0000
      5 C3         0.1965    0.6282    0.2565 C.ar      1 RES1    0.0000
      6 C4         0.9729    1.5046   -0.5511 C.ar      1 RES1    0.0000
      7 H3         1.2322    2.3325   -0.2150 H         1 RES1    0.0000
      8 C5        -1.3417   -1.1431    1.8136 C.ar      1 RES1    0.0000
      9 H4        -1.8458   -1.7255    2.3350 H         1 RES1    0.0000
     10 C1B        0.9594   -0.1161   -2.3322 C.ar      1 RES1    0.0000
     11 H1B        1.2206   -0.3604   -3.1910 H         1 RES1    0.0000
     12 C2B        0.2049   -0.9829   -1.5765 C.ar      1 RES1    0.0000
     13 H2B       -0.0455   -1.8061   -1.9298 H         1 RES1    0.0000
     14 C3B       -0.1965   -0.6282   -0.2565 C.ar      1 RES1    0.0000
     15 C4B       -0.9729   -1.5046    0.5511 C.ar      1 RES1    0.0000
     16 H3B       -1.2322   -2.3325    0.2150 H         1 RES1    0.0000
     17 C5B        1.3417    1.1431   -1.8136 C.ar      1 RES1    0.0000
     18 H4B        1.8458    1.7255   -2.3350 H         1 RES1    0.0000
@<TRIPOS>BOND
     1    1    2 1
     2    3    1 ar
     3    4    3 1
     4    5    3 ar
     5    6    5 ar
     6    7    6 1
     7    8    1 ar
     8    9    8 1
     9   10   11 1
    10   12   10 ar
    11   13   12 1
    12   14    5 ar
    13   15    8 ar
    14   16   15 1
    15   17    6 ar
    16   18   17 1
    17   10   17 ar
    18   12   14 ar
    19   14   15 ar
@<TRIPOS>SUBSTRUCTURE
     1 RES1 1

@<TRIPOS>CRYSIN
   7.6778    5.7210    8.3950  90.0000 124.5500  90.0000  14 2

