# MOL2 file generated by ConQuest
# Please check atom types

@<TRIPOS>MOLECULE
NAPHTA26
    18    19     1
SMALL
NO_CHARGES
****
Generated from CSD

@<TRIPOS>ATOM
      1 C1        -0.9408    0.1143    2.3454 C.ar      1 RES1    0.0000
      2 C2        -0.1748    0.9715    1.5890 C.ar      1 RES1    0.0000
      3 C3         0.2074    0.6268    0.2667 C.ar      1 RES1    0.0000
      4 C4         0.9922    1.4965   -0.5393 C.ar      1 RES1    0.0000
      5 C5        -1.3550   -1.1331    1.8144 C.ar      1 RES1    0.0000
      6 H1        -1.2089    0.3724    3.2756 H         1 RES1    0.0000
      7 H2         0.1248    1.8431    1.9416 H         1 RES1    0.0000
      8 H3         1.2841    2.3302   -0.1818 H         1 RES1    0.0000
      9 H4        -1.9189   -1.7493    2.3637 H         1 RES1    0.0000
     10 C1B        0.9408   -0.1143   -2.3454 C.ar      1 RES1    0.0000
     11 C2B        0.1748   -0.9715   -1.5890 C.ar      1 RES1    0.0000
     12 C3B       -0.2074   -0.6268   -0.2667 C.ar      1 RES1    0.0000
     13 C4B       -0.9922   -1.4965    0.5393 C.ar      1 RES1    0.0000
     14 C5B        1.3550    1.1331   -1.8144 C.ar      1 RES1    0.0000
     15 H1B        1.2089   -0.3724   -3.2756 H         1 RES1    0.0000
     16 H2B       -0.1248   -1.8431   -1.9416 H         1 RES1    0.0000
     17 H3B       -1.2841   -2.3302    0.1818 H         1 RES1    0.0000
     18 H4B        1.9189    1.7493   -2.3637 H         1 RES1    0.0000
@<TRIPOS>BOND
     1    1    2 ar
     2    2    3 ar
     3    3    4 ar
     4    4    8 1
     5    5    1 ar
     6    6    1 1
     7    7    2 1
     8    9    5 1
     9   10   11 ar
    10   11   12 ar
    11   12    3 ar
    12   13    5 ar
    13   14    4 ar
    14   15   10 1
    15   16   11 1
    16   17   13 1
    17   18   14 1
    18   10   14 ar
    19   12   13 ar
@<TRIPOS>SUBSTRUCTURE
     1 RES1 1

@<TRIPOS>CRYSIN
   8.1125    5.9398    8.6490  90.0000 124.4720  90.0000  14 2

