# MOL2 file generated by ConQuest
# Please check atom types

@<TRIPOS>MOLECULE
NAPHTA04
    18    19     1
SMALL
NO_CHARGES
****
Generated from CSD

@<TRIPOS>ATOM
      1 C1        -0.9384    0.1105    2.3441 C.ar      1 RES1    0.0000
      2 C2        -0.1748    0.9753    1.5912 C.ar      1 RES1    0.0000
      3 C3         0.2071    0.6261    0.2651 C.ar      1 RES1    0.0000
      4 C4         0.9906    1.4991   -0.5413 C.ar      1 RES1    0.0000
      5 C5        -1.3514   -1.1323    1.8176 C.ar      1 RES1    0.0000
      6 H1        -1.2203    0.3506    3.2510 H         1 RES1    0.0000
      7 H2         0.1220    1.8192    1.9354 H         1 RES1    0.0000
      8 H3         1.2637    2.3258   -0.1685 H         1 RES1    0.0000
      9 H4        -1.8891   -1.7573    2.3651 H         1 RES1    0.0000
     10 C3B       -0.2071   -0.6261   -0.2651 C.ar      1 RES1    0.0000
     11 C5B        1.3514    1.1323   -1.8176 C.ar      1 RES1    0.0000
     12 C4B       -0.9906   -1.4991    0.5413 C.ar      1 RES1    0.0000
     13 C2B        0.1748   -0.9753   -1.5912 C.ar      1 RES1    0.0000
     14 C1B        0.9384   -0.1105   -2.3441 C.ar      1 RES1    0.0000
     15 H4B        1.8891    1.7573   -2.3651 H         1 RES1    0.0000
     16 H3B       -1.2637   -2.3258    0.1685 H         1 RES1    0.0000
     17 H2B       -0.1220   -1.8192   -1.9354 H         1 RES1    0.0000
     18 H1B        1.2203   -0.3506   -3.2510 H         1 RES1    0.0000
@<TRIPOS>BOND
     1    1    2 ar
     2    2    3 ar
     3    3    4 ar
     4    4    8 1
     5    5    1 ar
     6    6    1 1
     7    7    2 1
     8    9    5 1
     9   10    3 ar
    10   11    4 ar
    11   12    5 ar
    12   13   10 ar
    13   14   11 ar
    14   15   11 1
    15   16   12 1
    16   17   13 1
    17   18   14 1
    18   10   12 ar
    19   13   14 ar
@<TRIPOS>SUBSTRUCTURE
     1 RES1 1

@<TRIPOS>CRYSIN
   8.0980    5.9530    8.6520  90.0000 124.4000  90.0000  14 2

