# MOL2 file generated by ConQuest
# Please check atom types

@<TRIPOS>MOLECULE
NAPHTA11
    10    11     1
SMALL
NO_CHARGES
****
Generated from CSD

@<TRIPOS>ATOM
      1 C1        -0.8248    0.1117    2.3628 C.ar      1 RES1    0.0000
      2 C2        -1.2912   -1.1220    1.8467 C.ar      1 RES1    0.0000
      3 C3        -0.0898    0.9533    1.5989 C.ar      1 RES1    0.0000
      4 C4        -0.9857   -1.4833    0.5698 C.ar      1 RES1    0.0000
      5 C5         0.2235    0.6153    0.2551 C.ar      1 RES1    0.0000
      6 C5B       -0.2235   -0.6153   -0.2551 C.ar      1 RES1    0.0000
      7 C4B        0.9857    1.4833   -0.5698 C.ar      1 RES1    0.0000
      8 C3B        0.0898   -0.9533   -1.5989 C.ar      1 RES1    0.0000
      9 C2B        1.2912    1.1220   -1.8467 C.ar      1 RES1    0.0000
     10 C1B        0.8248   -0.1117   -2.3628 C.ar      1 RES1    0.0000
@<TRIPOS>BOND
     1    1    2 ar
     2    2    4 ar
     3    3    1 ar
     4    4    6 ar
     5    5    3 ar
     6    6    5 ar
     7    7    5 ar
     8    8    6 ar
     9    9    7 ar
    10   10    8 ar
    11    9   10 ar
@<TRIPOS>SUBSTRUCTURE
     1 RES1 1

@<TRIPOS>CRYSIN
   8.2350    6.0030    8.6580  90.0000 122.9200  90.0000  14 2

