# MOL2 file generated by ConQuest
# Please check atom types

@<TRIPOS>MOLECULE
NAPHTA17
    18    19     1
SMALL
NO_CHARGES
****
Generated from CSD

@<TRIPOS>ATOM
      1 C1        -1.7550    0.1099   -1.8090 C.ar      1 RES1    0.0000
      2 C2        -1.3822    0.9644   -0.8018 C.ar      1 RES1    0.0000
      3 C3        -0.3303    0.6222    0.0824 C.ar      1 RES1    0.0000
      4 C4         0.0775    1.4883    1.1255 C.ar      1 RES1    0.0000
      5 C5        -1.0955   -1.1293   -1.9738 C.ar      1 RES1    0.0000
      6 H1        -2.5564    0.4033   -2.4761 H         1 RES1    0.0000
      7 H2        -1.8697    1.9217   -0.6618 H         1 RES1    0.0000
      8 H3        -0.4427    2.4321    1.2342 H         1 RES1    0.0000
      9 H4        -1.3769   -1.8107   -2.7674 H         1 RES1    0.0000
     10 C3B        0.3303   -0.6222   -0.0824 C.ar      1 RES1    0.0000
     11 C2B        1.3822   -0.9644    0.8018 C.ar      1 RES1    0.0000
     12 C1B        1.7550   -0.1099    1.8090 C.ar      1 RES1    0.0000
     13 C5B        1.0955    1.1293    1.9738 C.ar      1 RES1    0.0000
     14 H4B        1.3769    1.8107    2.7674 H         1 RES1    0.0000
     15 H1B        2.5564   -0.4033    2.4761 H         1 RES1    0.0000
     16 H2B        1.8697   -1.9217    0.6618 H         1 RES1    0.0000
     17 C4B       -0.0775   -1.4883   -1.1255 C.ar      1 RES1    0.0000
     18 H3B        0.4427   -2.4321   -1.2342 H         1 RES1    0.0000
@<TRIPOS>BOND
     1    1    2 ar
     2    2    3 ar
     3    3    4 ar
     4    4    8 1
     5    5    1 ar
     6    6    1 1
     7    7    2 1
     8    9    5 1
     9   10    3 ar
    10   11   10 ar
    11   12   11 ar
    12   13    4 ar
    13   14   13 1
    14   15   12 1
    15   16   11 1
    16   17    5 ar
    17   18   17 1
    18   10   17 ar
    19   12   13 ar
@<TRIPOS>SUBSTRUCTURE
     1 RES1 1

@<TRIPOS>CRYSIN
   7.8926    5.9426    8.1383  90.0000 114.7640  90.0000  14 1

