# MOL2 file generated by ConQuest
# Please check atom types

@<TRIPOS>MOLECULE
NAPHTA36
    18    19     1
SMALL
NO_CHARGES
****
Generated from CSD

@<TRIPOS>ATOM
      1 C1        -0.8231    0.1041    2.3854 C.ar      1 RES1    0.0000
      2 C2        -0.0798    0.9531    1.6015 C.ar      1 RES1    0.0000
      3 C3         0.2314    0.6162    0.2642 C.ar      1 RES1    0.0000
      4 C4         0.9895    1.4784   -0.5672 C.ar      1 RES1    0.0000
      5 C5        -1.2810   -1.1230    1.8570 C.ar      1 RES1    0.0000
      6 H1        -1.0492    0.3781    3.3950 H         1 RES1    0.0000
      7 H2         0.2823    1.8990    1.9898 H         1 RES1    0.0000
      8 H3         1.3357    2.4117   -0.1693 H         1 RES1    0.0000
      9 H4        -1.8688   -1.7865    2.4723 H         1 RES1    0.0000
     10 C1B        0.8231   -0.1041   -2.3854 C.ar      1 RES1    0.0000
     11 C2B        0.0798   -0.9531   -1.6015 C.ar      1 RES1    0.0000
     12 C3B       -0.2314   -0.6162   -0.2642 C.ar      1 RES1    0.0000
     13 C4B       -0.9895   -1.4784    0.5672 C.ar      1 RES1    0.0000
     14 C5B        1.2810    1.1230   -1.8570 C.ar      1 RES1    0.0000
     15 H1B        1.0492   -0.3781   -3.3950 H         1 RES1    0.0000
     16 H2B       -0.2823   -1.8990   -1.9898 H         1 RES1    0.0000
     17 H3B       -1.3357   -2.4117    0.1693 H         1 RES1    0.0000
     18 H4B        1.8688    1.7865   -2.4723 H         1 RES1    0.0000
@<TRIPOS>BOND
     1    1    2 ar
     2    2    3 ar
     3    3    4 ar
     4    4    8 1
     5    5    1 ar
     6    6    1 1
     7    7    2 1
     8    9    5 1
     9   10   11 ar
    10   11   12 ar
    11   12    3 ar
    12   13    5 ar
    13   14    4 ar
    14   15   10 1
    15   16   11 1
    16   17   13 1
    17   18   14 1
    18   10   14 ar
    19   12   13 ar
@<TRIPOS>SUBSTRUCTURE
     1 RES1 1

@<TRIPOS>CRYSIN
   8.2560    5.9830    8.6770  90.0000 122.7290  90.0000  14 2

