# MOL2 file generated by ConQuest
# Please check atom types

@<TRIPOS>MOLECULE
NAPPYR
    76    96     2
SMALL
NO_CHARGES
****
Generated from CSD

@<TRIPOS>ATOM
      1 C1         3.1135   -1.2413   -2.0138 C.ar      1 RES1    0.0000
      2 C2         4.4502   -1.6923   -2.3540 C.ar      1 RES1    0.0000
      3 C3         5.4654   -1.4341   -1.4084 C.ar      1 RES1    0.0000
      4 C4         5.1109   -0.7903   -0.1097 C.ar      1 RES1    0.0000
      5 C5         6.1329   -0.5358    0.8633 C.ar      1 RES1    0.0000
      6 C6         5.8184   -0.0116    2.1546 C.ar      1 RES1    0.0000
      7 C7         4.4493    0.2699    2.5131 C.ar      1 RES1    0.0000
      8 C8         4.1271    0.7826    3.7788 C.ar      1 RES1    0.0000
      9 C9         2.8111    0.9638    4.1208 C.ar      1 RES1    0.0000
     10 C10        1.7542    0.7402    3.2081 C.ar      1 RES1    0.0000
     11 C11        0.3896    0.8712    3.6069 C.ar      1 RES1    0.0000
     12 C12       -0.6958    0.4048    2.7180 C.ar      1 RES1    0.0000
     13 C13       -0.3418    0.0193    1.3626 C.ar      1 RES1    0.0000
     14 C14        1.0297    0.0386    0.9767 C.ar      1 RES1    0.0000
     15 C15        2.0657    0.2699    1.9388 C.ar      1 RES1    0.0000
     16 C16        3.4188    0.0501    1.5455 C.ar      1 RES1    0.0000
     17 C17        3.7780   -0.4433    0.2286 C.ar      1 RES1    0.0000
     18 C18        2.7605   -0.5975   -0.7334 C.ar      1 RES1    0.0000
     19 C19       -1.3723   -0.1812    0.3878 C.ar      1 RES1    0.0000
     20 C20        5.6362    0.5436   -5.9371 C.ar      2 RES2    0.0000
     21 C21        6.6931    0.0578   -5.0244 C.ar      2 RES2    0.0000
     22 C22        8.0091    0.2737   -5.3664 C.ar      2 RES2    0.0000
     23 C23        8.3312    0.7980   -6.6321 C.ar      2 RES2    0.0000
     24 C24        9.7003    1.1604   -6.9906 C.ar      2 RES2    0.0000
     25 C25       10.0149    1.6615   -8.2819 C.ar      2 RES2    0.0000
     26 C26        8.9928    1.9622   -9.2550 C.ar      2 RES2    0.0000
     27 C27        9.3474    2.4672  -10.5536 C.ar      2 RES2    0.0000
     28 C28        8.3321    2.6599  -11.4992 C.ar      2 RES2    0.0000
     29 C29        6.9954    2.4017  -11.1590 C.ar      2 RES2    0.0000
     30 C30        5.9426    2.4556  -12.1467 C.ar      2 RES2    0.0000
     31 C31        4.5777    2.0162  -11.8632 C.ar      2 RES2    0.0000
     32 C32        4.2237    1.6422  -10.5079 C.ar      2 RES2    0.0000
     33 C33        5.2542    1.7078   -9.5330 C.ar      2 RES2    0.0000
     34 C34        6.6424    1.9660   -9.8787 C.ar      2 RES2    0.0000
     35 C35        7.6599    1.7347   -8.9166 C.ar      2 RES2    0.0000
     36 C36        7.3007    1.2760   -7.5997 C.ar      2 RES2    0.0000
     37 C37        5.9476    1.1449   -7.2064 C.ar      2 RES2    0.0000
     38 C38        2.8522    1.3724  -10.1219 C.ar      2 RES2    0.0000
     39 C19B       1.3723   -0.1812   -0.3878 C.ar      1 RES1    0.0000
     40 C14B      -1.0297    0.0385   -0.9767 C.ar      1 RES1    0.0000
     41 C18B      -2.7605   -0.5975    0.7334 C.ar      1 RES1    0.0000
     42 C13B       0.3418    0.0193   -1.3626 C.ar      1 RES1    0.0000
     43 C15B      -2.0657    0.2698   -1.9388 C.ar      1 RES1    0.0000
     44 C1B       -3.1135   -1.2413    2.0138 C.ar      1 RES1    0.0000
     45 C17B      -3.7780   -0.4433   -0.2286 C.ar      1 RES1    0.0000
     46 C12B       0.6958    0.4048   -2.7180 C.ar      1 RES1    0.0000
     47 C10B      -1.7542    0.7402   -3.2081 C.ar      1 RES1    0.0000
     48 C16B      -3.4188    0.0501   -1.5455 C.ar      1 RES1    0.0000
     49 C2B       -4.4502   -1.6923    2.3540 C.ar      1 RES1    0.0000
     50 C4B       -5.1109   -0.7903    0.1097 C.ar      1 RES1    0.0000
     51 C11B      -0.3896    0.8712   -3.6069 C.ar      1 RES1    0.0000
     52 C9B       -2.8111    0.9637   -4.1208 C.ar      1 RES1    0.0000
     53 C7B       -4.4493    0.2698   -2.5131 C.ar      1 RES1    0.0000
     54 C3B       -5.4654   -1.4341    1.4084 C.ar      1 RES1    0.0000
     55 C5B       -6.1329   -0.5358   -0.8633 C.ar      1 RES1    0.0000
     56 C8B       -4.1271    0.7826   -3.7788 C.ar      1 RES1    0.0000
     57 C6B       -5.8184   -0.0116   -2.1546 C.ar      1 RES1    0.0000
     58 C38B       4.9116    1.3724   -8.1685 C.ar      2 RES2    0.0000
     59 C33B       2.5096    1.7078   -8.7575 C.ar      2 RES2    0.0000
     60 C37B       1.8163    1.1449  -11.0840 C.ar      2 RES2    0.0000
     61 C32B       3.5401    1.6422   -7.7826 C.ar      2 RES2    0.0000
     62 C34B       1.1214    1.9660   -8.4118 C.ar      2 RES2    0.0000
     63 C20B       2.1277    0.5436  -12.3534 C.ar      2 RES2    0.0000
     64 C36B       0.4632    1.2760  -10.6908 C.ar      2 RES2    0.0000
     65 C31B       3.1861    2.0162   -6.4273 C.ar      2 RES2    0.0000
     66 C29B       0.7685    2.4017   -7.1314 C.ar      2 RES2    0.0000
     67 C35B       0.1039    1.7347   -9.3738 C.ar      2 RES2    0.0000
     68 C21B       1.0708    0.0578  -13.2660 C.ar      2 RES2    0.0000
     69 C23B      -0.5674    0.7980  -11.6583 C.ar      2 RES2    0.0000
     70 C30B       1.8212    2.4556   -6.1438 C.ar      2 RES2    0.0000
     71 C28B      -0.5683    2.6599   -6.7912 C.ar      2 RES2    0.0000
     72 C26B      -1.2290    1.9622   -9.0355 C.ar      2 RES2    0.0000
     73 C22B      -0.2452    0.2737  -12.9240 C.ar      2 RES2    0.0000
     74 C24B      -1.9365    1.1604  -11.2998 C.ar      2 RES2    0.0000
     75 C27B      -1.5835    2.4672   -7.7369 C.ar      2 RES2    0.0000
     76 C25B      -2.2510    1.6615  -10.0085 C.ar      2 RES2    0.0000
@<TRIPOS>BOND
     1    1    2 ar
     2    2    3 ar
     3    3    4 ar
     4    4    5 ar
     5    5    6 ar
     6    6    7 ar
     7    7    8 ar
     8    8    9 ar
     9    9   10 ar
    10   10   11 ar
    11   11   12 ar
    12   12   13 ar
    13   13   14 ar
    14   14   15 ar
    15   15   10 ar
    16   16    7 ar
    17   17    4 ar
    18   18    1 ar
    19   19   13 ar
    20   20   21 ar
    21   21   22 ar
    22   22   23 ar
    23   23   24 ar
    24   24   25 ar
    25   25   26 ar
    26   26   27 ar
    27   27   28 ar
    28   28   29 ar
    29   29   30 ar
    30   30   31 ar
    31   31   32 ar
    32   32   33 ar
    33   33   34 ar
    34   34   29 ar
    35   35   26 ar
    36   36   23 ar
    37   37   20 ar
    38   38   32 ar
    39   39   14 ar
    40   40   19 ar
    41   41   19 ar
    42   42   39 ar
    43   43   40 ar
    44   44   41 ar
    45   45   41 ar
    46   46   42 ar
    47   47   43 ar
    48   48   43 ar
    49   49   44 ar
    50   50   45 ar
    51   51   46 ar
    52   52   47 ar
    53   53   48 ar
    54   54   49 ar
    55   55   50 ar
    56   56   52 ar
    57   57   53 ar
    58   58   33 ar
    59   59   38 ar
    60   60   38 ar
    61   61   58 ar
    62   62   59 ar
    63   63   60 ar
    64   64   60 ar
    65   65   61 ar
    66   66   62 ar
    67   67   62 ar
    68   68   63 ar
    69   69   64 ar
    70   70   65 ar
    71   71   66 ar
    72   72   67 ar
    73   73   68 ar
    74   74   69 ar
    75   75   71 ar
    76   76   72 ar
    77   15   16 ar
    78   16   17 ar
    79   17   18 ar
    80   18   39 ar
    81   34   35 ar
    82   35   36 ar
    83   36   37 ar
    84   37   58 ar
    85   40   42 ar
    86   45   48 ar
    87   47   51 ar
    88   50   54 ar
    89   53   56 ar
    90   55   57 ar
    91   59   61 ar
    92   64   67 ar
    93   66   70 ar
    94   69   73 ar
    95   72   75 ar
    96   74   76 ar
@<TRIPOS>SUBSTRUCTURE
     1 RES1 1
     2 RES2 20

@<TRIPOS>CRYSIN
  30.7300    3.8550   19.8700  90.0000 113.0000  90.0000   5 1

