# MOL2 file generated by ConQuest
# Please check atom types

@<TRIPOS>MOLECULE
NAYGEC
    42    46     1
SMALL
NO_CHARGES
****
Generated from CSD

@<TRIPOS>ATOM
      1 C1         4.7725    4.3624   10.0322 C.3       1 RES1    0.0000
      2 H1         4.0008    4.3231    9.4295 H         1 RES1    0.0000
      3 H2         5.2514    5.2066    9.8948 H         1 RES1    0.0000
      4 H3         4.4646    4.3089   10.9611 H         1 RES1    0.0000
      5 C2         5.6936    3.2107    9.7431 C.ar      1 RES1    0.0000
      6 C3         6.9396    3.0685   10.4796 C.ar      1 RES1    0.0000
      7 C4         7.3164    4.0064   11.4593 C.ar      1 RES1    0.0000
      8 H4         6.7289    4.7243   11.6664 H         1 RES1    0.0000
      9 C5         8.5183    3.9062   12.1256 C.ar      1 RES1    0.0000
     10 H5         8.7453    4.5349   12.8006 H         1 RES1    0.0000
     11 C6         9.4022    2.8695   11.7994 C.ar      1 RES1    0.0000
     12 H6        10.2465    2.8153   12.2310 H         1 RES1    0.0000
     13 C7         9.0532    1.9285   10.8573 C.ar      1 RES1    0.0000
     14 H7         9.6630    1.2311   10.6465 H         1 RES1    0.0000
     15 C8         7.8077    1.9797   10.1989 C.ar      1 RES1    0.0000
     16 C9         7.4025    0.9584    9.2394 C.ar      1 RES1    0.0000
     17 C10        6.1865    1.1445    8.5177 C.ar      1 RES1    0.0000
     18 C11        5.3814    2.3019    8.7892 C.ar      1 RES1    0.0000
     19 H8         4.5941    2.4365    8.2754 H         1 RES1    0.0000
     20 C12        5.7854    0.1978    7.5752 C.ar      1 RES1    0.0000
     21 H9         4.9812    0.3450    7.0916 H         1 RES1    0.0000
     22 C1D        9.1532   -4.3624    6.5253 C.3       1 RES1    0.0000
     23 H1D        9.9248   -4.3231    7.1280 H         1 RES1    0.0000
     24 H2D        8.6743   -5.2066    6.6627 H         1 RES1    0.0000
     25 H3D        9.4611   -4.3089    5.5964 H         1 RES1    0.0000
     26 C2D        8.2320   -3.2107    6.8144 C.ar      1 RES1    0.0000
     27 C3D        6.9861   -3.0685    6.0779 C.ar      1 RES1    0.0000
     28 C4D        6.6093   -4.0064    5.0982 C.ar      1 RES1    0.0000
     29 H4D        7.1968   -4.7243    4.8911 H         1 RES1    0.0000
     30 C5D        5.4073   -3.9062    4.4319 C.ar      1 RES1    0.0000
     31 H5D        5.1803   -4.5349    3.7569 H         1 RES1    0.0000
     32 C6D        4.5235   -2.8695    4.7581 C.ar      1 RES1    0.0000
     33 H6D        3.6792   -2.8153    4.3265 H         1 RES1    0.0000
     34 C7D        4.8724   -1.9285    5.7003 C.ar      1 RES1    0.0000
     35 H7D        4.2626   -1.2311    5.9110 H         1 RES1    0.0000
     36 C8D        6.1180   -1.9797    6.3586 C.ar      1 RES1    0.0000
     37 C9D        6.5232   -0.9584    7.3181 C.ar      1 RES1    0.0000
     38 C10D       7.7392   -1.1445    8.0398 C.ar      1 RES1    0.0000
     39 C11D       8.5442   -2.3019    7.7683 C.ar      1 RES1    0.0000
     40 H8D        9.3316   -2.4365    8.2821 H         1 RES1    0.0000
     41 C12D       8.1402   -0.1978    8.9823 C.ar      1 RES1    0.0000
     42 H9D        8.9444   -0.3450    9.4659 H         1 RES1    0.0000
@<TRIPOS>BOND
     1    1    2 1
     2    3    1 1
     3    4    1 1
     4    5    1 1
     5    6    5 ar
     6    7    6 ar
     7    8    7 1
     8    9    7 ar
     9   10    9 1
    10   11    9 ar
    11   12   11 1
    12   13   11 ar
    13   14   13 1
    14   15    6 ar
    15   16   15 ar
    16   17   16 ar
    17   18    5 ar
    18   19   18 1
    19   20   17 ar
    20   21   20 1
    21   22   23 1
    22   24   22 1
    23   25   22 1
    24   26   22 1
    25   27   26 ar
    26   28   27 ar
    27   29   28 1
    28   30   28 ar
    29   31   30 1
    30   32   30 ar
    31   33   32 1
    32   34   32 ar
    33   35   34 1
    34   36   27 ar
    35   37   20 ar
    36   38   37 ar
    37   39   26 ar
    38   40   39 1
    39   41   16 ar
    40   42   41 1
    41   13   15 ar
    42   17   18 ar
    43   34   36 ar
    44   36   37 ar
    45   38   39 ar
    46   38   41 ar
@<TRIPOS>SUBSTRUCTURE
     1 RES1 1

@<TRIPOS>CRYSIN
  13.9257    6.7644   16.5575  90.0000  90.0000  90.0000  61 1

