# MOL2 file generated by ConQuest
# Please check atom types

@<TRIPOS>MOLECULE
NAZBOH
    64    70     1
SMALL
NO_CHARGES
****
Generated from CSD

@<TRIPOS>ATOM
      1 C1         1.5923    2.3303    8.1230 C.ar      1 RES1    0.0000
      2 C2         7.4206   -3.3060    1.2023 C.ar      1 RES1    0.0000
      3 C3        -0.4443    3.5029    8.8883 C.ar      1 RES1    0.0000
      4 C4         0.7626    3.4770    8.1038 C.ar      1 RES1    0.0000
      5 C5        -0.7836    2.3960    9.6656 C.ar      1 RES1    0.0000
      6 H1        -1.5823    2.4162   10.1795 H         1 RES1    0.0000
      7 C6         1.2441    1.2238    8.9332 C.ar      1 RES1    0.0000
      8 C7         5.3420    0.4273    3.4806 C.ar      1 RES1    0.0000
      9 C8         4.2617    0.5328    4.3563 C.ar      1 RES1    0.0000
     10 H2         3.5791   -0.1267    4.3185 H         1 RES1    0.0000
     11 C9         6.4046   -1.0995    1.7835 C.2       1 RES1    0.0000
     12 H3         7.1584   -0.5245    1.7200 H         1 RES1    0.0000
     13 C10        5.4076   -0.7429    2.5891 C.2       1 RES1    0.0000
     14 H4         4.6469   -1.3121    2.5900 H         1 RES1    0.0000
     15 C11        0.0247    1.2595    9.7050 C.ar      1 RES1    0.0000
     16 C12        8.3874   -5.5450    0.8056 C.ar      1 RES1    0.0000
     17 H5         8.3597   -6.3868    0.3663 H         1 RES1    0.0000
     18 C13        5.3863   -2.6044    0.0260 C.ar      1 RES1    0.0000
     19 C14        6.4026   -2.3467    0.9762 C.ar      1 RES1    0.0000
     20 C15        5.1438    2.5433    5.3164 C.ar      1 RES1    0.0000
     21 H6         5.0919    3.2588    5.9383 H         1 RES1    0.0000
     22 C16        4.3501   -1.6609   -0.2845 C.ar      1 RES1    0.0000
     23 H7         4.3374   -0.8219    0.1603 H         1 RES1    0.0000
     24 C17       -1.2895    4.6576    8.8107 C.ar      1 RES1    0.0000
     25 H8        -2.0812    4.6920    9.3353 H         1 RES1    0.0000
     26 C18        6.3210    1.4256    3.5261 C.ar      1 RES1    0.0000
     27 H9         7.0613    1.3892    2.9305 H         1 RES1    0.0000
     28 C19        8.4914   -3.0860    2.1243 C.ar      1 RES1    0.0000
     29 H10        8.5439   -2.2565    2.5842 H         1 RES1    0.0000
     30 C20        9.4401   -4.0367    2.3602 C.ar      1 RES1    0.0000
     31 H11       10.1457   -3.8577    2.9706 H         1 RES1    0.0000
     32 C21        3.3852   -1.9412   -1.2020 C.ar      1 RES1    0.0000
     33 H12        2.7078   -1.2997   -1.3823 H         1 RES1    0.0000
     34 C22        1.0489    4.6126    7.2759 C.ar      1 RES1    0.0000
     35 H13        1.8436    4.6218    6.7539 H         1 RES1    0.0000
     36 C23        7.3813   -4.5682    0.5123 C.ar      1 RES1    0.0000
     37 C24        6.2148    2.4674    4.4356 C.ar      1 RES1    0.0000
     38 H14        6.8852    3.1404    4.4559 H         1 RES1    0.0000
     39 C25        4.1413    1.5691    5.2884 C.ar      1 RES1    0.0000
     40 C26        0.2019    5.6782    7.2230 C.ar      1 RES1    0.0000
     41 H15        0.4067    6.4129    6.6566 H         1 RES1    0.0000
     42 C27        2.9935    1.5750    6.2073 C.2       1 RES1    0.0000
     43 H16        2.3032    0.9541    6.0098 H         1 RES1    0.0000
     44 C28       -0.3310    0.1202   10.4981 C.ar      1 RES1    0.0000
     45 H17       -1.1349    0.1363   11.0037 H         1 RES1    0.0000
     46 C29       -0.9798    5.7012    8.0025 C.ar      1 RES1    0.0000
     47 H18       -1.5596    6.4529    7.9588 H         1 RES1    0.0000
     48 C30        6.3632   -4.8100   -0.4098 C.ar      1 RES1    0.0000
     49 H19        6.3397   -5.6447   -0.8643 H         1 RES1    0.0000
     50 C31        9.3799   -5.2935    1.6991 C.ar      1 RES1    0.0000
     51 H20       10.0335   -5.9586    1.8831 H         1 RES1    0.0000
     52 C32        5.3764   -3.8581   -0.6854 C.ar      1 RES1    0.0000
     53 C33        4.3429   -4.1047   -1.6447 C.ar      1 RES1    0.0000
     54 H21        4.3311   -4.9302   -2.1149 H         1 RES1    0.0000
     55 C34        1.6814   -1.0129    9.8066 C.ar      1 RES1    0.0000
     56 H22        2.2390   -1.7802    9.8504 H         1 RES1    0.0000
     57 C35        3.3780   -3.1810   -1.8954 C.ar      1 RES1    0.0000
     58 H23        2.6988   -3.3648   -2.5327 H         1 RES1    0.0000
     59 C36        2.7995    2.3215    7.2587 C.2       1 RES1    0.0000
     60 H24        3.4995    2.9187    7.4951 H         1 RES1    0.0000
     61 C37        2.0590    0.0494    9.0408 C.ar      1 RES1    0.0000
     62 H25        2.8812    0.0110    8.5683 H         1 RES1    0.0000
     63 C38        0.4619   -0.9855   10.5396 C.ar      1 RES1    0.0000
     64 H26        0.2016   -1.7388   11.0581 H         1 RES1    0.0000
@<TRIPOS>BOND
     1    1    4 ar
     2    2   19 ar
     3    3    4 ar
     4    4   34 ar
     5    5    3 ar
     6    6    5 1
     7    7    1 ar
     8    8    9 ar
     9    9   10 1
    10   11   12 1
    11   13    8 1
    12   14   13 1
    13   15    5 ar
    14   16   17 1
    15   18   19 ar
    16   19   11 1
    17   20   21 1
    18   22   18 ar
    19   23   22 1
    20   24    3 ar
    21   25   24 1
    22   26    8 ar
    23   27   26 1
    24   28    2 ar
    25   29   28 1
    26   30   28 ar
    27   31   30 1
    28   32   22 ar
    29   33   32 1
    30   34   35 1
    31   36    2 ar
    32   37   20 ar
    33   38   37 1
    34   39    9 ar
    35   40   34 ar
    36   41   40 1
    37   42   39 1
    38   43   42 1
    39   44   15 ar
    40   45   44 1
    41   46   24 ar
    42   47   46 1
    43   48   36 ar
    44   49   48 1
    45   50   16 ar
    46   51   50 1
    47   52   18 ar
    48   53   52 ar
    49   54   53 1
    50   55   56 1
    51   57   32 ar
    52   58   57 1
    53   59    1 1
    54   60   59 1
    55   61    7 ar
    56   62   61 1
    57   63   44 ar
    58   64   63 1
    59    7   15 ar
    60   11   13 2
    61   16   36 ar
    62   20   39 ar
    63   26   37 ar
    64   30   50 ar
    65   40   46 ar
    66   42   59 2
    67   48   52 ar
    68   53   57 ar
    69   55   61 ar
    70   55   63 ar
@<TRIPOS>SUBSTRUCTURE
     1 RES1 1

@<TRIPOS>CRYSIN
   6.3597   13.7676   28.6749  90.0000  93.6000  90.0000  14 1

