# MOL2 file generated by ConQuest
# Please check atom types

@<TRIPOS>MOLECULE
NAZBUN
    64    70     1
SMALL
NO_CHARGES
****
Generated from CSD

@<TRIPOS>ATOM
      1 C1         4.1959    3.9848    7.6156 C.ar      1 RES1    0.0000
      2 C2         4.0830    5.2514    6.9965 C.ar      1 RES1    0.0000
      3 C3         4.8954    3.8737    8.8480 C.ar      1 RES1    0.0000
      4 C4         2.9468    1.1249    5.2663 C.ar      1 RES1    0.0000
      5 C5         3.0851    0.8035    3.9155 C.ar      1 RES1    0.0000
      6 H1         3.6224    1.3375    3.3760 H         1 RES1    0.0000
      7 C6         4.7208    6.4003    7.5943 C.ar      1 RES1    0.0000
      8 C7         5.4725    5.0404    9.4586 C.ar      1 RES1    0.0000
      9 C8         3.6389    2.3087    5.8092 C.2       1 RES1    0.0000
     10 H2         4.1897    2.7763    5.2244 H         1 RES1    0.0000
     11 C9         2.1285    0.2871    6.0203 C.ar      1 RES1    0.0000
     12 H3         2.0093    0.4671    6.9246 H         1 RES1    0.0000
     13 C10        3.5537    2.7730    7.0509 C.2       1 RES1    0.0000
     14 H4         3.0272    2.2782    7.6373 H         1 RES1    0.0000
     15 C11        5.3830    6.2636    8.8069 C.ar      1 RES1    0.0000
     16 H5         5.7773    7.0125    9.1931 H         1 RES1    0.0000
     17 C12        3.3275    5.4761    5.7953 C.ar      1 RES1    0.0000
     18 H6         2.8577    4.7703    5.4129 H         1 RES1    0.0000
     19 C13        5.0666    2.6288    9.5205 C.ar      1 RES1    0.0000
     20 H7         4.7265    1.8536    9.1368 H         1 RES1    0.0000
     21 C14        3.2866    6.6975    5.2091 C.ar      1 RES1    0.0000
     22 H8         2.7928    6.8149    4.4301 H         1 RES1    0.0000
     23 C15        6.2424    3.7071   11.3268 C.ar      1 RES1    0.0000
     24 H9         6.6643    3.6418   12.1527 H         1 RES1    0.0000
     25 C16        5.7187    2.5529   10.7140 C.ar      1 RES1    0.0000
     26 H10        5.8195    1.7278   11.1296 H         1 RES1    0.0000
     27 C17        3.9842    7.7982    5.7617 C.ar      1 RES1    0.0000
     28 H11        3.9754    8.6195    5.3247 H         1 RES1    0.0000
     29 C18        6.1344    4.9071   10.7182 C.ar      1 RES1    0.0000
     30 H12        6.4969    5.6603   11.1258 H         1 RES1    0.0000
     31 C19        4.6602    7.6591    6.9180 C.ar      1 RES1    0.0000
     32 H13        5.0961    8.3958    7.2837 H         1 RES1    0.0000
     33 C1B        0.3783   -3.9848    1.7622 C.ar      1 RES1    0.0000
     34 C2B        0.4913   -5.2514    2.3813 C.ar      1 RES1    0.0000
     35 C3B       -0.3211   -3.8737    0.5298 C.ar      1 RES1    0.0000
     36 C4B        1.6275   -1.1249    4.1115 C.ar      1 RES1    0.0000
     37 C5B        1.4892   -0.8035    5.4623 C.ar      1 RES1    0.0000
     38 H1B        0.9519   -1.3375    6.0018 H         1 RES1    0.0000
     39 C6B       -0.1465   -6.4003    1.7835 C.ar      1 RES1    0.0000
     40 C7B       -0.8982   -5.0404   -0.0807 C.ar      1 RES1    0.0000
     41 C8B        0.9354   -2.3087    3.5686 C.2       1 RES1    0.0000
     42 H2B        0.3846   -2.7763    4.1534 H         1 RES1    0.0000
     43 C9B        2.4457   -0.2871    3.3575 C.ar      1 RES1    0.0000
     44 H3B        2.5650   -0.4671    2.4532 H         1 RES1    0.0000
     45 C10B       1.0206   -2.7730    2.3269 C.2       1 RES1    0.0000
     46 H4B        1.5471   -2.2782    1.7405 H         1 RES1    0.0000
     47 C11B      -0.8087   -6.2636    0.5709 C.ar      1 RES1    0.0000
     48 H5B       -1.2030   -7.0125    0.1847 H         1 RES1    0.0000
     49 C12B       1.2468   -5.4761    3.5825 C.ar      1 RES1    0.0000
     50 H6B        1.7166   -4.7703    3.9649 H         1 RES1    0.0000
     51 C13B      -0.4923   -2.6288   -0.1426 C.ar      1 RES1    0.0000
     52 H7B       -0.1522   -1.8536    0.2410 H         1 RES1    0.0000
     53 C14B       1.2877   -6.6975    4.1687 C.ar      1 RES1    0.0000
     54 H8B        1.7815   -6.8149    4.9477 H         1 RES1    0.0000
     55 C15B      -1.6681   -3.7071   -1.9490 C.ar      1 RES1    0.0000
     56 H9B       -2.0900   -3.6418   -2.7749 H         1 RES1    0.0000
     57 C16B      -1.1444   -2.5529   -1.3362 C.ar      1 RES1    0.0000
     58 H10B      -1.2452   -1.7278   -1.7518 H         1 RES1    0.0000
     59 C17B       0.5900   -7.7982    3.6161 C.ar      1 RES1    0.0000
     60 H11B       0.5989   -8.6195    4.0531 H         1 RES1    0.0000
     61 C18B      -1.5601   -4.9071   -1.3404 C.ar      1 RES1    0.0000
     62 H12B      -1.9226   -5.6603   -1.7480 H         1 RES1    0.0000
     63 C19B      -0.0859   -7.6591    2.4598 C.ar      1 RES1    0.0000
     64 H13B      -0.5218   -8.3958    2.0941 H         1 RES1    0.0000
@<TRIPOS>BOND
     1    1    2 ar
     2    2    7 ar
     3    3    1 ar
     4    4    5 ar
     5    5    6 1
     6    7   15 ar
     7    8    3 ar
     8    9    4 1
     9   10    9 1
    10   11    4 ar
    11   12   11 1
    12   13    1 1
    13   14   13 1
    14   15    8 ar
    15   16   15 1
    16   17    2 ar
    17   18   17 1
    18   19    3 ar
    19   20   19 1
    20   21   17 ar
    21   22   21 1
    22   23   24 1
    23   25   19 ar
    24   26   25 1
    25   27   21 ar
    26   28   27 1
    27   29    8 ar
    28   30   29 1
    29   31    7 ar
    30   32   31 1
    31   33   34 ar
    32   34   39 ar
    33   35   33 ar
    34   36   37 ar
    35   37   11 ar
    36   38   37 1
    37   39   47 ar
    38   40   35 ar
    39   41   36 1
    40   42   41 1
    41   43    5 ar
    42   44   43 1
    43   45   33 1
    44   46   45 1
    45   47   40 ar
    46   48   47 1
    47   49   34 ar
    48   50   49 1
    49   51   35 ar
    50   52   51 1
    51   53   49 ar
    52   54   53 1
    53   55   56 1
    54   57   51 ar
    55   58   57 1
    56   59   53 ar
    57   60   59 1
    58   61   40 ar
    59   62   61 1
    60   63   39 ar
    61   64   63 1
    62    9   13 2
    63   23   25 ar
    64   23   29 ar
    65   27   31 ar
    66   36   43 ar
    67   41   45 2
    68   55   57 ar
    69   55   61 ar
    70   59   63 ar
@<TRIPOS>SUBSTRUCTURE
     1 RES1 1

@<TRIPOS>CRYSIN
   8.1741   16.3310   10.0450  90.0000 111.0000  90.0000  14 1

