# MOL2 file generated by ConQuest
# Please check atom types

@<TRIPOS>MOLECULE
NAZBIB
   128   140     2
SMALL
NO_CHARGES
****
Generated from CSD

@<TRIPOS>ATOM
      1 C1        -0.6076    4.4550   11.4842 C.ar      1 RES1    0.0000
      2 C2        -7.1410    4.6380    7.7559 C.ar      1 RES1    0.0000
      3 C3        -7.9354    6.1364    9.5222 C.ar      1 RES1    0.0000
      4 C4        -3.3508    7.1926    8.3287 C.ar      1 RES1    0.0000
      5 C5         0.4781    3.6248   11.1193 C.ar      1 RES1    0.0000
      6 C6         0.7749    2.4422   11.8606 C.ar      1 RES1    0.0000
      7 C7        -0.0200    2.1122   12.9566 C.ar      1 RES1    0.0000
      8 H1         0.1547    1.3296   13.4276 H         1 RES1    0.0000
      9 C8        -1.3549    4.1186   12.6287 C.ar      1 RES1    0.0000
     10 C9        -1.8739    5.8276    9.8613 C.2       1 RES1    0.0000
     11 H2        -2.5049    5.1471    9.8167 H         1 RES1    0.0000
     12 C10       -2.1163    6.9890    8.9890 C.ar      1 RES1    0.0000
     13 C11       -1.0646    2.9231   13.3594 C.ar      1 RES1    0.0000
     14 C12       -3.5071    8.3109    7.5187 C.ar      1 RES1    0.0000
     15 H3        -4.3132    8.4342    7.0715 H         1 RES1    0.0000
     16 C13       -6.9453    5.7730    8.5659 C.ar      1 RES1    0.0000
     17 C14       -9.1875    4.1282    8.9755 C.ar      1 RES1    0.0000
     18 H4        -9.8962    3.5491    9.1453 H         1 RES1    0.0000
     19 C15       -9.0859    5.2967    9.7174 C.ar      1 RES1    0.0000
     20 C16       -8.2705    3.7911    7.9876 C.ar      1 RES1    0.0000
     21 C17       -2.4155    4.9480   13.1121 C.ar      1 RES1    0.0000
     22 H5        -2.6252    5.7313   12.6577 H         1 RES1    0.0000
     23 C18       -2.5052    9.2419    7.3575 C.ar      1 RES1    0.0000
     24 H6        -2.6351    9.9853    6.8149 H         1 RES1    0.0000
     25 C19       -4.4961    6.2648    8.4840 C.2       1 RES1    0.0000
     26 H7        -4.3147    5.3628    8.6217 H         1 RES1    0.0000
     27 C20       -0.9056    5.6382   10.6713 C.2       1 RES1    0.0000
     28 H8        -0.3078    6.3457   10.7576 H         1 RES1    0.0000
     29 C21       -1.1236    7.9424    8.8057 C.ar      1 RES1    0.0000
     30 H9        -0.3075    7.8243    9.2334 H         1 RES1    0.0000
     31 C22       -1.8567    2.6137   14.5137 C.ar      1 RES1    0.0000
     32 H10       -1.6861    1.8317   14.9881 H         1 RES1    0.0000
     33 C23       -2.8469    3.4354   14.9269 C.ar      1 RES1    0.0000
     34 H11       -3.3467    3.2191   15.6802 H         1 RES1    0.0000
     35 C24       -1.3027    9.0518    8.0195 C.ar      1 RES1    0.0000
     36 H12       -0.6171    9.6752    7.9296 H         1 RES1    0.0000
     37 C25       -3.1186    4.6161   14.2175 C.ar      1 RES1    0.0000
     38 H13       -3.7943    5.1811   14.5137 H         1 RES1    0.0000
     39 C26       -5.7663    6.6455    8.4394 C.2       1 RES1    0.0000
     40 H14       -5.9279    7.5527    8.3158 H         1 RES1    0.0000
     41 C27        2.5898    1.9107   10.3452 C.ar      1 RES1    0.0000
     42 H15        3.2827    1.3489   10.0837 H         1 RES1    0.0000
     43 C28        1.3032    3.9035    9.9769 C.ar      1 RES1    0.0000
     44 H16        1.1444    4.6726    9.4771 H         1 RES1    0.0000
     45 C29       -7.8459    7.3088   10.3216 C.ar      1 RES1    0.0000
     46 H17       -7.0882    7.8448   10.2599 H         1 RES1    0.0000
     47 C30       -8.8397    7.6606   11.1719 C.ar      1 RES1    0.0000
     48 H18       -8.7611    8.4445   11.6649 H         1 RES1    0.0000
     49 C31        1.8520    1.6083   11.4371 C.ar      1 RES1    0.0000
     50 H19        2.0510    0.8404   11.9215 H         1 RES1    0.0000
     51 C32       -6.5506    3.2595    5.8553 C.ar      1 RES1    0.0000
     52 H20       -5.9985    3.0900    5.1274 H         1 RES1    0.0000
     53 C33       -8.4587    2.6541    7.1623 C.ar      1 RES1    0.0000
     54 H21       -9.1609    2.0724    7.3385 H         1 RES1    0.0000
     55 C34        2.3112    3.0708    9.6072 C.ar      1 RES1    0.0000
     56 H22        2.8213    3.2717    8.8576 H         1 RES1    0.0000
     57 C35       -9.9834    6.8696   11.3230 C.ar      1 RES1    0.0000
     58 H23      -10.6610    7.1405   11.8982 H         1 RES1    0.0000
     59 C36       -6.3043    4.3285    6.6482 C.ar      1 RES1    0.0000
     60 H24       -5.5720    4.8716    6.4650 H         1 RES1    0.0000
     61 C37      -10.1041    5.7108   10.6337 C.ar      1 RES1    0.0000
     62 H25      -10.8568    5.1779   10.7576 H         1 RES1    0.0000
     63 C38       -7.6384    2.3999    6.1228 C.ar      1 RES1    0.0000
     64 H26       -7.7885    1.6583    5.5810 H         1 RES1    0.0000
     65 C39        7.1579    6.1589   10.0891 C.ar      2 RES2    0.0000
     66 C40        8.0339    5.8289    9.0320 C.ar      2 RES2    0.0000
     67 C41        7.7727    4.6938    8.2266 C.ar      2 RES2    0.0000
     68 C42        6.6841    3.8155    8.5799 C.ar      2 RES2    0.0000
     69 C43       12.8581    7.1290    8.8420 C.ar      2 RES2    0.0000
     70 C44       14.0840    4.1873   12.2720 C.ar      2 RES2    0.0000
     71 C45       11.5528    7.2773    8.3324 C.ar      2 RES2    0.0000
     72 C46       16.1857    2.6040   11.2805 C.ar      2 RES2    0.0000
     73 C47        6.0642    5.2928   10.4023 C.ar      2 RES2    0.0000
     74 C48       14.3336    5.7718   10.3170 C.2       2 RES2    0.0000
     75 H27       14.9537    6.4639   10.2833 H         2 RES2    0.0000
     76 C49       15.8151    3.7841   10.5995 C.ar      2 RES2    0.0000
     77 C50       13.2156    5.9721    9.6863 C.2       2 RES2    0.0000
     78 H28       12.5673    5.3114    9.7778 H         2 RES2    0.0000
     79 C51       14.4522    2.9770   12.9364 C.ar      2 RES2    0.0000
     80 C52       14.7345    4.5725   11.0817 C.ar      2 RES2    0.0000
     81 C53        7.3201    7.3242   10.8847 C.ar      2 RES2    0.0000
     82 H29        8.0488    7.8789   10.7291 H         2 RES2    0.0000
     83 C54       12.2310    9.3363    7.2398 C.ar      2 RES2    0.0000
     84 H30       12.0144   10.0701    6.7112 H         2 RES2    0.0000
     85 C55       15.4869    2.2047   12.4076 C.ar      2 RES2    0.0000
     86 H31       15.7132    1.4028   12.8210 H         2 RES2    0.0000
     87 C56        5.8871    4.1327    9.6759 C.ar      2 RES2    0.0000
     88 H32        5.2129    3.5440    9.9281 H         2 RES2    0.0000
     89 C57        9.1910    6.7046    8.7606 C.2       2 RES2    0.0000
     90 H33        9.0148    7.6124    8.6657 H         2 RES2    0.0000
     91 C58       10.4587    6.3284    8.6372 C.2       2 RES2    0.0000
     92 H34       10.6677    5.4289    8.7461 H         2 RES2    0.0000
     93 C59        8.4781    4.3940    7.0236 C.ar      2 RES2    0.0000
     94 H35        9.1615    4.9602    6.7475 H         2 RES2    0.0000
     95 C60       13.7988    8.1094    8.5351 C.ar      2 RES2    0.0000
     96 H36       14.6606    8.0278    8.8783 H         2 RES2    0.0000
     97 C61       13.7823    2.6066   14.1462 C.ar      2 RES2    0.0000
     98 H37       14.0043    1.8086   14.5682 H         2 RES2    0.0000
     99 C62       17.2751    1.8221   10.7740 C.ar      2 RES2    0.0000
    100 H38       17.5164    1.0356   11.2087 H         2 RES2    0.0000
    101 C63       13.5015    9.1924    7.7434 C.ar      2 RES2    0.0000
    102 H39       14.1578    9.8242    7.5485 H         2 RES2    0.0000
    103 C64       13.0808    4.9923   12.8905 C.ar      2 RES2    0.0000
    104 H40       12.8252    5.7936   12.4944 H         2 RES2    0.0000
    105 C65       12.4977    4.6059   14.0448 C.ar      2 RES2    0.0000
    106 H41       11.8523    5.1554   14.4308 H         2 RES2    0.0000
    107 C66       16.5473    4.1442    9.4247 C.ar      2 RES2    0.0000
    108 H42       16.3143    4.9134    8.9561 H         2 RES2    0.0000
    109 C67        5.1648    5.6774   11.4503 C.ar      2 RES2    0.0000
    110 H43        4.4443    5.1265   11.6571 H         2 RES2    0.0000
    111 C68       12.8320    3.4021   14.6820 C.ar      2 RES2    0.0000
    112 H44       12.4017    3.1536   15.4677 H         2 RES2    0.0000
    113 C69       11.2873    8.3816    7.5267 C.ar      2 RES2    0.0000
    114 H45       10.4335    8.4766    7.1674 H         2 RES2    0.0000
    115 C70        6.4460    7.6484   11.8583 C.ar      2 RES2    0.0000
    116 H46        6.5737    8.4284   12.3493 H         2 RES2    0.0000
    117 C71        8.1795    3.3141    6.2783 C.ar      2 RES2    0.0000
    118 H47        8.6472    3.1581    5.4903 H         2 RES2    0.0000
    119 C72       17.9539    2.2092    9.6793 C.ar      2 RES2    0.0000
    120 H48       18.6749    1.7020    9.3786 H         2 RES2    0.0000
    121 C73        6.4458    2.6631    7.7818 C.ar      2 RES2    0.0000
    122 H49        5.7766    2.0679    8.0306 H         2 RES2    0.0000
    123 C74       17.5873    3.3687    8.9833 C.ar      2 RES2    0.0000
    124 H50       18.0530    3.6139    8.2173 H         2 RES2    0.0000
    125 C75        5.3415    6.8215   12.1434 C.ar      2 RES2    0.0000
    126 H51        4.7359    7.0629   12.8081 H         2 RES2    0.0000
    127 C76        7.1686    2.4153    6.6723 C.ar      2 RES2    0.0000
    128 H52        6.9996    1.6526    6.1694 H         2 RES2    0.0000
@<TRIPOS>BOND
     1    1    5 ar
     2    2   16 ar
     3    3   16 ar
     4    4   12 ar
     5    5    6 ar
     6    6    7 ar
     7    7    8 1
     8    9    1 ar
     9   10   11 1
    10   12   10 1
    11   13    7 ar
    12   14    4 ar
    13   15   14 1
    14   16   39 1
    15   17   18 1
    16   19    3 ar
    17   20    2 ar
    18   21    9 ar
    19   22   21 1
    20   23   14 ar
    21   24   23 1
    22   25    4 1
    23   26   25 1
    24   27    1 1
    25   28   27 1
    26   29   12 ar
    27   30   29 1
    28   31   13 ar
    29   32   31 1
    30   33   31 ar
    31   34   33 1
    32   35   23 ar
    33   36   35 1
    34   37   21 ar
    35   38   37 1
    36   39   25 2
    37   40   39 1
    38   41   42 1
    39   43    5 ar
    40   44   43 1
    41   45    3 ar
    42   46   45 1
    43   47   45 ar
    44   48   47 1
    45   49    6 ar
    46   50   49 1
    47   51   52 1
    48   53   20 ar
    49   54   53 1
    50   55   41 ar
    51   56   55 1
    52   57   47 ar
    53   58   57 1
    54   59    2 ar
    55   60   59 1
    56   61   19 ar
    57   62   61 1
    58   63   51 ar
    59   64   63 1
    60   65   66 ar
    61   66   67 ar
    62   67   68 ar
    63   68   87 ar
    64   69   71 ar
    65   70   79 ar
    66   71   91 1
    67   72   76 ar
    68   73   65 ar
    69   74   75 1
    70   76   80 ar
    71   77   69 1
    72   78   77 1
    73   79   85 ar
    74   80   70 ar
    75   81   65 ar
    76   82   81 1
    77   83   84 1
    78   85   72 ar
    79   86   85 1
    80   87   73 ar
    81   88   87 1
    82   89   66 1
    83   90   89 1
    84   91   89 2
    85   92   91 1
    86   93   67 ar
    87   94   93 1
    88   95   69 ar
    89   96   95 1
    90   97   79 ar
    91   98   97 1
    92   99   72 ar
    93  100   99 1
    94  101   83 ar
    95  102  101 1
    96  103   70 ar
    97  104  103 1
    98  105  103 ar
    99  106  105 1
   100  107   76 ar
   101  108  107 1
   102  109   73 ar
   103  110  109 1
   104  111   97 ar
   105  112  111 1
   106  113   71 ar
   107  114  113 1
   108  115   81 ar
   109  116  115 1
   110  117   93 ar
   111  118  117 1
   112  119   99 ar
   113  120  119 1
   114  121   68 ar
   115  122  121 1
   116  123  107 ar
   117  124  123 1
   118  125  109 ar
   119  126  125 1
   120  127  117 ar
   121  128  127 1
   122    9   13 ar
   123   10   27 2
   124   17   19 ar
   125   17   20 ar
   126   29   35 ar
   127   33   37 ar
   128   41   49 ar
   129   43   55 ar
   130   51   59 ar
   131   53   63 ar
   132   57   61 ar
   133   74   77 2
   134   74   80 1
   135   83  113 ar
   136   95  101 ar
   137  105  111 ar
   138  115  125 ar
   139  119  123 ar
   140  121  127 ar
@<TRIPOS>SUBSTRUCTURE
     1 RES1 1
     2 RES2 65

@<TRIPOS>CRYSIN
  30.8630    6.4202   26.9590  90.0000 105.9430  90.0000  14 1

