# MOL2 file generated by ConQuest
# Please check atom types

@<TRIPOS>MOLECULE
NEGCAF
    76    86     1
SMALL
NO_CHARGES
****
Generated from CSD

@<TRIPOS>ATOM
      1 C1        19.4228    4.3402    9.6932 C.2       1 RES1    0.0000
      2 C2        18.4943    4.7743   10.6110 C.2       1 RES1    0.0000
      3 C3        18.8350    6.1473   11.0102 C.ar      1 RES1    0.0000
      4 C4        18.2173    7.0080   11.8990 C.ar      1 RES1    0.0000
      5 C5        18.7719    8.2720   12.0953 C.ar      1 RES1    0.0000
      6 C6        19.9115    8.6654   11.3932 C.ar      1 RES1    0.0000
      7 C7        20.5257    7.8038   10.4770 C.ar      1 RES1    0.0000
      8 C8        19.9943    6.5414   10.2945 C.ar      1 RES1    0.0000
      9 C9        20.3926    5.4121    9.4430 C.2       1 RES1    0.0000
     10 C10       21.4071    5.2325    8.5579 C.2       1 RES1    0.0000
     11 C11       17.3070    4.0100   11.0918 C.ar      1 RES1    0.0000
     12 C12       16.2024    3.8595   10.2364 C.ar      1 RES1    0.0000
     13 C13       16.1119    4.5140    8.9750 C.ar      1 RES1    0.0000
     14 C14       15.0028    4.4034    8.1889 C.ar      1 RES1    0.0000
     15 C15       13.8947    3.6133    8.6219 C.ar      1 RES1    0.0000
     16 C16       13.9463    2.9630    9.8031 C.ar      1 RES1    0.0000
     17 C17       15.0807    3.0595   10.6647 C.ar      1 RES1    0.0000
     18 C18       15.1357    2.4117   11.8913 C.ar      1 RES1    0.0000
     19 C19       16.2067    2.5780   12.7685 C.ar      1 RES1    0.0000
     20 C20       16.2466    1.9451   14.0387 C.ar      1 RES1    0.0000
     21 C21       17.2762    2.1572   14.9034 C.ar      1 RES1    0.0000
     22 C22       18.3450    3.0354   14.5513 C.ar      1 RES1    0.0000
     23 C23       18.3649    3.6291   13.3196 C.ar      1 RES1    0.0000
     24 C24       17.3132    3.4296   12.3731 C.ar      1 RES1    0.0000
     25 H1        17.4175    6.7128   12.5212 H         1 RES1    0.0000
     26 H2        18.3473    8.8882   12.7287 H         1 RES1    0.0000
     27 H3        20.2261    9.5652   11.5522 H         1 RES1    0.0000
     28 H4        21.3229    8.0309    9.9396 H         1 RES1    0.0000
     29 H5        21.9220    5.9493    8.3973 H         1 RES1    0.0000
     30 H6        16.8951    5.0263    8.7209 H         1 RES1    0.0000
     31 H7        14.9294    4.9622    7.2331 H         1 RES1    0.0000
     32 H8        13.0925    3.5402    7.9242 H         1 RES1    0.0000
     33 H9        13.1956    2.4366   10.1436 H         1 RES1    0.0000
     34 H10       14.3580    1.8046   12.1466 H         1 RES1    0.0000
     35 H11       15.5182    1.2915   14.2429 H         1 RES1    0.0000
     36 H12       17.3111    1.6474   15.8766 H         1 RES1    0.0000
     37 H13       19.1148    3.2358   15.2840 H         1 RES1    0.0000
     38 H14       19.0678    4.2312   13.0505 H         1 RES1    0.0000
     39 C1D       21.5298    3.9759    7.8928 C.2       1 RES1    0.0000
     40 C2D       22.4582    3.5418    6.9749 C.2       1 RES1    0.0000
     41 C3D       22.1175    2.1688    6.5757 C.ar      1 RES1    0.0000
     42 C4D       22.7352    1.3081    5.6869 C.ar      1 RES1    0.0000
     43 C5D       22.1806    0.0441    5.4907 C.ar      1 RES1    0.0000
     44 C6D       21.0410   -0.3493    6.1927 C.ar      1 RES1    0.0000
     45 C7D       20.4268    0.5123    7.1089 C.ar      1 RES1    0.0000
     46 C8D       20.9582    1.7747    7.2915 C.ar      1 RES1    0.0000
     47 C9D       20.5599    2.9040    8.1430 C.2       1 RES1    0.0000
     48 C10D      19.5454    3.0836    9.0281 C.2       1 RES1    0.0000
     49 C11D      23.6455    4.3061    6.4941 C.ar      1 RES1    0.0000
     50 C12D      24.7501    4.4566    7.3495 C.ar      1 RES1    0.0000
     51 C13D      24.8407    3.8021    8.6110 C.ar      1 RES1    0.0000
     52 C14D      25.9497    3.9127    9.3971 C.ar      1 RES1    0.0000
     53 C15D      27.0578    4.7028    8.9641 C.ar      1 RES1    0.0000
     54 C16D      27.0062    5.3531    7.7828 C.ar      1 RES1    0.0000
     55 C17D      25.8718    5.2566    6.9213 C.ar      1 RES1    0.0000
     56 C18D      25.8169    5.9044    5.6947 C.ar      1 RES1    0.0000
     57 C19D      24.7458    5.7381    4.8175 C.ar      1 RES1    0.0000
     58 C20D      24.7059    6.3710    3.5473 C.ar      1 RES1    0.0000
     59 C21D      23.6764    6.1589    2.6826 C.ar      1 RES1    0.0000
     60 C22D      22.6075    5.2807    3.0346 C.ar      1 RES1    0.0000
     61 C23D      22.5877    4.6870    4.2664 C.ar      1 RES1    0.0000
     62 C24D      23.6394    4.8865    5.2128 C.ar      1 RES1    0.0000
     63 H1D       23.5350    1.6033    5.0648 H         1 RES1    0.0000
     64 H2D       22.6052   -0.5721    4.8572 H         1 RES1    0.0000
     65 H3D       20.7264   -1.2491    6.0337 H         1 RES1    0.0000
     66 H4D       19.6296    0.2852    7.6464 H         1 RES1    0.0000
     67 H5D       19.0305    2.3668    9.1887 H         1 RES1    0.0000
     68 H6D       24.0574    3.2898    8.8651 H         1 RES1    0.0000
     69 H7D       26.0231    3.3539   10.3529 H         1 RES1    0.0000
     70 H8D       27.8600    4.7759    9.6617 H         1 RES1    0.0000
     71 H9D       27.7569    5.8795    7.4424 H         1 RES1    0.0000
     72 H10D      26.5946    6.5115    5.4393 H         1 RES1    0.0000
     73 H11D      25.4343    7.0246    3.3431 H         1 RES1    0.0000
     74 H12D      23.6414    6.6687    1.7094 H         1 RES1    0.0000
     75 H13D      21.8377    5.0803    2.3020 H         1 RES1    0.0000
     76 H14D      21.8847    4.0849    4.5354 H         1 RES1    0.0000
@<TRIPOS>BOND
     1    1    2 2
     2    2    3 1
     3    3    4 ar
     4    4    5 ar
     5    5    6 ar
     6    6    7 ar
     7    7    8 ar
     8    8    3 ar
     9    9    1 1
    10   10    9 2
    11   11    2 1
    12   12   11 ar
    13   13   12 ar
    14   14   13 ar
    15   15   14 ar
    16   16   15 ar
    17   17   12 ar
    18   18   17 ar
    19   19   18 ar
    20   20   19 ar
    21   21   20 ar
    22   22   21 ar
    23   23   22 ar
    24   24   11 ar
    25   25    4 1
    26   26    5 1
    27   27    6 1
    28   28    7 1
    29   29   10 1
    30   30   13 1
    31   31   14 1
    32   32   15 1
    33   33   16 1
    34   34   18 1
    35   35   20 1
    36   36   21 1
    37   37   22 1
    38   38   23 1
    39   39   10 1
    40   40   39 2
    41   41   40 1
    42   42   41 ar
    43   43   42 ar
    44   44   43 ar
    45   45   44 ar
    46   46   41 ar
    47   47   39 1
    48   48    1 1
    49   49   40 1
    50   50   49 ar
    51   51   50 ar
    52   52   51 ar
    53   53   52 ar
    54   54   53 ar
    55   55   50 ar
    56   56   55 ar
    57   57   56 ar
    58   58   57 ar
    59   59   58 ar
    60   60   59 ar
    61   61   60 ar
    62   62   49 ar
    63   63   42 1
    64   64   43 1
    65   65   44 1
    66   66   45 1
    67   67   48 1
    68   68   51 1
    69   69   52 1
    70   70   53 1
    71   71   54 1
    72   72   56 1
    73   73   58 1
    74   74   59 1
    75   75   60 1
    76   76   61 1
    77    8    9 1
    78   16   17 ar
    79   19   24 ar
    80   23   24 ar
    81   45   46 ar
    82   46   47 1
    83   47   48 2
    84   54   55 ar
    85   57   62 ar
    86   61   62 ar
@<TRIPOS>SUBSTRUCTURE
     1 RES1 1

@<TRIPOS>CRYSIN
  20.6738    8.3161   17.5904  90.0000  91.2870  90.0000  15 1

