# MOL2 file generated by ConQuest
# Please check atom types

@<TRIPOS>MOLECULE
NEGJOB
   124   135     1
SMALL
NO_CHARGES
****
Generated from CSD

@<TRIPOS>ATOM
      1 C1         7.8534    7.1494    7.0146 C.ar      1 RES1    0.0000
      2 C2         6.7502    7.2394    6.0938 C.2       1 RES1    0.0000
      3 C3         7.9771    6.2937    8.0725 C.ar      1 RES1    0.0000
      4 C4         5.7180    6.2842    6.2550 C.2       1 RES1    0.0000
      5 C5         5.7825    5.3508    7.2740 C.2       1 RES1    0.0000
      6 C6         8.7205    8.2124    6.7842 C.ar      1 RES1    0.0000
      7 C7         9.8075    8.5068    7.6026 C.ar      1 RES1    0.0000
      8 C8         8.1970    9.0091    5.7322 C.ar      1 RES1    0.0000
      9 C9         5.9166    8.9080    4.3649 C.ar      1 RES1    0.0000
     10 C10        9.9859    7.6079    8.7294 C.ar      1 RES1    0.0000
     11 C11        9.1049    6.5520    8.9250 C.ar      1 RES1    0.0000
     12 C12       11.0455    7.8461    9.7501 C.ar      1 RES1    0.0000
     13 C13        6.9327    8.3718    5.3030 C.2       1 RES1    0.0000
     14 C14       10.7165    7.7413   11.1129 C.ar      1 RES1    0.0000
     15 C15        8.8761   10.1813    5.4457 C.ar      1 RES1    0.0000
     16 C16       10.4771    9.7213    7.2766 C.ar      1 RES1    0.0000
     17 C17       12.9966    8.2600   11.7741 C.ar      1 RES1    0.0000
     18 C18       10.0164   10.5011    6.2275 C.ar      1 RES1    0.0000
     19 C19        5.9101    8.5266    3.0159 C.ar      1 RES1    0.0000
     20 C20       11.6754    7.9371   12.0917 C.ar      1 RES1    0.0000
     21 C21       12.3561    8.1517    9.4254 C.ar      1 RES1    0.0000
     22 C22       13.3156    8.3603   10.4178 C.ar      1 RES1    0.0000
     23 C23       14.0094    8.4937   12.9020 C.3       1 RES1    0.0000
     24 C24       15.3911    8.8832   12.3715 C.3       1 RES1    0.0000
     25 C25        4.9122    9.7413    4.8664 C.ar      1 RES1    0.0000
     26 C26        4.8847    8.9972    2.1924 C.ar      1 RES1    0.0000
     27 C27        3.8928    9.8411    2.6685 C.ar      1 RES1    0.0000
     28 C28        3.9252   10.2220    3.9991 C.ar      1 RES1    0.0000
     29 C29        6.9696    7.6116    2.4836 C.3       1 RES1    0.0000
     30 C30       13.5010    9.6287   13.8085 C.3       1 RES1    0.0000
     31 C31       14.1480    7.1977   13.7254 C.3       1 RES1    0.0000
     32 C32        4.8586   10.0872    6.3393 C.3       1 RES1    0.0000
     33 C33        2.7747   10.3207    1.7789 C.3       1 RES1    0.0000
     34 H1         2.8278   11.2943    1.6822 H         1 RES1    0.0000
     35 H2         1.9124   10.0788    2.1772 H         1 RES1    0.0000
     36 H3         2.8561    9.8999    0.8970 H         1 RES1    0.0000
     37 H4        10.4751   11.3252    6.0584 H         1 RES1    0.0000
     38 H5         4.9331    6.2970    5.6627 H         1 RES1    0.0000
     39 H6         7.9108    8.0217    2.6211 H         1 RES1    0.0000
     40 H7        15.7683    8.2401   11.8064 H         1 RES1    0.0000
     41 H8        11.2291   10.0309    7.7654 H         1 RES1    0.0000
     42 H9         9.2639    5.9732    9.7332 H         1 RES1    0.0000
     43 H10       14.2528    8.5704   10.1366 H         1 RES1    0.0000
     44 H11       12.6438    8.2305    8.4715 H         1 RES1    0.0000
     45 H12       13.2567    6.8819   14.0985 H         1 RES1    0.0000
     46 H13       15.3487    9.7390   11.9275 H         1 RES1    0.0000
     47 H14       12.6065    9.3715   14.2459 H         1 RES1    0.0000
     48 H15        8.5709   10.8203    4.7145 H         1 RES1    0.0000
     49 H16        3.2685   10.7638    4.3343 H         1 RES1    0.0000
     50 H17        9.7839    7.5519   11.3781 H         1 RES1    0.0000
     51 H18       15.9943    8.9272   13.1162 H         1 RES1    0.0000
     52 H19       14.5050    6.4291   13.1146 H         1 RES1    0.0000
     53 H20       13.4126   10.4719   13.2745 H         1 RES1    0.0000
     54 H21       11.3930    7.8513   13.0727 H         1 RES1    0.0000
     55 H22        4.3273   10.9194    6.4603 H         1 RES1    0.0000
     56 H23        6.9612    6.7221    2.9795 H         1 RES1    0.0000
     57 H24       14.1159    9.8434   14.5113 H         1 RES1    0.0000
     58 H25       14.8044    7.3719   14.5175 H         1 RES1    0.0000
     59 H26        4.8474    8.6822    1.2089 H         1 RES1    0.0000
     60 H27        4.4643    9.3534    6.8328 H         1 RES1    0.0000
     61 H28        6.8329    7.4252    1.4913 H         1 RES1    0.0000
     62 H29        5.8173   10.2802    6.7055 H         1 RES1    0.0000
     63 C1B        4.8430    3.5037    8.5038 C.ar      1 RES1    0.0000
     64 C2B        5.9462    3.4137    9.4247 C.2       1 RES1    0.0000
     65 C3B        4.7193    4.3593    7.4459 C.ar      1 RES1    0.0000
     66 C4B        6.9784    4.3688    9.2634 C.2       1 RES1    0.0000
     67 C5B        6.9139    5.3022    8.2445 C.2       1 RES1    0.0000
     68 C6B        3.9760    2.4406    8.7342 C.ar      1 RES1    0.0000
     69 C7B        2.8889    2.1463    7.9158 C.ar      1 RES1    0.0000
     70 C8B        4.4994    1.6440    9.7862 C.ar      1 RES1    0.0000
     71 C9B        6.7798    1.7451   11.1536 C.ar      1 RES1    0.0000
     72 C10B       2.7105    3.0452    6.7890 C.ar      1 RES1    0.0000
     73 C11B       3.5915    4.1010    6.5935 C.ar      1 RES1    0.0000
     74 C12B       1.6509    2.8070    5.7684 C.ar      1 RES1    0.0000
     75 C13B       5.7638    2.2812   10.2155 C.2       1 RES1    0.0000
     76 C14B       1.9799    2.9117    4.4055 C.ar      1 RES1    0.0000
     77 C15B       3.8204    0.4717   10.0727 C.ar      1 RES1    0.0000
     78 C16B       2.2193    0.9317    8.2418 C.ar      1 RES1    0.0000
     79 C17B      -0.3002    2.3930    3.7443 C.ar      1 RES1    0.0000
     80 C18B       2.6800    0.1519    9.2909 C.ar      1 RES1    0.0000
     81 C19B       6.7864    2.1265   12.5026 C.ar      1 RES1    0.0000
     82 C20B       1.0210    2.7159    3.4268 C.ar      1 RES1    0.0000
     83 C21B       0.3403    2.5013    6.0930 C.ar      1 RES1    0.0000
     84 C22B      -0.6192    2.2927    5.1006 C.ar      1 RES1    0.0000
     85 C23B      -1.3130    2.1594    2.6164 C.3       1 RES1    0.0000
     86 C24B      -2.6947    1.7698    3.1470 C.3       1 RES1    0.0000
     87 C25B       7.7842    0.9117   10.6520 C.ar      1 RES1    0.0000
     88 C26B       7.8118    1.6558   13.3260 C.ar      1 RES1    0.0000
     89 C27B       8.8037    0.8120   12.8499 C.ar      1 RES1    0.0000
     90 C28B       8.7713    0.4310   11.5193 C.ar      1 RES1    0.0000
     91 C29B       5.7268    3.0414   13.0349 C.3       1 RES1    0.0000
     92 C30B      -0.8045    1.0243    1.7100 C.3       1 RES1    0.0000
     93 C31B      -1.4516    3.4553    1.7930 C.3       1 RES1    0.0000
     94 C32B       7.8379    0.5658    9.1792 C.3       1 RES1    0.0000
     95 C33B       9.9217    0.3324   13.7396 C.3       1 RES1    0.0000
     96 H1B        9.8687   -0.6413   13.8362 H         1 RES1    0.0000
     97 H2B       10.7841    0.5742   13.3412 H         1 RES1    0.0000
     98 H3B        9.8403    0.7532   14.6215 H         1 RES1    0.0000
     99 H4B        2.2214   -0.6722    9.4600 H         1 RES1    0.0000
    100 H5B        7.7633    4.3560    9.8558 H         1 RES1    0.0000
    101 H6B        4.7856    2.6313   12.8974 H         1 RES1    0.0000
    102 H7B       -3.0719    2.4129    3.7120 H         1 RES1    0.0000
    103 H8B        1.4673    0.6221    7.7530 H         1 RES1    0.0000
    104 H9B        3.4325    4.6799    5.7853 H         1 RES1    0.0000
    105 H10B      -1.5563    2.0827    5.3818 H         1 RES1    0.0000
    106 H11B       0.0526    2.4225    7.0469 H         1 RES1    0.0000
    107 H12B      -0.5603    3.7712    1.4199 H         1 RES1    0.0000
    108 H13B      -2.6523    0.9140    3.5910 H         1 RES1    0.0000
    109 H14B       0.0899    1.2816    1.2725 H         1 RES1    0.0000
    110 H15B       4.1255   -0.1673   10.8039 H         1 RES1    0.0000
    111 H16B       9.4279   -0.1108   11.1841 H         1 RES1    0.0000
    112 H17B       2.9125    3.1011    4.1403 H         1 RES1    0.0000
    113 H18B      -3.2979    1.7258    2.4023 H         1 RES1    0.0000
    114 H19B      -1.8085    4.2239    2.4038 H         1 RES1    0.0000
    115 H20B      -0.7161    0.1811    2.2440 H         1 RES1    0.0000
    116 H21B       1.3034    2.8017    2.4457 H         1 RES1    0.0000
    117 H22B       8.3692   -0.2663    9.0581 H         1 RES1    0.0000
    118 H23B       5.7352    3.9310   12.5389 H         1 RES1    0.0000
    119 H24B      -1.4194    0.8096    1.0071 H         1 RES1    0.0000
    120 H25B      -2.1080    3.2811    1.0009 H         1 RES1    0.0000
    121 H26B       7.8490    1.9708   14.3095 H         1 RES1    0.0000
    122 H27B       8.2321    1.2997    8.6857 H         1 RES1    0.0000
    123 H28B       5.8635    3.2279   14.0271 H         1 RES1    0.0000
    124 H29B       6.8791    0.3729    8.8129 H         1 RES1    0.0000
@<TRIPOS>BOND
     1    1    2 1
     2    2    4 1
     3    3    1 ar
     4    4    5 2
     5    5   65 1
     6    6    1 ar
     7    7    6 ar
     8    8    6 ar
     9    9   13 1
    10   10    7 ar
    11   11    3 ar
    12   12   10 1
    13   13    2 2
    14   14   12 ar
    15   15    8 ar
    16   16    7 ar
    17   17   20 ar
    18   18   15 ar
    19   19    9 ar
    20   20   14 ar
    21   21   12 ar
    22   22   17 ar
    23   23   17 1
    24   24   23 1
    25   25    9 ar
    26   26   19 ar
    27   27   26 ar
    28   28   25 ar
    29   29   19 1
    30   30   23 1
    31   31   23 1
    32   32   25 1
    33   33   27 1
    34   34   33 1
    35   35   33 1
    36   36   33 1
    37   37   18 1
    38   38    4 1
    39   39   29 1
    40   40   24 1
    41   41   16 1
    42   42   11 1
    43   43   22 1
    44   44   21 1
    45   45   31 1
    46   46   24 1
    47   47   30 1
    48   48   15 1
    49   49   28 1
    50   50   14 1
    51   51   24 1
    52   52   31 1
    53   53   30 1
    54   54   20 1
    55   55   32 1
    56   56   29 1
    57   57   30 1
    58   58   31 1
    59   59   26 1
    60   60   32 1
    61   61   29 1
    62   62   32 1
    63   63   64 1
    64   64   66 1
    65   65   63 ar
    66   66   67 2
    67   67    3 1
    68   68   63 ar
    69   69   68 ar
    70   70   68 ar
    71   71   75 1
    72   72   69 ar
    73   73   65 ar
    74   74   72 1
    75   75   64 2
    76   76   74 ar
    77   77   70 ar
    78   78   69 ar
    79   79   82 ar
    80   80   77 ar
    81   81   71 ar
    82   82   76 ar
    83   83   74 ar
    84   84   79 ar
    85   85   79 1
    86   86   85 1
    87   87   71 ar
    88   88   81 ar
    89   89   88 ar
    90   90   87 ar
    91   91   81 1
    92   92   85 1
    93   93   85 1
    94   94   87 1
    95   95   89 1
    96   96   95 1
    97   97   95 1
    98   98   95 1
    99   99   80 1
   100  100   66 1
   101  101   91 1
   102  102   86 1
   103  103   78 1
   104  104   73 1
   105  105   84 1
   106  106   83 1
   107  107   93 1
   108  108   86 1
   109  109   92 1
   110  110   77 1
   111  111   90 1
   112  112   76 1
   113  113   86 1
   114  114   93 1
   115  115   92 1
   116  116   82 1
   117  117   94 1
   118  118   91 1
   119  119   92 1
   120  120   93 1
   121  121   88 1
   122  122   94 1
   123  123   91 1
   124  124   94 1
   125    5   67 1
   126    8   13 1
   127   10   11 ar
   128   16   18 ar
   129   21   22 ar
   130   27   28 ar
   131   70   75 1
   132   72   73 ar
   133   78   80 ar
   134   83   84 ar
   135   89   90 ar
@<TRIPOS>SUBSTRUCTURE
     1 RES1 1

@<TRIPOS>CRYSIN
  14.0919   10.6530   15.5811  90.0000  95.1384  90.0000  14 1

