# MOL2 file generated by ConQuest
# Please check atom types

@<TRIPOS>MOLECULE
NEGJIV
   118   128     1
SMALL
NO_CHARGES
****
Generated from CSD

@<TRIPOS>ATOM
      1 C1        10.7424    2.8304   10.3809 C.ar      1 RES1    0.0000
      2 C2         7.9756    2.0122    6.2449 C.ar      1 RES1    0.0000
      3 C3         7.6230    4.4486    8.8708 C.ar      1 RES1    0.0000
      4 C4         9.6452    3.1193    9.4249 C.ar      1 RES1    0.0000
      5 C5         8.3848    2.6586    7.4366 C.ar      1 RES1    0.0000
      6 C6         9.4749    2.3367    8.2217 C.ar      1 RES1    0.0000
      7 C7         8.7358    4.1405    9.7083 C.ar      1 RES1    0.0000
      8 H1         8.8608    4.6433   10.4800 H         1 RES1    0.0000
      9 C8         5.9427    2.2270    4.6165 C.ar      1 RES1    0.0000
     10 C9         6.4523    2.3761    3.3178 C.ar      1 RES1    0.0000
     11 C10        6.4393    3.6825    6.6914 C.2       1 RES1    0.0000
     12 C11        7.4717    3.6779    7.7344 C.ar      1 RES1    0.0000
     13 C12        4.7146    1.5770    4.8273 C.ar      1 RES1    0.0000
     14 C13        6.7399    2.6741    5.7952 C.2       1 RES1    0.0000
     15 C14        5.6891    1.9089    2.2385 C.ar      1 RES1    0.0000
     16 H2         6.0156    2.0104    1.3747 H         1 RES1    0.0000
     17 C15        3.9987    1.1291    3.7234 C.ar      1 RES1    0.0000
     18 H3         3.1824    0.7021    3.8582 H         1 RES1    0.0000
     19 C16       12.7925    2.3468   12.2840 C.ar      1 RES1    0.0000
     20 C17       12.0577    2.6586    9.9897 C.ar      1 RES1    0.0000
     21 H4        12.2742    2.7033    9.0864 H         1 RES1    0.0000
     22 C18        8.7400    0.9444    5.8190 C.ar      1 RES1    0.0000
     23 H5         8.5191    0.4772    5.0457 H         1 RES1    0.0000
     24 C19        7.7774    3.0508    3.0713 C.3       1 RES1    0.0000
     25 H6         7.8431    3.8361    3.6192 H         1 RES1    0.0000
     26 H7         7.8422    3.2994    2.1470 H         1 RES1    0.0000
     27 H8         8.4897    2.4465    3.2920 H         1 RES1    0.0000
     28 C20        4.4631    1.3009    2.4260 C.ar      1 RES1    0.0000
     29 C21       10.2454    1.2333    7.7471 C.ar      1 RES1    0.0000
     30 H9        10.9991    0.9563    8.2166 H         1 RES1    0.0000
     31 C22        9.8722    0.5796    6.5923 C.ar      1 RES1    0.0000
     32 H10       10.3884   -0.1380    6.3056 H         1 RES1    0.0000
     33 C23       10.4630    2.7363   11.7435 C.ar      1 RES1    0.0000
     34 H11        9.5856    2.8222   12.0403 H         1 RES1    0.0000
     35 C24       13.0688    2.4209   10.9220 C.ar      1 RES1    0.0000
     36 H12       13.9442    2.3093   10.6278 H         1 RES1    0.0000
     37 C25       11.4778    2.5168   12.6615 C.ar      1 RES1    0.0000
     38 H13       11.2627    2.4830   13.5659 H         1 RES1    0.0000
     39 C26        4.1715    1.3348    6.2112 C.3       1 RES1    0.0000
     40 H14        4.8364    0.8914    6.7429 H         1 RES1    0.0000
     41 H15        3.3884    0.7835    6.1546 H         1 RES1    0.0000
     42 H16        3.9449    2.1740    6.6170 H         1 RES1    0.0000
     43 C27       13.8953    2.1246   13.3331 C.3       1 RES1    0.0000
     44 C28        3.6127    0.8511    1.2504 C.3       1 RES1    0.0000
     45 H17        3.0428    1.5725    0.9720 H         1 RES1    0.0000
     46 H18        3.0739    0.1006    1.5131 H         1 RES1    0.0000
     47 H19        4.1829    0.5961    0.5222 H         1 RES1    0.0000
     48 C29       13.4034    1.1437   14.4011 C.3       1 RES1    0.0000
     49 H20       12.6666    1.5322   14.8777 H         1 RES1    0.0000
     50 H21       14.1174    0.9535   15.0145 H         1 RES1    0.0000
     51 H22       13.1194    0.3291   13.9796 H         1 RES1    0.0000
     52 C30       15.1722    1.5697   12.7134 C.3       1 RES1    0.0000
     53 H23       14.9819    0.7305   12.2872 H         1 RES1    0.0000
     54 H24       15.8299    1.4390   13.3992 H         1 RES1    0.0000
     55 H25       15.5071    2.1896   12.0623 H         1 RES1    0.0000
     56 C31       14.2039    3.4795   14.0016 C.3       1 RES1    0.0000
     57 H26       14.5579    4.0856   13.3473 H         1 RES1    0.0000
     58 H27       14.8486    3.3515   14.7015 H         1 RES1    0.0000
     59 H28       13.3972    3.8443   14.3712 H         1 RES1    0.0000
     60 C1B        2.2817    6.3118    5.3477 C.ar      1 RES1    0.0000
     61 C2B        5.0485    7.1300    9.4837 C.ar      1 RES1    0.0000
     62 C3B        5.4011    4.6936    6.8578 C.ar      1 RES1    0.0000
     63 C4B        3.3789    6.0229    6.3037 C.ar      1 RES1    0.0000
     64 C5B        4.6393    6.4836    8.2920 C.ar      1 RES1    0.0000
     65 C6B        3.5492    6.8055    7.5070 C.ar      1 RES1    0.0000
     66 C7B        4.2883    5.0017    6.0203 C.ar      1 RES1    0.0000
     67 H1B        4.1633    4.4989    5.2486 H         1 RES1    0.0000
     68 C8B        7.0814    6.9152   11.1121 C.ar      1 RES1    0.0000
     69 C9B        6.5718    6.7661   12.4108 C.ar      1 RES1    0.0000
     70 C10B       6.5848    5.4597    9.0372 C.2       1 RES1    0.0000
     71 C11B       5.5524    5.4643    7.9942 C.ar      1 RES1    0.0000
     72 C12B       8.3095    7.5652   10.9013 C.ar      1 RES1    0.0000
     73 C13B       6.2842    6.4681    9.9334 C.2       1 RES1    0.0000
     74 C14B       7.3350    7.2333   13.4901 C.ar      1 RES1    0.0000
     75 H2B        7.0085    7.1318   14.3539 H         1 RES1    0.0000
     76 C15B       9.0254    8.0131   12.0052 C.ar      1 RES1    0.0000
     77 H3B        9.8417    8.4401   11.8704 H         1 RES1    0.0000
     78 C16B       0.2315    6.7954    3.4446 C.ar      1 RES1    0.0000
     79 C17B       0.9664    6.4836    5.7389 C.ar      1 RES1    0.0000
     80 H4B        0.7499    6.4389    6.6422 H         1 RES1    0.0000
     81 C18B       4.2841    8.1978    9.9097 C.ar      1 RES1    0.0000
     82 H5B        4.5049    8.6650   10.6829 H         1 RES1    0.0000
     83 C19B       5.2467    6.0914   12.6573 C.3       1 RES1    0.0000
     84 H6B        5.1810    5.3061   12.1095 H         1 RES1    0.0000
     85 H7B        5.1819    5.8428   13.5817 H         1 RES1    0.0000
     86 H8B        4.5344    6.6957   12.4366 H         1 RES1    0.0000
     87 C20B       8.5610    7.8413   13.3026 C.ar      1 RES1    0.0000
     88 C21B       2.7787    7.9089    7.9815 C.ar      1 RES1    0.0000
     89 H9B        2.0250    8.1859    7.5120 H         1 RES1    0.0000
     90 C22B       3.1519    8.5626    9.1363 C.ar      1 RES1    0.0000
     91 H10B       2.6357    9.2802    9.4230 H         1 RES1    0.0000
     92 C23B       2.5611    6.4059    3.9852 C.ar      1 RES1    0.0000
     93 H11B       3.4385    6.3200    3.6884 H         1 RES1    0.0000
     94 C24B      -0.0447    6.7213    4.8067 C.ar      1 RES1    0.0000
     95 H12B      -0.9201    6.8329    5.1008 H         1 RES1    0.0000
     96 C25B       1.5463    6.6254    3.0671 C.ar      1 RES1    0.0000
     97 H13B       1.7614    6.6592    2.1627 H         1 RES1    0.0000
     98 C26B       8.8526    7.8074    9.5174 C.3       1 RES1    0.0000
     99 H14B       8.1877    8.2508    8.9858 H         1 RES1    0.0000
    100 H15B       9.6357    8.3587    9.5740 H         1 RES1    0.0000
    101 H16B       9.0792    6.9682    9.1116 H         1 RES1    0.0000
    102 C27B      -0.8712    7.0176    2.3955 C.3       1 RES1    0.0000
    103 C28B       9.4113    8.2911   14.4782 C.3       1 RES1    0.0000
    104 H17B       9.9813    7.5697   14.7566 H         1 RES1    0.0000
    105 H18B       9.9501    9.0416   14.2155 H         1 RES1    0.0000
    106 H19B       8.8412    8.5461   15.2064 H         1 RES1    0.0000
    107 C29B      -0.3793    7.9985    1.3275 C.3       1 RES1    0.0000
    108 H20B       0.3574    7.6100    0.8509 H         1 RES1    0.0000
    109 H21B      -1.0933    8.1887    0.7141 H         1 RES1    0.0000
    110 H22B      -0.0953    8.8131    1.7490 H         1 RES1    0.0000
    111 C30B      -2.1481    7.5725    3.0152 C.3       1 RES1    0.0000
    112 H23B      -1.9578    8.4117    3.4414 H         1 RES1    0.0000
    113 H24B      -2.8058    7.7032    2.3294 H         1 RES1    0.0000
    114 H25B      -2.4830    6.9526    3.6663 H         1 RES1    0.0000
    115 C31B      -1.1798    5.6627    1.7270 C.3       1 RES1    0.0000
    116 H26B      -1.5338    5.0566    2.3813 H         1 RES1    0.0000
    117 H27B      -1.8245    5.7907    1.0271 H         1 RES1    0.0000
    118 H28B      -0.3731    5.2979    1.3574 H         1 RES1    0.0000
@<TRIPOS>BOND
     1    1    4 1
     2    2    5 ar
     3    3    7 ar
     4    4    6 ar
     5    5    6 ar
     6    6   29 ar
     7    7    4 ar
     8    8    7 1
     9    9   10 ar
    10   10   15 ar
    11   11   12 1
    12   12    3 ar
    13   13    9 ar
    14   14    2 1
    15   15   16 1
    16   17   13 ar
    17   18   17 1
    18   19   35 ar
    19   20    1 ar
    20   21   20 1
    21   22    2 ar
    22   23   22 1
    23   24   10 1
    24   25   24 1
    25   26   24 1
    26   27   24 1
    27   28   15 ar
    28   29   30 1
    29   31   22 ar
    30   32   31 1
    31   33    1 ar
    32   34   33 1
    33   35   20 ar
    34   36   35 1
    35   37   19 ar
    36   38   37 1
    37   39   13 1
    38   40   39 1
    39   41   39 1
    40   42   39 1
    41   43   19 1
    42   44   28 1
    43   45   44 1
    44   46   44 1
    45   47   44 1
    46   48   43 1
    47   49   48 1
    48   50   48 1
    49   51   48 1
    50   52   43 1
    51   53   52 1
    52   54   52 1
    53   55   52 1
    54   56   43 1
    55   57   56 1
    56   58   56 1
    57   59   56 1
    58   60   63 1
    59   61   64 ar
    60   62   11 1
    61   63   65 ar
    62   64   65 ar
    63   65   88 ar
    64   66   62 ar
    65   67   66 1
    66   68   69 ar
    67   69   74 ar
    68   70    3 1
    69   71   62 ar
    70   72   68 ar
    71   73   61 1
    72   74   75 1
    73   76   72 ar
    74   77   76 1
    75   78   94 ar
    76   79   60 ar
    77   80   79 1
    78   81   61 ar
    79   82   81 1
    80   83   69 1
    81   84   83 1
    82   85   83 1
    83   86   83 1
    84   87   74 ar
    85   88   89 1
    86   90   81 ar
    87   91   90 1
    88   92   60 ar
    89   93   92 1
    90   94   79 ar
    91   95   94 1
    92   96   78 ar
    93   97   96 1
    94   98   72 1
    95   99   98 1
    96  100   98 1
    97  101   98 1
    98  102   78 1
    99  103   87 1
   100  104  103 1
   101  105  103 1
   102  106  103 1
   103  107  102 1
   104  108  107 1
   105  109  107 1
   106  110  107 1
   107  111  102 1
   108  112  111 1
   109  113  111 1
   110  114  111 1
   111  115  102 1
   112  116  115 1
   113  117  115 1
   114  118  115 1
   115    5   12 ar
   116    9   14 1
   117   11   14 2
   118   17   28 ar
   119   29   31 ar
   120   33   37 ar
   121   63   66 ar
   122   64   71 ar
   123   68   73 1
   124   70   71 1
   125   70   73 2
   126   76   87 ar
   127   88   90 ar
   128   92   96 ar
@<TRIPOS>SUBSTRUCTURE
     1 RES1 1

@<TRIPOS>CRYSIN
  15.4981    9.1422   15.9220  90.0000  98.9390  90.0000  14 1

