# MOL2 file generated by ConQuest
# Please check atom types

@<TRIPOS>MOLECULE
NEJCIQ
    63    66     1
SMALL
NO_CHARGES
****
Generated from CSD

@<TRIPOS>ATOM
      1 C1         6.9608    6.1357   -3.7236 C.3       1 RES1    0.0000
      2 H1         7.4249    6.3313   -4.5647 H         1 RES1    0.0000
      3 H2         7.6134    5.8648   -3.0442 H         1 RES1    0.0000
      4 H3         6.4872    6.9378   -3.4173 H         1 RES1    0.0000
      5 C2         5.9714    5.0211   -3.9427 C.ar      1 RES1    0.0000
      6 C3         6.0517    4.3995   -5.1663 C.ar      1 RES1    0.0000
      7 H4         6.7651    4.6356   -5.7466 H         1 RES1    0.0000
      8 C4         5.1355    3.4342   -5.5968 C.ar      1 RES1    0.0000
      9 H5         5.2384    3.0221   -6.4458 H         1 RES1    0.0000
     10 C5         4.1003    3.0939   -4.7936 C.ar      1 RES1    0.0000
     11 H6         3.4495    2.4723   -5.0977 H         1 RES1    0.0000
     12 C6         3.9843    3.6587   -3.5013 C.ar      1 RES1    0.0000
     13 C7         4.9315    4.6183   -3.0160 C.ar      1 RES1    0.0000
     14 C8         4.7863    5.0806   -1.6525 C.ar      1 RES1    0.0000
     15 C9         3.7166    4.6139   -0.8769 C.ar      1 RES1    0.0000
     16 C10        2.7772    3.7047   -1.4120 C.ar      1 RES1    0.0000
     17 H7         2.0484    3.4122   -0.8778 H         1 RES1    0.0000
     18 C11        2.9063    3.2455   -2.6802 C.ar      1 RES1    0.0000
     19 H8         2.2632    2.6367   -3.0254 H         1 RES1    0.0000
     20 C12        5.7816    6.0370   -1.0177 C.3       1 RES1    0.0000
     21 H9         5.6263    6.9413   -1.3920 H         1 RES1    0.0000
     22 H10        6.6937    5.7595   -1.2823 H         1 RES1    0.0000
     23 C13        5.7299    6.1299    0.5048 C.3       1 RES1    0.0000
     24 H11        6.2534    6.9158    0.7995 H         1 RES1    0.0000
     25 H12        6.1523    5.3220    0.8935 H         1 RES1    0.0000
     26 C14        4.2967    6.2520    1.0409 C.3       1 RES1    0.0000
     27 C15        3.6155    7.5339    0.5323 C.3       1 RES1    0.0000
     28 H13        3.5607    7.5084   -0.4452 H         1 RES1    0.0000
     29 H14        4.1396    8.3140    0.8089 H         1 RES1    0.0000
     30 H15        2.7129    7.5964    0.9092 H         1 RES1    0.0000
     31 C16        3.5512    5.0442    0.5192 C.2       1 RES1    0.0000
     32 C17        2.7974    4.4838    1.4647 C.2       1 RES1    0.0000
     33 H16        2.2596    3.7120    1.3293 H         1 RES1    0.0000
     34 C18        2.9015    5.2190    2.7630 C.3       1 RES1    0.0000
     35 H17        2.9908    4.5916    3.5239 H         1 RES1    0.0000
     36 H18        2.1103    5.7954    2.9125 H         1 RES1    0.0000
     37 C19        4.1806    6.0651    2.5858 C.3       1 RES1    0.0000
     38 H19        4.9457    5.4817    2.8592 H         1 RES1    0.0000
     39 C20        4.2443    7.3198    3.4796 C.3       1 RES1    0.0000
     40 H20        3.5607    7.9633    3.1351 H         1 RES1    0.0000
     41 C21        5.6002    8.0177    3.4016 C.3       1 RES1    0.0000
     42 H21        5.7447    8.3488    2.4893 H         1 RES1    0.0000
     43 H22        6.3087    7.3811    3.6336 H         1 RES1    0.0000
     44 H23        5.6174    8.7689    4.0286 H         1 RES1    0.0000
     45 C22        3.8731    6.9980    4.9375 C.3       1 RES1    0.0000
     46 H24        3.9088    7.8383    5.4613 H         1 RES1    0.0000
     47 H25        2.9366    6.6774    4.9566 H         1 RES1    0.0000
     48 C23        4.7524    5.9574    5.6385 C.3       1 RES1    0.0000
     49 H26        4.7916    5.1414    5.0820 H         1 RES1    0.0000
     50 H27        5.6728    6.3151    5.7184 H         1 RES1    0.0000
     51 C24        4.2467    5.5882    7.0201 C.3       1 RES1    0.0000
     52 H28        4.2740    6.3984    7.5901 H         1 RES1    0.0000
     53 H29        3.2989    5.3127    6.9411 H         1 RES1    0.0000
     54 C25        5.0076    4.4863    7.7233 C.3       1 RES1    0.0000
     55 H30        5.0659    3.7143    7.0916 H         1 RES1    0.0000
     56 C26        4.2943    3.9967    8.9701 C.3       1 RES1    0.0000
     57 H31        3.3691    3.7641    8.7469 H         1 RES1    0.0000
     58 H32        4.2984    4.7051    9.6467 H         1 RES1    0.0000
     59 H33        4.7548    3.2062    9.3207 H         1 RES1    0.0000
     60 C27        6.4039    4.8810    8.0745 C.3       1 RES1    0.0000
     61 H34        6.9168    5.0326    7.2546 H         1 RES1    0.0000
     62 H35        6.8246    4.1657    8.5964 H         1 RES1    0.0000
     63 H36        6.3873    5.7040    8.6058 H         1 RES1    0.0000
@<TRIPOS>BOND
     1    1    2 1
     2    3    1 1
     3    4    1 1
     4    5    1 1
     5    6    5 ar
     6    7    6 1
     7    8    6 ar
     8    9    8 1
     9   10    8 ar
    10   11   10 1
    11   12   10 ar
    12   13    5 ar
    13   14   13 ar
    14   15   14 ar
    15   16   15 ar
    16   17   16 1
    17   18   12 ar
    18   19   18 1
    19   20   14 1
    20   21   20 1
    21   22   20 1
    22   23   20 1
    23   24   23 1
    24   25   23 1
    25   26   23 1
    26   27   26 1
    27   28   27 1
    28   29   27 1
    29   30   27 1
    30   31   15 1
    31   32   31 2
    32   33   32 1
    33   34   32 1
    34   35   34 1
    35   36   34 1
    36   37   26 1
    37   38   37 1
    38   39   37 1
    39   40   39 1
    40   41   39 1
    41   42   41 1
    42   43   41 1
    43   44   41 1
    44   45   39 1
    45   46   45 1
    46   47   45 1
    47   48   45 1
    48   49   48 1
    49   50   48 1
    50   51   48 1
    51   52   51 1
    52   53   51 1
    53   54   51 1
    54   55   54 1
    55   56   54 1
    56   57   56 1
    57   58   56 1
    58   59   56 1
    59   60   54 1
    60   61   60 1
    61   62   60 1
    62   63   60 1
    63   12   13 ar
    64   16   18 ar
    65   26   31 1
    66   34   37 1
@<TRIPOS>SUBSTRUCTURE
     1 RES1 1

@<TRIPOS>CRYSIN
   5.9494   11.5746   31.3510  90.0000  90.0000  90.0000  19 1

