# MOL2 file generated by ConQuest
# Please check atom types

@<TRIPOS>MOLECULE
NEJGUE01
    80    90     1
SMALL
NO_CHARGES
****
Generated from CSD

@<TRIPOS>ATOM
      1 C1         4.4334    7.7447    2.6117 C.ar      1 RES1    0.0000
      2 C2         4.0078    8.5033    1.5511 C.ar      1 RES1    0.0000
      3 C3         2.9233    8.0658    0.7516 C.ar      1 RES1    0.0000
      4 C4         2.3155    6.8645    1.0019 C.ar      1 RES1    0.0000
      5 C5         2.7573    6.0223    2.0650 C.ar      1 RES1    0.0000
      6 C6         3.8309    6.4830    2.9112 C.ar      1 RES1    0.0000
      7 C7         2.1879    4.7758    2.3342 C.ar      1 RES1    0.0000
      8 C8         5.5671    8.3884    3.3753 C.3       1 RES1    0.0000
      9 C9         5.0916    9.7609    3.8494 C.3       1 RES1    0.0000
     10 C10        6.7502    8.5857    2.4137 C.3       1 RES1    0.0000
     11 C11        4.8044    9.7712    1.3689 C.3       1 RES1    0.0000
     12 C12        4.7030   10.6178    2.6369 C.3       1 RES1    0.0000
     13 C13        6.2786    9.3661    1.1747 C.3       1 RES1    0.0000
     14 C14        2.3022    8.8221   -0.3966 C.3       1 RES1    0.0000
     15 C15        0.8274    9.0581   -0.0523 C.3       1 RES1    0.0000
     16 C16        2.3680    7.9472   -1.6457 C.3       1 RES1    0.0000
     17 C17        1.1676    6.5810    0.0656 C.3       1 RES1    0.0000
     18 C18        0.1488    7.7202    0.2440 C.3       1 RES1    0.0000
     19 C19        1.6692    6.6141   -1.3689 C.3       1 RES1    0.0000
     20 H1         5.8265    7.8566    4.1363 H         1 RES1    0.0000
     21 H2         4.3203    9.6420    4.4390 H         1 RES1    0.0000
     22 H3         5.8364   10.1868    4.3192 H         1 RES1    0.0000
     23 H4         7.1317    7.6865    2.1375 H         1 RES1    0.0000
     24 H5         7.4705    9.1054    2.8374 H         1 RES1    0.0000
     25 H6         4.4883   10.2662    0.5612 H         1 RES1    0.0000
     26 H7         3.8390   10.9388    2.7681 H         1 RES1    0.0000
     27 H8         5.3653   11.3784    2.5032 H         1 RES1    0.0000
     28 H9         6.3410    8.7670    0.3972 H         1 RES1    0.0000
     29 H10        6.8729   10.1747    1.0089 H         1 RES1    0.0000
     30 H11        2.7730    9.6524   -0.5297 H         1 RES1    0.0000
     31 H12        0.7959    9.6844    0.7062 H         1 RES1    0.0000
     32 H13        0.3283    9.4951   -0.7945 H         1 RES1    0.0000
     33 H14        3.2799    7.8122   -1.8916 H         1 RES1    0.0000
     34 H15        1.9389    8.3890   -2.4339 H         1 RES1    0.0000
     35 H16        0.7582    5.6685    0.2333 H         1 RES1    0.0000
     36 H17       -0.1971    7.7041    1.1287 H         1 RES1    0.0000
     37 H18       -0.6208    7.5760   -0.4098 H         1 RES1    0.0000
     38 H19        2.2963    5.8988   -1.5511 H         1 RES1    0.0000
     39 H20        0.8513    6.5228   -1.9357 H         1 RES1    0.0000
     40 H21        1.5375    4.4822    1.7466 H         1 RES1    0.0000
     41 C7A        4.2403    5.6728    3.9711 C.ar      1 RES1    0.0000
     42 C5A        3.6709    4.4263    4.2404 C.ar      1 RES1    0.0000
     43 C4A        4.1127    3.5841    5.3034 C.ar      1 RES1    0.0000
     44 C3A        3.5049    2.3828    5.5538 C.ar      1 RES1    0.0000
     45 C2A        2.4204    1.9454    4.7542 C.ar      1 RES1    0.0000
     46 C1A        1.9949    2.7039    3.6937 C.ar      1 RES1    0.0000
     47 C6A        2.5973    3.9656    3.3942 C.ar      1 RES1    0.0000
     48 C8A        0.8611    2.0602    2.9301 C.3       1 RES1    0.0000
     49 C9A        1.3366    0.6877    2.4559 C.3       1 RES1    0.0000
     50 C12A       1.7252   -0.1692    3.6685 C.3       1 RES1    0.0000
     51 C11A       1.6238    0.6774    4.9365 C.3       1 RES1    0.0000
     52 C13A       0.1497    1.0825    5.1307 C.3       1 RES1    0.0000
     53 C10A      -0.3219    1.8629    3.8917 C.3       1 RES1    0.0000
     54 H1A        0.6018    2.5920    2.1690 H         1 RES1    0.0000
     55 H4A       -0.7035    2.7621    4.1678 H         1 RES1    0.0000
     56 H5A       -1.0423    1.3432    3.4680 H         1 RES1    0.0000
     57 H9A        0.0872    1.6816    5.9081 H         1 RES1    0.0000
     58 H10A      -0.4446    0.2739    5.2965 H         1 RES1    0.0000
     59 H6A        1.9400    0.1824    5.7442 H         1 RES1    0.0000
     60 H7A        2.5892   -0.4902    3.5373 H         1 RES1    0.0000
     61 H8A        1.0629   -0.9298    3.8021 H         1 RES1    0.0000
     62 H2A        2.1079    0.8066    1.8664 H         1 RES1    0.0000
     63 H3A        0.5918    0.2618    1.9862 H         1 RES1    0.0000
     64 C14A       4.1261    1.6265    6.7020 C.3       1 RES1    0.0000
     65 C15A       5.6008    1.3905    6.3577 C.3       1 RES1    0.0000
     66 C18A       6.2794    2.7284    6.0614 C.3       1 RES1    0.0000
     67 C17A       5.2606    3.8676    6.2398 C.3       1 RES1    0.0000
     68 C19A       4.7590    3.8346    7.6743 C.3       1 RES1    0.0000
     69 C16A       4.0602    2.5014    7.9511 C.3       1 RES1    0.0000
     70 H11A       3.6553    0.7962    6.8350 H         1 RES1    0.0000
     71 H14A       3.1483    2.6364    8.1970 H         1 RES1    0.0000
     72 H15A       4.4893    2.0596    8.7392 H         1 RES1    0.0000
     73 H19A       4.1319    4.5498    7.8565 H         1 RES1    0.0000
     74 H20A       5.5769    3.9259    8.2411 H         1 RES1    0.0000
     75 H16A       5.6700    4.7801    6.0721 H         1 RES1    0.0000
     76 H17A       6.6254    2.7445    5.1767 H         1 RES1    0.0000
     77 H18A       7.0491    2.8726    6.7152 H         1 RES1    0.0000
     78 H12A       5.6324    0.7642    5.5992 H         1 RES1    0.0000
     79 H13A       6.0999    0.9535    7.0998 H         1 RES1    0.0000
     80 H21A       4.8908    5.9664    4.5588 H         1 RES1    0.0000
@<TRIPOS>BOND
     1    1    2 ar
     2    2    3 ar
     3    3    4 ar
     4    4    5 ar
     5    5    6 ar
     6    6    1 ar
     7    7    5 ar
     8    8    1 1
     9    9    8 1
    10   10    8 1
    11   11    2 1
    12   12    9 1
    13   13   10 1
    14   14    3 1
    15   15   14 1
    16   16   14 1
    17   17    4 1
    18   18   15 1
    19   19   16 1
    20   20    8 1
    21   21    9 1
    22   22    9 1
    23   23   10 1
    24   24   10 1
    25   25   11 1
    26   26   12 1
    27   27   12 1
    28   28   13 1
    29   29   13 1
    30   30   14 1
    31   31   15 1
    32   32   15 1
    33   33   16 1
    34   34   16 1
    35   35   17 1
    36   36   18 1
    37   37   18 1
    38   38   19 1
    39   39   19 1
    40   40    7 1
    41   41    6 ar
    42   42   41 ar
    43   43   42 ar
    44   44   43 ar
    45   45   44 ar
    46   46   45 ar
    47   47    7 ar
    48   48   46 1
    49   49   48 1
    50   50   49 1
    51   51   45 1
    52   52   51 1
    53   53   48 1
    54   54   48 1
    55   55   53 1
    56   56   53 1
    57   57   52 1
    58   58   52 1
    59   59   51 1
    60   60   50 1
    61   61   50 1
    62   62   49 1
    63   63   49 1
    64   64   44 1
    65   65   64 1
    66   66   65 1
    67   67   43 1
    68   68   67 1
    69   69   64 1
    70   70   64 1
    71   71   69 1
    72   72   69 1
    73   73   68 1
    74   74   68 1
    75   75   67 1
    76   76   66 1
    77   77   66 1
    78   78   65 1
    79   79   65 1
    80   80   41 1
    81   11   12 1
    82   11   13 1
    83   17   18 1
    84   17   19 1
    85   42   47 ar
    86   46   47 ar
    87   50   51 1
    88   52   53 1
    89   66   67 1
    90   68   69 1
@<TRIPOS>SUBSTRUCTURE
     1 RES1 1

@<TRIPOS>CRYSIN
   9.6120   11.3310    6.6460  95.1400 106.9400  96.3200   2 1

