# MOL2 file generated by ConQuest
# Please check atom types

@<TRIPOS>MOLECULE
NERZAM
    44    46     1
SMALL
NO_CHARGES
****
Generated from CSD

@<TRIPOS>ATOM
      1 C1        14.8362    3.4205    3.5914 C.3       1 RES1    0.0000
      2 H1        14.6427    3.8876    2.7748 H         1 RES1    0.0000
      3 H2        15.6986    3.6863    3.9172 H         1 RES1    0.0000
      4 H3        14.1672    3.6347    4.2472 H         1 RES1    0.0000
      5 C2        15.9614    1.5267    2.4303 C.3       1 RES1    0.0000
      6 H4        15.8898    1.9953    1.5960 H         1 RES1    0.0000
      7 H5        15.9208    0.5798    2.2713 H         1 RES1    0.0000
      8 H6        16.8000    1.7425    2.8475 H         1 RES1    0.0000
      9 C3        13.4911    1.6185    2.6013 C.3       1 RES1    0.0000
     10 H7        13.5007    0.7102    2.2924 H         1 RES1    0.0000
     11 H8        13.3884    2.2111    1.8524 H         1 RES1    0.0000
     12 H9        12.7577    1.7425    3.2080 H         1 RES1    0.0000
     13 C4        14.8307    1.9341    3.3341 C.3       1 RES1    0.0000
     14 C5        14.8531    1.1515    4.6737 C.3       1 RES1    0.0000
     15 H10       14.0908    1.5041    5.1772 H         1 RES1    0.0000
     16 C6        16.0326    1.4091    5.5537 C.3       1 RES1    0.0000
     17 H11       16.8287    1.0661    5.1179 H         1 RES1    0.0000
     18 H12       16.1430    2.3673    5.6570 H         1 RES1    0.0000
     19 C7        15.9192    0.7891    6.9052 C.3       1 RES1    0.0000
     20 H13       16.8024    0.7666    7.3063 H         1 RES1    0.0000
     21 H14       15.3618    1.3592    7.4577 H         1 RES1    0.0000
     22 C8        15.3699   -0.5540    6.9331 C.2       1 RES1    0.0000
     23 C9        14.7569   -1.0677    5.8415 C.2       1 RES1    0.0000
     24 H15       14.4229   -1.9357    5.8863 H         1 RES1    0.0000
     25 C10       14.5925   -0.3092    4.5747 C.3       1 RES1    0.0000
     26 H16       13.6870   -0.4396    4.2548 H         1 RES1    0.0000
     27 H17       15.1922   -0.6844    3.9121 H         1 RES1    0.0000
     28 C11       15.5971   -1.3672    8.1677 C.ar      1 RES1    0.0000
     29 C12       16.8681   -1.6281    8.5841 C.ar      1 RES1    0.0000
     30 H18       17.5789   -1.2787    8.0983 H         1 RES1    0.0000
     31 C13       17.1416   -2.4060    9.7138 C.ar      1 RES1    0.0000
     32 H19       18.0232   -2.5622    9.9625 H         1 RES1    0.0000
     33 C14       16.1358   -2.9294   10.4474 C.ar      1 RES1    0.0000
     34 H20       16.3318   -3.4576   11.1879 H         1 RES1    0.0000
     35 C15       14.7743   -2.6781   10.0912 C.ar      1 RES1    0.0000
     36 C16       13.7181   -3.1854   10.8494 C.ar      1 RES1    0.0000
     37 H21       13.8949   -3.7217   11.5881 H         1 RES1    0.0000
     38 C17       12.4543   -2.9036   10.5211 C.ar      1 RES1    0.0000
     39 H22       11.7614   -3.2466   11.0398 H         1 RES1    0.0000
     40 C18       12.1485   -2.1016    9.4091 C.ar      1 RES1    0.0000
     41 H23       11.2597   -1.9180    9.2010 H         1 RES1    0.0000
     42 C19       13.1364   -1.5943    8.6441 C.ar      1 RES1    0.0000
     43 H24       12.9273   -1.0564    7.9155 H         1 RES1    0.0000
     44 C20       14.5161   -1.8837    8.9479 C.ar      1 RES1    0.0000
@<TRIPOS>BOND
     1    1    2 1
     2    3    1 1
     3    4    1 1
     4    5    6 1
     5    7    5 1
     6    8    5 1
     7    9   10 1
     8   11    9 1
     9   12    9 1
    10   13    1 1
    11   14   13 1
    12   15   14 1
    13   16   14 1
    14   17   16 1
    15   18   16 1
    16   19   16 1
    17   20   19 1
    18   21   19 1
    19   22   19 1
    20   23   22 2
    21   24   23 1
    22   25   14 1
    23   26   25 1
    24   27   25 1
    25   28   22 1
    26   29   28 ar
    27   30   29 1
    28   31   29 ar
    29   32   31 1
    30   33   31 ar
    31   34   33 1
    32   35   33 ar
    33   36   35 ar
    34   37   36 1
    35   38   36 ar
    36   39   38 1
    37   40   38 ar
    38   41   40 1
    39   42   40 ar
    40   43   42 1
    41   44   28 ar
    42    5   13 1
    43    9   13 1
    44   23   25 1
    45   35   44 ar
    46   42   44 ar
@<TRIPOS>SUBSTRUCTURE
     1 RES1 1

@<TRIPOS>CRYSIN
  23.8908   16.1042    8.4622  90.0000  90.0000  90.0000  56 1

