# MOL2 file generated by ConQuest
# Please check atom types

@<TRIPOS>MOLECULE
NIBBIK
    90    96     1
SMALL
NO_CHARGES
****
Generated from CSD

@<TRIPOS>ATOM
      1 C1        25.3120    5.9267    6.4994 C.ar      1 RES1    0.0000
      2 H1        24.7976    5.7564    5.7432 H         1 RES1    0.0000
      3 C2        26.2233    6.8939    6.4609 C.ar      1 RES1    0.0000
      4 C3        27.0254    7.1692    7.5941 C.ar      1 RES1    0.0000
      5 C4        25.9317    5.4225    8.8308 C.ar      1 RES1    0.0000
      6 C5        26.8908    6.4644    8.7193 C.ar      1 RES1    0.0000
      7 H2        27.4365    6.6598    9.4450 H         1 RES1    0.0000
      8 C6        25.7423    4.6764    9.9620 C.ar      1 RES1    0.0000
      9 C7        24.8034    3.6559   10.0856 C.ar      1 RES1    0.0000
     10 C8        23.9749    3.3769    8.9139 C.ar      1 RES1    0.0000
     11 C9        25.1043    5.1529    7.6631 C.ar      1 RES1    0.0000
     12 C10       24.1732    4.1450    7.7685 C.ar      1 RES1    0.0000
     13 H3        23.6396    3.9658    7.0285 H         1 RES1    0.0000
     14 C11       24.6448    2.8947   11.2594 C.ar      1 RES1    0.0000
     15 C12       25.4951    3.1956   12.3744 C.1       1 RES1    0.0000
     16 C13       26.2197    3.5222   13.2502 C.1       1 RES1    0.0000
     17 C14       27.1505    3.9543   14.2517 C.ar      1 RES1    0.0000
     18 C15       27.3441    3.2928   15.4396 C.ar      1 RES1    0.0000
     19 H4        26.8229    2.5461   15.6262 H         1 RES1    0.0000
     20 C16       28.2766    3.6889   16.3600 C.ar      1 RES1    0.0000
     21 H5        28.3645    3.2259   17.1608 H         1 RES1    0.0000
     22 C17       29.0563    4.7391   16.1127 C.ar      1 RES1    0.0000
     23 C18       28.8709    5.4654   14.9612 C.ar      1 RES1    0.0000
     24 C19       27.9217    5.0505   14.0287 C.ar      1 RES1    0.0000
     25 H6        27.8152    5.5322   13.2401 H         1 RES1    0.0000
     26 C20       30.0139    5.3713   17.3128 C.3       1 RES1    0.0000
     27 H7        29.7576    5.0050   18.1724 H         1 RES1    0.0000
     28 H8        29.9131    6.3348   17.3453 H         1 RES1    0.0000
     29 C21       31.1422    5.0892   17.0696 C.3       1 RES1    0.0000
     30 H9        31.1765    4.1340   16.8912 H         1 RES1    0.0000
     31 H10       31.3895    5.5401   16.2485 H         1 RES1    0.0000
     32 C22       32.4322    5.4706   18.3386 C.3       1 RES1    0.0000
     33 H11       33.2927    5.5908   17.9068 H         1 RES1    0.0000
     34 H12       32.5066    4.7349   18.9651 H         1 RES1    0.0000
     35 C23       32.1402    6.4320   18.8982 C.3       1 RES1    0.0000
     36 H13       32.0370    7.1875   18.2961 H         1 RES1    0.0000
     37 H14       31.3278    6.3191   19.4171 H         1 RES1    0.0000
     38 C24       33.5420    6.6044   19.9199 C.3       1 RES1    0.0000
     39 H15       33.4519    7.3913   20.4592 H         1 RES1    0.0000
     40 H16       33.6182    5.8327   20.4875 H         1 RES1    0.0000
     41 H17       34.3281    6.6776   19.3725 H         1 RES1    0.0000
     42 H18       26.4047    7.5083    5.7574 H         1 RES1    0.0000
     43 H19       27.5715    7.8898    7.4806 H         1 RES1    0.0000
     44 H20       26.2662    4.8593   10.6634 H         1 RES1    0.0000
     45 H21       29.1305    6.2700   14.6369 H         1 RES1    0.0000
     46 C1B       22.3471   -0.7017   13.7732 C.ar      1 RES1    0.0000
     47 H1B       22.8614   -0.5314   14.5294 H         1 RES1    0.0000
     48 C2B       21.4357   -1.6689   13.8118 C.ar      1 RES1    0.0000
     49 C3B       20.6337   -1.9442   12.6785 C.ar      1 RES1    0.0000
     50 C4B       21.7274   -0.1975   11.4419 C.ar      1 RES1    0.0000
     51 C5B       20.7683   -1.2394   11.5534 C.ar      1 RES1    0.0000
     52 H2B       20.2226   -1.4348   10.8276 H         1 RES1    0.0000
     53 C6B       21.9168    0.5486   10.3107 C.ar      1 RES1    0.0000
     54 C7B       22.8557    1.5691   10.1870 C.ar      1 RES1    0.0000
     55 C8B       23.6842    1.8481   11.3588 C.ar      1 RES1    0.0000
     56 C9B       22.5547    0.0721   12.6096 C.ar      1 RES1    0.0000
     57 C10B      23.4859    1.0800   12.5042 C.ar      1 RES1    0.0000
     58 H3B       24.0195    1.2592   13.2441 H         1 RES1    0.0000
     59 C11B      23.0142    2.3304    9.0132 C.ar      1 RES1    0.0000
     60 C12B      22.1640    2.0294    7.8982 C.1       1 RES1    0.0000
     61 C13B      21.4393    1.7028    7.0224 C.1       1 RES1    0.0000
     62 C14B      20.5085    1.2707    6.0210 C.ar      1 RES1    0.0000
     63 C15B      20.3149    1.9322    4.8330 C.ar      1 RES1    0.0000
     64 H4B       20.8362    2.6789    4.6465 H         1 RES1    0.0000
     65 C16B      19.3825    1.5362    3.9126 C.ar      1 RES1    0.0000
     66 H5B       19.2946    1.9991    3.1119 H         1 RES1    0.0000
     67 C17B      18.6028    0.4859    4.1599 C.ar      1 RES1    0.0000
     68 C18B      18.7882   -0.2403    5.3114 C.ar      1 RES1    0.0000
     69 C19B      19.7374    0.1745    6.2440 C.ar      1 RES1    0.0000
     70 H6B       19.8439   -0.3072    7.0326 H         1 RES1    0.0000
     71 C20B      17.6452   -0.1463    2.9598 C.3       1 RES1    0.0000
     72 H7B       17.9015    0.2200    2.1002 H         1 RES1    0.0000
     73 H8B       17.7460   -1.1098    2.9274 H         1 RES1    0.0000
     74 C21B      16.5169    0.1359    3.2031 C.3       1 RES1    0.0000
     75 H9B       16.4825    1.0910    3.3815 H         1 RES1    0.0000
     76 H10B      16.2695   -0.3151    4.0241 H         1 RES1    0.0000
     77 C22B      15.2269   -0.2456    1.9340 C.3       1 RES1    0.0000
     78 H11B      14.3664   -0.3658    2.3658 H         1 RES1    0.0000
     79 H12B      15.1525    0.4901    1.3076 H         1 RES1    0.0000
     80 C23B      15.5189   -1.2070    1.3745 C.3       1 RES1    0.0000
     81 H13B      15.6221   -1.9625    1.9766 H         1 RES1    0.0000
     82 H14B      16.3313   -1.0941    0.8555 H         1 RES1    0.0000
     83 C24B      14.1171   -1.3794    0.3527 C.3       1 RES1    0.0000
     84 H15B      14.2072   -2.1663   -0.1865 H         1 RES1    0.0000
     85 H16B      14.0409   -0.6077   -0.2149 H         1 RES1    0.0000
     86 H17B      13.3309   -1.4526    0.9001 H         1 RES1    0.0000
     87 H18B      21.2544   -2.2833   14.5152 H         1 RES1    0.0000
     88 H19B      20.0876   -2.6647   12.7920 H         1 RES1    0.0000
     89 H20B      21.3928    0.3658    9.6092 H         1 RES1    0.0000
     90 H21B      18.5286   -1.0450    5.6358 H         1 RES1    0.0000
@<TRIPOS>BOND
     1    1    2 1
     2    3    1 ar
     3    4    3 ar
     4    5    6 ar
     5    6    4 ar
     6    7    6 1
     7    8    5 ar
     8    9    8 ar
     9   10    9 ar
    10   11    1 ar
    11   12   10 ar
    12   13   12 1
    13   14    9 ar
    14   15   14 1
    15   16   15 3
    16   17   16 1
    17   18   17 ar
    18   19   18 1
    19   20   18 ar
    20   21   20 1
    21   22   20 ar
    22   23   22 ar
    23   24   17 ar
    24   25   24 1
    25   26   22 1
    26   27   26 1
    27   28   26 1
    28   29   26 1
    29   30   29 1
    30   31   29 1
    31   32   29 1
    32   33   32 1
    33   34   32 1
    34   35   32 1
    35   36   35 1
    36   37   35 1
    37   38   35 1
    38   39   38 1
    39   40   38 1
    40   41   38 1
    41   42    3 1
    42   43    4 1
    43   44    8 1
    44   45   23 1
    45   46   47 1
    46   48   46 ar
    47   49   48 ar
    48   50   51 ar
    49   51   49 ar
    50   52   51 1
    51   53   50 ar
    52   54   53 ar
    53   55   14 ar
    54   56   46 ar
    55   57   55 ar
    56   58   57 1
    57   59   10 ar
    58   60   59 1
    59   61   60 3
    60   62   61 1
    61   63   62 ar
    62   64   63 1
    63   65   63 ar
    64   66   65 1
    65   67   65 ar
    66   68   67 ar
    67   69   62 ar
    68   70   69 1
    69   71   67 1
    70   72   71 1
    71   73   71 1
    72   74   71 1
    73   75   74 1
    74   76   74 1
    75   77   74 1
    76   78   77 1
    77   79   77 1
    78   80   77 1
    79   81   80 1
    80   82   80 1
    81   83   80 1
    82   84   83 1
    83   85   83 1
    84   86   83 1
    85   87   48 1
    86   88   49 1
    87   89   53 1
    88   90   68 1
    89    5   11 ar
    90   11   12 ar
    91   23   24 ar
    92   50   56 ar
    93   54   55 ar
    94   54   59 ar
    95   56   57 ar
    96   68   69 ar
@<TRIPOS>SUBSTRUCTURE
     1 RES1 1

@<TRIPOS>CRYSIN
  16.8670    5.2250   20.4850  90.0000  98.2570  90.0000  14 1

