# MOL2 file generated by ConQuest
# Please check atom types

@<TRIPOS>MOLECULE
NIDGIS
   172   186     2
SMALL
NO_CHARGES
****
Generated from CSD

@<TRIPOS>ATOM
      1 C1        -0.2841    5.5768    6.5388 C.ar      1 RES1    0.0000
      2 C2         0.7073    5.2358    7.4842 C.ar      1 RES1    0.0000
      3 C3         1.2996    6.2594    8.2355 C.ar      1 RES1    0.0000
      4 H1         2.0247    6.0470    8.8107 H         1 RES1    0.0000
      5 C4         0.8578    7.5807    8.1652 C.ar      1 RES1    0.0000
      6 C5        -0.1953    7.8741    7.3049 C.ar      1 RES1    0.0000
      7 H2        -0.5361    8.7600    7.2848 H         1 RES1    0.0000
      8 C6        -0.7690    6.9120    6.4704 C.ar      1 RES1    0.0000
      9 C7        -1.8456    7.2287    5.5336 C.ar      1 RES1    0.0000
     10 C8        -2.4360    6.2122    4.7794 C.ar      1 RES1    0.0000
     11 C9        -1.7216    4.9426    4.6426 C.ar      1 RES1    0.0000
     12 C10       -1.9012    4.1304    3.5228 C.ar      1 RES1    0.0000
     13 H3        -2.5341    4.3953    2.8659 H         1 RES1    0.0000
     14 C11       -1.1915    2.9474    3.3303 C.ar      1 RES1    0.0000
     15 C12       -0.2547    2.5915    4.3062 C.ar      1 RES1    0.0000
     16 H4         0.1997    1.7609    4.2257 H         1 RES1    0.0000
     17 C13        0.0352    3.4171    5.3961 C.ar      1 RES1    0.0000
     18 C14        1.0643    3.0765    6.3735 C.ar      1 RES1    0.0000
     19 C15        1.2332    3.8732    7.5142 C.ar      1 RES1    0.0000
     20 C16       -0.6976    4.6208    5.5569 C.ar      1 RES1    0.0000
     21 C17       -2.2823    8.5734    5.3240 C.ar      1 RES1    0.0000
     22 H5        -1.9362    9.2697    5.8705 H         1 RES1    0.0000
     23 C18       -3.1845    8.8687    4.3568 C.ar      1 RES1    0.0000
     24 H6        -3.3432    9.7771    4.1291 H         1 RES1    0.0000
     25 C19       -3.8951    7.8474    3.6759 C.ar      1 RES1    0.0000
     26 C20       -3.6275    6.4936    4.0115 C.ar      1 RES1    0.0000
     27 C21       -4.5941    5.5184    3.6194 C.ar      1 RES1    0.0000
     28 C22       -5.5703    5.8707    2.7217 C.ar      1 RES1    0.0000
     29 H7        -6.1800    5.2033    2.4299 H         1 RES1    0.0000
     30 C23       -5.7107    7.1763    2.2107 C.ar      1 RES1    0.0000
     31 C24       -4.9115    8.1559    2.7438 C.ar      1 RES1    0.0000
     32 H8        -5.0438    9.0586    2.4819 H         1 RES1    0.0000
     33 C25        1.9591    1.9837    6.1514 C.ar      1 RES1    0.0000
     34 H9         1.8550    1.4419    5.3775 H         1 RES1    0.0000
     35 C26        2.9556    1.7099    7.0309 C.ar      1 RES1    0.0000
     36 H10        3.6271    1.0792    6.7993 H         1 RES1    0.0000
     37 C27        3.0056    2.3584    8.2969 C.ar      1 RES1    0.0000
     38 C28        2.0519    3.3663    8.6023 C.ar      1 RES1    0.0000
     39 C29        1.9027    3.7326    9.9786 C.ar      1 RES1    0.0000
     40 C30        2.8070    3.2397   10.8995 C.ar      1 RES1    0.0000
     41 H11        2.7105    3.4967   11.8078 H         1 RES1    0.0000
     42 C31        3.8599    2.3794   10.5597 C.ar      1 RES1    0.0000
     43 C32        3.9268    1.9208    9.2748 C.ar      1 RES1    0.0000
     44 H12        4.6021    1.2978    9.0361 H         1 RES1    0.0000
     45 C33        1.4600    8.6884    9.0378 C.3       1 RES1    0.0000
     46 C34        2.7107    8.2280    9.7799 C.3       1 RES1    0.0000
     47 H13        3.0561    8.9642   10.3266 H         1 RES1    0.0000
     48 H14        3.3925    7.9531    9.1327 H         1 RES1    0.0000
     49 H15        2.4858    7.4701   10.3588 H         1 RES1    0.0000
     50 C35        0.4011    9.1130   10.0519 C.3       1 RES1    0.0000
     51 H16        0.1877    8.3576   10.6387 H         1 RES1    0.0000
     52 H17       -0.4087    9.3998    9.5785 H         1 RES1    0.0000
     53 H18        0.7438    9.8568   10.5916 H         1 RES1    0.0000
     54 C36        1.8502    9.8970    8.1845 C.3       1 RES1    0.0000
     55 H19        1.0525   10.2557    7.7406 H         1 RES1    0.0000
     56 H20        2.5038    9.6232    7.5078 H         1 RES1    0.0000
     57 H21        2.2424   10.5882    8.7586 H         1 RES1    0.0000
     58 C37       -1.4362    2.0513    2.1146 C.3       1 RES1    0.0000
     59 C38       -0.1111    1.5970    1.4976 C.3       1 RES1    0.0000
     60 H22       -0.2891    1.0840    0.6812 H         1 RES1    0.0000
     61 H23        0.3724    1.0346    2.1376 H         1 RES1    0.0000
     62 H24        0.4328    2.3823    1.2757 H         1 RES1    0.0000
     63 C39       -2.2197    0.8048    2.5704 C.3       1 RES1    0.0000
     64 H25       -3.0953    1.0775    2.9179 H         1 RES1    0.0000
     65 H26       -1.7183    0.3431    3.2746 H         1 RES1    0.0000
     66 H27       -2.3437    0.2003    1.8082 H         1 RES1    0.0000
     67 C40       -2.2241    2.7646    1.0166 C.3       1 RES1    0.0000
     68 H28       -3.1157    2.9948    1.3500 H         1 RES1    0.0000
     69 H29       -2.3090    2.1733    0.2403 H         1 RES1    0.0000
     70 H30       -1.7527    3.5828    0.7555 H         1 RES1    0.0000
     71 C41       -6.7859    7.4756    1.2070 C.3       1 RES1    0.0000
     72 H31       -6.8451    8.4436    1.0701 H         1 RES1    0.0000
     73 H32       -7.6452    7.1397    1.5382 H         1 RES1    0.0000
     74 H33       -6.5698    7.0380    0.3567 H         1 RES1    0.0000
     75 C42       -4.7106    4.1633    4.2872 C.3       1 RES1    0.0000
     76 H34       -5.6522    3.9773    4.4883 H         1 RES1    0.0000
     77 H35       -4.1932    4.1640    5.1199 H         1 RES1    0.0000
     78 H36       -4.3623    3.4719    3.6858 H         1 RES1    0.0000
     79 C43        0.6987    4.4766   10.5208 C.3       1 RES1    0.0000
     80 H37        0.4821    4.1405   11.4165 H         1 RES1    0.0000
     81 H38       -0.0674    4.3358    9.9253 H         1 RES1    0.0000
     82 H39        0.9008    5.4339   10.5718 H         1 RES1    0.0000
     83 C44        4.8299    1.9163   11.6238 C.3       1 RES1    0.0000
     84 H40        4.4358    1.1687   12.1199 H         1 RES1    0.0000
     85 H41        5.0167    2.6552   12.2388 H         1 RES1    0.0000
     86 H42        5.6644    1.6245   11.2010 H         1 RES1    0.0000
     87 C45        4.8648    9.7601    5.5021 C.ar      2 RES2    0.0000
     88 C46        3.8373    9.4506    4.5894 C.ar      2 RES2    0.0000
     89 C47        3.6498   10.2840    3.4831 C.ar      2 RES2    0.0000
     90 H43        3.0186   10.0271    2.8213 H         2 RES2    0.0000
     91 C48        4.3480   11.4700    3.3145 C.ar      2 RES2    0.0000
     92 C49        5.2886   11.8162    4.2882 C.ar      2 RES2    0.0000
     93 H44        5.7353   12.6517    4.2183 H         2 RES2    0.0000
     94 C50        5.5940   10.9747    5.3602 C.ar      2 RES2    0.0000
     95 C51        6.6259   11.3034    6.3381 C.ar      2 RES2    0.0000
     96 C52        6.7992   10.5020    7.4699 C.ar      2 RES2    0.0000
     97 C53        6.2730    9.1392    7.4285 C.ar      2 RES2    0.0000
     98 C54        6.8610    8.1083    8.1704 C.ar      2 RES2    0.0000
     99 H45        7.5850    8.3153    8.7487 H         2 RES2    0.0000
    100 C55        6.4229    6.7901    8.0886 C.ar      2 RES2    0.0000
    101 C56        5.3760    6.4963    7.2172 C.ar      2 RES2    0.0000
    102 H46        5.0384    5.6088    7.1882 H         2 RES2    0.0000
    103 C57        4.8051    7.4598    6.3844 C.ar      2 RES2    0.0000
    104 C58        3.7375    7.1508    5.4405 C.ar      2 RES2    0.0000
    105 C59        3.1337    8.1716    4.7008 C.ar      2 RES2    0.0000
    106 C60        5.2827    8.8017    6.4758 C.ar      2 RES2    0.0000
    107 C61        7.5282   12.3869    6.1249 C.ar      2 RES2    0.0000
    108 H47        7.4255   12.9324    5.3553 H         2 RES2    0.0000
    109 C62        8.5262   12.6534    6.9963 C.ar      2 RES2    0.0000
    110 H48        9.1969   13.2830    6.7622 H         2 RES2    0.0000
    111 C63        8.5850   12.0051    8.2561 C.ar      2 RES2    0.0000
    112 C64        7.6271   10.9896    8.5627 C.ar      2 RES2    0.0000
    113 C65        7.4863   10.6130    9.9355 C.ar      2 RES2    0.0000
    114 C66        8.4027   11.0905   10.8470 C.ar      2 RES2    0.0000
    115 H49        8.3125   10.8214   11.7533 H         2 RES2    0.0000
    116 C67        9.4618   11.9493   10.5163 C.ar      2 RES2    0.0000
    117 C68        9.5140   12.4242    9.2305 C.ar      2 RES2    0.0000
    118 H50       10.1899   13.0466    8.9915 H         2 RES2    0.0000
    119 C69        3.3228    5.7990    5.1977 C.ar      2 RES2    0.0000
    120 H51        3.6841    5.0971    5.7268 H         2 RES2    0.0000
    121 C70        2.4262    5.5096    4.2285 C.ar      2 RES2    0.0000
    122 H52        2.2795    4.6025    3.9880 H         2 RES2    0.0000
    123 C71        1.6984    6.5342    3.5624 C.ar      2 RES2    0.0000
    124 C72        1.9470    7.8849    3.9245 C.ar      2 RES2    0.0000
    125 C73        0.9603    8.8549    3.5577 C.ar      2 RES2    0.0000
    126 C74       -0.0239    8.4927    2.6563 C.ar      2 RES2    0.0000
    127 H53       -0.6517    9.1512    2.3853 H         2 RES2    0.0000
    128 C75       -0.1409    7.1946    2.1210 C.ar      2 RES2    0.0000
    129 C76        0.6884    6.2226    2.6313 C.ar      2 RES2    0.0000
    130 H54        0.5773    5.3224    2.3507 H         2 RES2    0.0000
    131 C77        4.0989   12.4031    2.1267 C.3       2 RES2    0.0000
    132 C78        3.2391   11.7418    1.0423 C.3       2 RES2    0.0000
    133 H55        3.6726   10.9168    0.7406 H         2 RES2    0.0000
    134 H56        3.1403   12.3557    0.2849 H         2 RES2    0.0000
    135 H57        2.3548   11.5314    1.4094 H         2 RES2    0.0000
    136 C79        3.3859   13.6676    2.6189 C.3       2 RES2    0.0000
    137 H58        2.5092   13.4267    2.9848 H         2 RES2    0.0000
    138 H59        3.2685   14.2885    1.8701 H         2 RES2    0.0000
    139 H60        3.9239   14.0959    3.3167 H         2 RES2    0.0000
    140 C80        5.4282   12.7993    1.4795 C.3       2 RES2    0.0000
    141 H61        5.9591   13.3196    2.1178 H         2 RES2    0.0000
    142 H62        5.2546   13.3394    0.6812 H         2 RES2    0.0000
    143 H63        5.9220   11.9907    1.2261 H         2 RES2    0.0000
    144 C81        7.0205    5.6817    8.9635 C.3       2 RES2    0.0000
    145 C82        7.4289    4.4717    8.1104 C.3       2 RES2    0.0000
    146 H64        8.0642    4.7575    7.4211 H         2 RES2    0.0000
    147 H65        6.6340    4.0893    7.6836 H         2 RES2    0.0000
    148 H66        7.8498    3.7953    8.6819 H         2 RES2    0.0000
    149 C83        5.9525    5.2564    9.9699 C.3       2 RES2    0.0000
    150 H67        6.2933    4.5150   10.5124 H         2 RES2    0.0000
    151 H68        5.1487    4.9664    9.4894 H         2 RES2    0.0000
    152 H69        5.7321    6.0126   10.5520 H         2 RES2    0.0000
    153 C84        8.2660    6.1489    9.7242 C.3       2 RES2    0.0000
    154 H70        8.0387    6.9254   10.2770 H         2 RES2    0.0000
    155 H71        8.9657    6.3962    9.0856 H         2 RES2    0.0000
    156 H72        8.5896    5.4236   10.2969 H         2 RES2    0.0000
    157 C85       10.4403   12.4023   11.5750 C.3       2 RES2    0.0000
    158 H73       11.2430   12.7652   11.1440 H         2 RES2    0.0000
    159 H74       10.6881   11.6403   12.1397 H         2 RES2    0.0000
    160 H75       10.0245   13.0970   12.1273 H         2 RES2    0.0000
    161 C86        6.2861    9.8749   10.4799 C.3       2 RES2    0.0000
    162 H76        6.4978    8.9224   10.5594 H         2 RES2    0.0000
    163 H77        5.5271    9.9915    9.8708 H         2 RES2    0.0000
    164 H78        6.0541   10.2339   11.3620 H         2 RES2    0.0000
    165 C87        0.8270   10.1870    4.2624 C.3       2 RES2    0.0000
    166 H79        1.2096   10.8935    3.7006 H         2 RES2    0.0000
    167 H80        1.3052   10.1539    5.1175 H         2 RES2    0.0000
    168 H81       -0.1206   10.3762    4.4264 H         2 RES2    0.0000
    169 C88       -1.2230    6.8750    1.1275 C.3       2 RES2    0.0000
    170 H82       -1.0840    5.9730    0.7728 H         2 RES2    0.0000
    171 H83       -1.1945    7.5239    0.3938 H         2 RES2    0.0000
    172 H84       -2.0971    6.9201    1.5704 H         2 RES2    0.0000
@<TRIPOS>BOND
     1    1    2 ar
     2    2    3 ar
     3    3    4 1
     4    5    3 ar
     5    6    5 ar
     6    7    6 1
     7    8    1 ar
     8    9    8 ar
     9   10    9 ar
    10   11   10 ar
    11   12   11 ar
    12   13   12 1
    13   14   12 ar
    14   15   14 ar
    15   16   15 1
    16   17   15 ar
    17   18   17 ar
    18   19    2 ar
    19   20    1 ar
    20   21    9 ar
    21   22   21 1
    22   23   21 ar
    23   24   23 1
    24   25   23 ar
    25   26   10 ar
    26   27   26 ar
    27   28   27 ar
    28   29   28 1
    29   30   28 ar
    30   31   25 ar
    31   32   31 1
    32   33   18 ar
    33   34   33 1
    34   35   33 ar
    35   36   35 1
    36   37   35 ar
    37   38   19 ar
    38   39   38 ar
    39   40   39 ar
    40   41   40 1
    41   42   40 ar
    42   43   37 ar
    43   44   43 1
    44   45    5 1
    45   46   45 1
    46   47   46 1
    47   48   46 1
    48   49   46 1
    49   50   45 1
    50   51   50 1
    51   52   50 1
    52   53   50 1
    53   54   45 1
    54   55   54 1
    55   56   54 1
    56   57   54 1
    57   58   14 1
    58   59   58 1
    59   60   59 1
    60   61   59 1
    61   62   59 1
    62   63   58 1
    63   64   63 1
    64   65   63 1
    65   66   63 1
    66   67   58 1
    67   68   67 1
    68   69   67 1
    69   70   67 1
    70   71   30 1
    71   72   71 1
    72   73   71 1
    73   74   71 1
    74   75   27 1
    75   76   75 1
    76   77   75 1
    77   78   75 1
    78   79   39 1
    79   80   79 1
    80   81   79 1
    81   82   79 1
    82   83   42 1
    83   84   83 1
    84   85   83 1
    85   86   83 1
    86   87   88 ar
    87   88   89 ar
    88   89   90 1
    89   91   89 ar
    90   92   91 ar
    91   93   92 1
    92   94   87 ar
    93   95   94 ar
    94   96   95 ar
    95   97   96 ar
    96   98   97 ar
    97   99   98 1
    98  100   98 ar
    99  101  100 ar
   100  102  101 1
   101  103  101 ar
   102  104  103 ar
   103  105   88 ar
   104  106   87 ar
   105  107   95 ar
   106  108  107 1
   107  109  107 ar
   108  110  109 1
   109  111  109 ar
   110  112   96 ar
   111  113  112 ar
   112  114  113 ar
   113  115  114 1
   114  116  114 ar
   115  117  111 ar
   116  118  117 1
   117  119  104 ar
   118  120  119 1
   119  121  119 ar
   120  122  121 1
   121  123  121 ar
   122  124  105 ar
   123  125  124 ar
   124  126  125 ar
   125  127  126 1
   126  128  126 ar
   127  129  123 ar
   128  130  129 1
   129  131   91 1
   130  132  131 1
   131  133  132 1
   132  134  132 1
   133  135  132 1
   134  136  131 1
   135  137  136 1
   136  138  136 1
   137  139  136 1
   138  140  131 1
   139  141  140 1
   140  142  140 1
   141  143  140 1
   142  144  100 1
   143  145  144 1
   144  146  145 1
   145  147  145 1
   146  148  145 1
   147  149  144 1
   148  150  149 1
   149  151  149 1
   150  152  149 1
   151  153  144 1
   152  154  153 1
   153  155  153 1
   154  156  153 1
   155  157  116 1
   156  158  157 1
   157  159  157 1
   158  160  157 1
   159  161  113 1
   160  162  161 1
   161  163  161 1
   162  164  161 1
   163  165  125 1
   164  166  165 1
   165  167  165 1
   166  168  165 1
   167  169  128 1
   168  170  169 1
   169  171  169 1
   170  172  169 1
   171    6    8 ar
   172   11   20 ar
   173   17   20 ar
   174   18   19 ar
   175   25   26 ar
   176   30   31 ar
   177   37   38 ar
   178   42   43 ar
   179   92   94 ar
   180   97  106 ar
   181  103  106 ar
   182  104  105 ar
   183  111  112 ar
   184  116  117 ar
   185  123  124 ar
   186  128  129 ar
@<TRIPOS>SUBSTRUCTURE
     1 RES1 1
     2 RES2 87

@<TRIPOS>CRYSIN
  11.3212   11.3699   25.0897  96.2680  96.6180  90.2870   2 1

