# MOL2 file generated by ConQuest
# Please check atom types

@<TRIPOS>MOLECULE
NOBFEP
    60    66     1
SMALL
NO_CHARGES
****
Generated from CSD

@<TRIPOS>ATOM
      1 C1         1.6376    7.4789    1.3535 C.ar      1 RES1    0.0000
      2 C2         1.4591    8.7049    2.0267 C.ar      1 RES1    0.0000
      3 H1         1.4181    9.4888    1.5294 H         1 RES1    0.0000
      4 C3         1.3442    8.7816    3.4061 C.ar      1 RES1    0.0000
      5 C4         1.3845    7.5790    4.1239 C.ar      1 RES1    0.0000
      6 H2         1.2901    7.5999    5.0479 H         1 RES1    0.0000
      7 C5         1.5615    6.3646    3.4911 C.ar      1 RES1    0.0000
      8 C6         1.7064    6.3298    2.1131 C.ar      1 RES1    0.0000
      9 H3         1.8535    5.5132    1.6908 H         1 RES1    0.0000
     10 C7         1.8147    7.4022   -0.1009 C.ar      1 RES1    0.0000
     11 C8         1.2696    6.2832   -0.8577 C.ar      1 RES1    0.0000
     12 H4         0.8174    5.6016   -0.4137 H         1 RES1    0.0000
     13 C9         1.4188    6.2274   -2.2140 C.ar      1 RES1    0.0000
     14 H5         1.0552    5.5039   -2.6710 H         1 RES1    0.0000
     15 C10        2.0869    7.2021   -2.9434 C.ar      1 RES1    0.0000
     16 C11        2.6130    8.3024   -2.2385 C.ar      1 RES1    0.0000
     17 C12        2.4579    8.3792   -0.8317 C.ar      1 RES1    0.0000
     18 H6         2.8026    9.1189   -0.3834 H         1 RES1    0.0000
     19 C13        3.3031    9.3027   -2.9564 C.ar      1 RES1    0.0000
     20 H7         3.6353   10.0378   -2.4951 H         1 RES1    0.0000
     21 C14        3.5021    9.2236   -4.3171 C.ar      1 RES1    0.0000
     22 H8         3.9799    9.8843   -4.7668 H         1 RES1    0.0000
     23 C15        2.9628    8.1186   -5.0147 C.ar      1 RES1    0.0000
     24 H9         3.0733    8.0605   -5.9373 H         1 RES1    0.0000
     25 C16        2.2713    7.1184   -4.3459 C.ar      1 RES1    0.0000
     26 H10        1.9289    6.3949   -4.8173 H         1 RES1    0.0000
     27 C17        1.1744   10.0611    4.0893 C.ar      1 RES1    0.0000
     28 C18        0.4090   11.1235    3.5229 C.ar      1 RES1    0.0000
     29 H11       -0.0015   11.0009    2.6984 H         1 RES1    0.0000
     30 C19        0.2685   12.3127    4.1686 C.ar      1 RES1    0.0000
     31 H12       -0.2503   12.9829    3.7852 H         1 RES1    0.0000
     32 C20        0.8935   12.5455    5.4054 C.ar      1 RES1    0.0000
     33 C21        1.6515   11.5034    6.0194 C.ar      1 RES1    0.0000
     34 C22        1.7620   10.2728    5.3304 C.ar      1 RES1    0.0000
     35 H13        2.2450    9.5795    5.7225 H         1 RES1    0.0000
     36 C23        2.2523   11.7197    7.2821 C.ar      1 RES1    0.0000
     37 H14        2.7316   11.0381    7.6929 H         1 RES1    0.0000
     38 C24        2.1264   12.9340    7.8976 C.ar      1 RES1    0.0000
     39 H15        2.5143   13.0689    8.7307 H         1 RES1    0.0000
     40 C25        1.4232   13.9692    7.2879 C.ar      1 RES1    0.0000
     41 H16        1.3581   14.7927    7.7160 H         1 RES1    0.0000
     42 C26        0.8203   13.7901    6.0583 C.ar      1 RES1    0.0000
     43 H17        0.3637   14.4949    5.6591 H         1 RES1    0.0000
     44 C27        1.6384    5.1085    4.2983 C.ar      1 RES1    0.0000
     45 C28        1.1452    3.9035    3.7405 C.ar      1 RES1    0.0000
     46 H18        0.7588    3.9128    2.8944 H         1 RES1    0.0000
     47 C29        1.2352    2.6822    4.4598 C.ar      1 RES1    0.0000
     48 H19        0.9235    1.8843    4.0951 H         1 RES1    0.0000
     49 C30        1.8103    2.7194    5.7340 C.ar      1 RES1    0.0000
     50 C31        2.2735    3.8825    6.3149 C.ar      1 RES1    0.0000
     51 C32        2.1820    5.1271    5.5452 C.ar      1 RES1    0.0000
     52 H20        2.4930    5.9250    5.9070 H         1 RES1    0.0000
     53 C33        2.8962    3.9128    7.5459 C.ar      1 RES1    0.0000
     54 H21        3.2262    4.6990    7.9178 H         1 RES1    0.0000
     55 C34        2.9972    2.6589    8.2075 C.ar      1 RES1    0.0000
     56 H22        3.4180    2.6124    9.0349 H         1 RES1    0.0000
     57 C35        2.4725    1.4818    7.6324 C.ar      1 RES1    0.0000
     58 H23        2.5340    0.6909    8.1167 H         1 RES1    0.0000
     59 C36        1.8857    1.4446    6.4172 C.ar      1 RES1    0.0000
     60 H24        1.5542    0.6583    6.0468 H         1 RES1    0.0000
@<TRIPOS>BOND
     1    1    2 ar
     2    2    3 1
     3    4    2 ar
     4    5    4 ar
     5    6    5 1
     6    7    5 ar
     7    8    1 ar
     8    9    8 1
     9   10    1 1
    10   11   10 ar
    11   12   11 1
    12   13   11 ar
    13   14   13 1
    14   15   13 ar
    15   16   15 ar
    16   17   10 ar
    17   18   17 1
    18   19   16 ar
    19   20   19 1
    20   21   19 ar
    21   22   21 1
    22   23   21 ar
    23   24   23 1
    24   25   15 ar
    25   26   25 1
    26   27    4 1
    27   28   27 ar
    28   29   28 1
    29   30   28 ar
    30   31   30 1
    31   32   30 ar
    32   33   32 ar
    33   34   27 ar
    34   35   34 1
    35   36   33 ar
    36   37   36 1
    37   38   36 ar
    38   39   38 1
    39   40   38 ar
    40   41   40 1
    41   42   32 ar
    42   43   42 1
    43   44    7 1
    44   45   44 ar
    45   46   45 1
    46   47   45 ar
    47   48   47 1
    48   49   47 ar
    49   50   49 ar
    50   51   44 ar
    51   52   51 1
    52   53   50 ar
    53   54   53 1
    54   55   53 ar
    55   56   55 1
    56   57   55 ar
    57   58   57 1
    58   59   49 ar
    59   60   59 1
    60    7    8 ar
    61   16   17 ar
    62   23   25 ar
    63   33   34 ar
    64   40   42 ar
    65   50   51 ar
    66   57   59 ar
@<TRIPOS>SUBSTRUCTURE
     1 RES1 1

@<TRIPOS>CRYSIN
   7.3174   23.2626   14.4143  90.0000  90.0000  90.0000  33 1

