# MOL2 file generated by ConQuest
# Please check atom types

@<TRIPOS>MOLECULE
NOBFEP01
    60    66     1
SMALL
NO_CHARGES
****
Generated from CSD

@<TRIPOS>ATOM
      1 C1         6.6154    8.1298   11.1778 C.ar      1 RES1    0.0000
      2 H1         6.7369    8.0700   12.1191 H         1 RES1    0.0000
      3 C2         7.1525    9.2234   10.4700 C.ar      1 RES1    0.0000
      4 H2         7.6399    9.8941   10.9342 H         1 RES1    0.0000
      5 C3         6.9747    9.3229    9.1164 C.ar      1 RES1    0.0000
      6 H3         7.3325   10.0712    8.6522 H         1 RES1    0.0000
      7 C4         6.2722    8.3374    8.4025 C.ar      1 RES1    0.0000
      8 C5         6.1156    8.4027    6.9951 C.ar      1 RES1    0.0000
      9 H4         6.4727    9.1486    6.5259 H         1 RES1    0.0000
     10 C6         5.4643    7.4223    6.2905 C.ar      1 RES1    0.0000
     11 C7         5.3099    7.4971    4.8122 C.ar      1 RES1    0.0000
     12 C8         5.3560    6.3348    4.0492 C.ar      1 RES1    0.0000
     13 H5         5.4826    5.5004    4.4861 H         1 RES1    0.0000
     14 C9         5.2228    6.3593    2.6780 C.ar      1 RES1    0.0000
     15 C10        5.2879    5.1085    1.8840 C.ar      1 RES1    0.0000
     16 C11        5.8243    5.1038    0.6475 C.ar      1 RES1    0.0000
     17 H6         6.1317    5.9197    0.2710 H         1 RES1    0.0000
     18 C12        5.9407    3.8885   -0.1168 C.ar      1 RES1    0.0000
     19 C13        5.4628    2.7094    0.4502 C.ar      1 RES1    0.0000
     20 C14        5.5887    1.4770   -0.3042 C.ar      1 RES1    0.0000
     21 H7         5.2623    0.6616    0.0562 H         1 RES1    0.0000
     22 C15        6.1778    1.4975   -1.5280 C.ar      1 RES1    0.0000
     23 H8         6.2539    0.6896   -2.0225 H         1 RES1    0.0000
     24 C16        5.0691   14.0069   -1.1244 C.ar      1 RES1    0.0000
     25 H9         5.0040   14.8493   -1.5612 H         1 RES1    0.0000
     26 C17        4.4734   13.8229    0.0822 C.ar      1 RES1    0.0000
     27 H10        3.9963   14.5395    0.4829 H         1 RES1    0.0000
     28 C18        4.5554   12.5805    0.7461 C.ar      1 RES1    0.0000
     29 C19        3.9297   12.3328    1.9824 C.ar      1 RES1    0.0000
     30 H11        3.4036   13.0182    2.3786 H         1 RES1    0.0000
     31 C20        4.0570   11.1370    2.6269 C.ar      1 RES1    0.0000
     32 H12        3.6253   11.0054    3.4626 H         1 RES1    0.0000
     33 C21        4.8284   10.0872    2.0611 C.ar      1 RES1    0.0000
     34 C22        4.9952    8.7864    2.7694 C.ar      1 RES1    0.0000
     35 C23        5.0413    7.5975    2.0457 C.ar      1 RES1    0.0000
     36 H13        4.9476    7.6250    1.1013 H         1 RES1    0.0000
     37 C24        4.8071    3.8803    2.4332 C.ar      1 RES1    0.0000
     38 H14        4.4171    3.8766    3.2997 H         1 RES1    0.0000
     39 C25        4.8971    2.7176    1.7382 C.ar      1 RES1    0.0000
     40 H15        4.5781    1.9080    2.1220 H         1 RES1    0.0000
     41 C26        6.6776    2.6957   -2.0787 C.ar      1 RES1    0.0000
     42 H16        7.1049    2.6861   -2.9278 H         1 RES1    0.0000
     43 C27        6.5473    3.8822   -1.3868 C.ar      1 RES1    0.0000
     44 H17        6.8664    4.6920   -1.7659 H         1 RES1    0.0000
     45 C28        5.9275    7.1672   10.5248 C.ar      1 RES1    0.0000
     46 H18        5.5653    6.4369   11.0134 H         1 RES1    0.0000
     47 C29        5.7365    7.2318    9.1019 C.ar      1 RES1    0.0000
     48 C30        5.0764    6.2424    8.3882 C.ar      1 RES1    0.0000
     49 H19        4.7164    5.4957    8.8526 H         1 RES1    0.0000
     50 C31        4.9315    6.3178    7.0247 C.ar      1 RES1    0.0000
     51 H20        4.4712    5.6262    6.5619 H         1 RES1    0.0000
     52 C32        5.1247    8.7193    4.1534 C.ar      1 RES1    0.0000
     53 H21        5.0859    9.5190    4.6634 H         1 RES1    0.0000
     54 C33        5.4123   10.2876    0.8407 C.ar      1 RES1    0.0000
     55 H22        5.9099    9.5796    0.4469 H         1 RES1    0.0000
     56 C34        5.2982   11.5237    0.1416 C.ar      1 RES1    0.0000
     57 C35        5.9004   11.7376   -1.1064 C.ar      1 RES1    0.0000
     58 H23        6.3915   11.0380   -1.5208 H         1 RES1    0.0000
     59 C36        5.7833   12.9574   -1.7327 C.ar      1 RES1    0.0000
     60 H24        6.1880   13.0927   -2.5818 H         1 RES1    0.0000
@<TRIPOS>BOND
     1    1    2 1
     2    3    1 ar
     3    4    3 1
     4    5    3 ar
     5    6    5 1
     6    7    5 ar
     7    8    7 ar
     8    9    8 1
     9   10    8 ar
    10   11   10 1
    11   12   11 ar
    12   13   12 1
    13   14   12 ar
    14   15   14 1
    15   16   15 ar
    16   17   16 1
    17   18   16 ar
    18   19   18 ar
    19   20   19 ar
    20   21   20 1
    21   22   20 ar
    22   23   22 1
    23   24   25 1
    24   26   24 ar
    25   27   26 1
    26   28   26 ar
    27   29   28 ar
    28   30   29 1
    29   31   29 ar
    30   32   31 1
    31   33   31 ar
    32   34   33 1
    33   35   14 ar
    34   36   35 1
    35   37   15 ar
    36   38   37 1
    37   39   19 ar
    38   40   39 1
    39   41   22 ar
    40   42   41 1
    41   43   18 ar
    42   44   43 1
    43   45    1 ar
    44   46   45 1
    45   47    7 ar
    46   48   47 ar
    47   49   48 1
    48   50   10 ar
    49   51   50 1
    50   52   11 ar
    51   53   52 1
    52   54   33 ar
    53   55   54 1
    54   56   28 ar
    55   57   56 ar
    56   58   57 1
    57   59   24 ar
    58   60   59 1
    59   34   35 ar
    60   34   52 ar
    61   37   39 ar
    62   41   43 ar
    63   45   47 ar
    64   48   50 ar
    65   54   56 ar
    66   57   59 ar
@<TRIPOS>SUBSTRUCTURE
     1 RES1 1

@<TRIPOS>CRYSIN
   7.3179   23.2967   14.4155  90.0000  90.0000  90.0000  33 1

