# MOL2 file generated by ConQuest
# Please check atom types

@<TRIPOS>MOLECULE
NODVEH
    36    39     1
SMALL
NO_CHARGES
****
Generated from CSD

@<TRIPOS>ATOM
      1 C1         5.2907    0.2018   14.0932 C.ar      1 RES1    0.0000
      2 C2         5.2567   -1.0223   14.8074 C.ar      1 RES1    0.0000
      3 C3         6.3359   -1.5007   15.4858 C.ar      1 RES1    0.0000
      4 C4         7.5550   -0.7798   15.5069 C.ar      1 RES1    0.0000
      5 C5         8.7553   -1.1278   16.1755 C.ar      1 RES1    0.0000
      6 C6         9.8492   -0.3156   16.0964 C.ar      1 RES1    0.0000
      7 C7         9.8418    0.8845   15.3499 C.ar      1 RES1    0.0000
      8 C8         8.6972    1.2607   14.6962 C.ar      1 RES1    0.0000
      9 C9         8.3701    2.4550   13.8315 C.3       1 RES1    0.0000
     10 C10        8.6823    2.2282   12.3513 C.2       1 RES1    0.0000
     11 C11        7.4194    2.0140   11.9887 C.2       1 RES1    0.0000
     12 C12        6.8474    2.2191   13.3885 C.3       1 RES1    0.0000
     13 C13        6.4545    0.9277   14.0793 C.ar      1 RES1    0.0000
     14 C14        7.5635    0.4211   14.7871 C.ar      1 RES1    0.0000
     15 C15        8.7612    3.7904   14.4389 C.3       1 RES1    0.0000
     16 C16       10.0072    2.2025   11.6638 C.3       1 RES1    0.0000
     17 C17        6.7197    1.6735   10.7275 C.3       1 RES1    0.0000
     18 C18        5.8398    3.3469   13.5284 C.3       1 RES1    0.0000
     19 H1         4.5541    0.5631   13.6205 H         1 RES1    0.0000
     20 H2         4.4079   -1.5165   14.7685 H         1 RES1    0.0000
     21 H3         6.2975   -2.3869   15.9322 H         1 RES1    0.0000
     22 H4         8.8129   -1.9525   16.6780 H         1 RES1    0.0000
     23 H5        10.7039   -0.5614   16.5814 H         1 RES1    0.0000
     24 H6        10.6700    1.4393   15.3121 H         1 RES1    0.0000
     25 H7         8.4099    3.9150   15.3953 H         1 RES1    0.0000
     26 H8         8.4852    4.5586   13.8721 H         1 RES1    0.0000
     27 H9         9.7267    3.8527   14.4922 H         1 RES1    0.0000
     28 H10       10.4175    3.0944   11.7380 H         1 RES1    0.0000
     29 H11       10.5504    1.5522   12.0682 H         1 RES1    0.0000
     30 H12        9.9038    2.0223   10.6799 H         1 RES1    0.0000
     31 H13        5.9845    2.3445   10.5136 H         1 RES1    0.0000
     32 H14        7.3766    1.6726    9.9071 H         1 RES1    0.0000
     33 H15        6.1794    0.8720   10.8394 H         1 RES1    0.0000
     34 H16        5.6420    3.5587   14.5326 H         1 RES1    0.0000
     35 H17        4.9704    3.0845   13.0724 H         1 RES1    0.0000
     36 H18        6.1941    4.1002   13.0836 H         1 RES1    0.0000
@<TRIPOS>BOND
     1    1    2 ar
     2    2    3 ar
     3    3    4 ar
     4    4    5 ar
     5    5    6 ar
     6    6    7 ar
     7    7    8 ar
     8    8    9 1
     9    9   10 1
    10   10   11 2
    11   11   12 1
    12   12    9 1
    13   13    1 ar
    14   14    4 ar
    15   15    9 1
    16   16   10 1
    17   17   11 1
    18   18   12 1
    19   19    1 1
    20   20    2 1
    21   21    3 1
    22   22    5 1
    23   23    6 1
    24   24    7 1
    25   25   15 1
    26   26   15 1
    27   27   15 1
    28   28   16 1
    29   29   16 1
    30   30   16 1
    31   31   17 1
    32   32   17 1
    33   33   17 1
    34   34   18 1
    35   35   18 1
    36   36   18 1
    37    8   14 ar
    38   12   13 1
    39   13   14 ar
@<TRIPOS>SUBSTRUCTURE
     1 RES1 1

@<TRIPOS>CRYSIN
  14.7620    8.3050   22.4650  90.0000  90.0000  90.0000  61 1

