# MOL2 file generated by ConQuest
# Please check atom types

@<TRIPOS>MOLECULE
NOGLAX
    78    86     2
SMALL
NO_CHARGES
****
Generated from CSD

@<TRIPOS>ATOM
      1 C1         6.3802    8.0109    8.4456 C.3       1 RES1    0.0000
      2 H1         6.1679    8.5445    9.2405 H         1 RES1    0.0000
      3 H2         5.8243    7.2033    8.4368 H         1 RES1    0.0000
      4 H3         6.2018    8.5388    7.6405 H         1 RES1    0.0000
      5 C2         7.8393    7.6179    8.4775 C.ar      1 RES1    0.0000
      6 C3         8.6193    7.9747    9.5242 C.ar      1 RES1    0.0000
      7 H4         8.2552    8.5332   10.2020 H         1 RES1    0.0000
      8 C4         9.9677    7.5376    9.6390 C.ar      1 RES1    0.0000
      9 C5        10.6875    7.7320   10.8376 C.ar      1 RES1    0.0000
     10 H5        10.3122    8.2704   11.5268 H         1 RES1    0.0000
     11 C6        11.9152    7.1583   11.0258 C.ar      1 RES1    0.0000
     12 H6        12.3927    7.3029   11.8350 H         1 RES1    0.0000
     13 C7        12.4634    6.3515   10.0133 C.ar      1 RES1    0.0000
     14 H7        13.2978    5.9200   10.1543 H         1 RES1    0.0000
     15 C8        11.8038    6.1852    8.8265 C.ar      1 RES1    0.0000
     16 H8        12.1900    5.6355    8.1542 H         1 RES1    0.0000
     17 C9        10.5607    6.8103    8.5726 C.ar      1 RES1    0.0000
     18 C10        9.8119    6.6263    7.3436 C.ar      1 RES1    0.0000
     19 C11       10.3826    6.1040    6.1124 C.ar      1 RES1    0.0000
     20 C12       11.7651    6.2784    5.6926 C.ar      1 RES1    0.0000
     21 C13       12.6022    7.2796    6.2327 C.ar      1 RES1    0.0000
     22 H9        12.2868    7.8044    6.9616 H         1 RES1    0.0000
     23 C14       13.8566    7.5151    5.7340 C.ar      1 RES1    0.0000
     24 H10       14.3903    8.2046    6.1102 H         1 RES1    0.0000
     25 C15       14.3599    6.7493    4.6764 C.ar      1 RES1    0.0000
     26 H11       15.2408    6.8971    4.3523 H         1 RES1    0.0000
     27 C16       13.5735    5.7882    4.1171 C.ar      1 RES1    0.0000
     28 H12       13.9188    5.2594    3.4092 H         1 RES1    0.0000
     29 C17       12.2551    5.5632    4.5692 C.ar      1 RES1    0.0000
     30 C18       11.3668    4.7242    3.8353 C.ar      1 RES1    0.0000
     31 H13       11.7108    4.1537    3.1597 H         1 RES1    0.0000
     32 C19       10.0415    4.7331    4.0933 C.ar      1 RES1    0.0000
     33 H14        9.4515    4.2405    3.5340 H         1 RES1    0.0000
     34 C20        9.5145    5.4764    5.1964 C.ar      1 RES1    0.0000
     35 C21        8.1108    5.6138    5.3498 C.ar      1 RES1    0.0000
     36 H15        7.5283    5.1630    4.7487 H         1 RES1    0.0000
     37 C22        7.5912    6.3796    6.3395 C.ar      1 RES1    0.0000
     38 H16        6.6625    6.5789    6.3414 H         1 RES1    0.0000
     39 C23        8.4216    6.8883    7.3751 C.ar      1 RES1    0.0000
     40 C24        5.8150    6.3145   11.7154 C.3       2 RES2    0.0000
     41 H17        6.4590    6.6327   11.0497 H         2 RES2    0.0000
     42 H18        5.1881    7.0353   11.9341 H         2 RES2    0.0000
     43 H19        5.3205    5.5503   11.3506 H         2 RES2    0.0000
     44 C25        6.5475    5.8918   12.9602 C.ar      2 RES2    0.0000
     45 C26        7.8724    6.1257   13.1029 C.ar      2 RES2    0.0000
     46 H20        8.3538    6.5106   12.3818 H         2 RES2    0.0000
     47 C27        8.5630    5.8091   14.3095 C.ar      2 RES2    0.0000
     48 C28        9.8779    6.2784   14.5319 C.ar      2 RES2    0.0000
     49 H21       10.3369    6.7308   13.8350 H         2 RES2    0.0000
     50 C29       10.4970    6.0919   15.7352 C.ar      2 RES2    0.0000
     51 H22       11.3839    6.4037   15.8681 H         2 RES2    0.0000
     52 C30        9.8177    5.4386   16.7738 C.ar      2 RES2    0.0000
     53 H23       10.2333    5.3374   17.6222 H         2 RES2    0.0000
     54 C31        8.5529    4.9444   16.5676 C.ar      2 RES2    0.0000
     55 H24        8.1078    4.5049   17.2810 H         2 RES2    0.0000
     56 C32        7.8970    5.0714   15.3257 C.ar      2 RES2    0.0000
     57 C33        6.5368    4.6294   15.0963 C.ar      2 RES2    0.0000
     58 C34        5.8144    3.7350   15.9694 C.ar      2 RES2    0.0000
     59 C35        6.4258    2.6631   16.7426 C.ar      2 RES2    0.0000
     60 C36        7.6912    2.1126   16.4358 C.ar      2 RES2    0.0000
     61 H25        8.1987    2.4927   15.7286 H         2 RES2    0.0000
     62 C37        8.2063    1.0487   17.1250 C.ar      2 RES2    0.0000
     63 H26        9.0490    0.6847   16.8773 H         2 RES2    0.0000
     64 C38        7.4903    0.4966   18.1944 C.ar      2 RES2    0.0000
     65 H27        7.8644   -0.2138   18.7012 H         2 RES2    0.0000
     66 C39        6.2521    0.9828   18.5037 C.ar      2 RES2    0.0000
     67 H28        5.7746    0.6059   19.2333 H         2 RES2    0.0000
     68 C40        5.6640    2.0298   17.7639 C.ar      2 RES2    0.0000
     69 C41        4.2934    2.3633   17.9309 C.ar      2 RES2    0.0000
     70 H29        3.8117    2.0210   18.6755 H         2 RES2    0.0000
     71 C42        3.6708    3.1637   17.0406 C.ar      2 RES2    0.0000
     72 H30        2.7304    3.2899   17.0975 H         2 RES2    0.0000
     73 C43        4.4135    3.8242   16.0094 C.ar      2 RES2    0.0000
     74 C44        3.7297    4.5563   15.0064 C.ar      2 RES2    0.0000
     75 H31        2.7845    4.6407   15.0424 H         2 RES2    0.0000
     76 C45        4.4178    5.1365   13.9950 C.ar      2 RES2    0.0000
     77 H32        3.9425    5.5021   13.2589 H         2 RES2    0.0000
     78 C46        5.8287    5.2088   14.0130 C.ar      2 RES2    0.0000
@<TRIPOS>BOND
     1    1    2 1
     2    3    1 1
     3    4    1 1
     4    5    1 1
     5    6    5 ar
     6    7    6 1
     7    8    6 ar
     8    9    8 ar
     9   10    9 1
    10   11    9 ar
    11   12   11 1
    12   13   11 ar
    13   14   13 1
    14   15   13 ar
    15   16   15 1
    16   17    8 ar
    17   18   17 ar
    18   19   18 ar
    19   20   19 ar
    20   21   20 ar
    21   22   21 1
    22   23   21 ar
    23   24   23 1
    24   25   23 ar
    25   26   25 1
    26   27   25 ar
    27   28   27 1
    28   29   20 ar
    29   30   29 ar
    30   31   30 1
    31   32   30 ar
    32   33   32 1
    33   34   19 ar
    34   35   34 ar
    35   36   35 1
    36   37   35 ar
    37   38   37 1
    38   39    5 ar
    39   40   41 1
    40   42   40 1
    41   43   40 1
    42   44   40 1
    43   45   44 ar
    44   46   45 1
    45   47   45 ar
    46   48   47 ar
    47   49   48 1
    48   50   48 ar
    49   51   50 1
    50   52   50 ar
    51   53   52 1
    52   54   52 ar
    53   55   54 1
    54   56   47 ar
    55   57   56 ar
    56   58   57 ar
    57   59   58 ar
    58   60   59 ar
    59   61   60 1
    60   62   60 ar
    61   63   62 1
    62   64   62 ar
    63   65   64 1
    64   66   64 ar
    65   67   66 1
    66   68   59 ar
    67   69   68 ar
    68   70   69 1
    69   71   69 ar
    70   72   71 1
    71   73   58 ar
    72   74   73 ar
    73   75   74 1
    74   76   74 ar
    75   77   76 1
    76   78   44 ar
    77   15   17 ar
    78   18   39 ar
    79   27   29 ar
    80   32   34 ar
    81   37   39 ar
    82   54   56 ar
    83   57   78 ar
    84   66   68 ar
    85   71   73 ar
    86   76   78 ar
@<TRIPOS>SUBSTRUCTURE
     1 RES1 1
     2 RES2 40

@<TRIPOS>CRYSIN
  10.0720    8.0358   36.7000  90.0000  90.6382  90.0000 231 1

