# MOL2 file generated by ConQuest
# Please check atom types

@<TRIPOS>MOLECULE
NPDCBU
    26    29     1
SMALL
NO_CHARGES
****
Generated from CSD

@<TRIPOS>ATOM
      1 C1        -0.6041   -0.0761    0.3855 C.ar      1 RES1    0.0000
      2 C2        -0.9107    0.8677    1.4230 C.ar      1 RES1    0.0000
      3 C3        -0.0276    1.8760    1.6397 C.ar      1 RES1    0.0000
      4 C4         0.2742    3.1155    2.5028 C.3       1 RES1    0.0000
      5 C5         1.5728    3.2915    1.6360 C.3       1 RES1    0.0000
      6 C6         1.1453    2.0266    0.8797 C.ar      1 RES1    0.0000
      7 C7        -1.4900   -1.1668    0.1191 C.ar      1 RES1    0.0000
      8 H1        -1.7445    0.7300    1.9583 H         1 RES1    0.0000
      9 H2         0.4282    2.9223    3.4746 H         1 RES1    0.0000
     10 H3        -0.4037    3.8664    2.3880 H         1 RES1    0.0000
     11 H4         2.4553    3.2470    2.1302 H         1 RES1    0.0000
     12 H5         1.5643    4.0809    1.0559 H         1 RES1    0.0000
     13 H6        -2.2671   -1.2939    0.7244 H         1 RES1    0.0000
     14 C1A        0.6041    0.0761   -0.3855 C.ar      1 RES1    0.0000
     15 C7A        1.4900    1.1668   -0.1191 C.ar      1 RES1    0.0000
     16 C6A       -1.1453   -2.0266   -0.8797 C.ar      1 RES1    0.0000
     17 C2A        0.9107   -0.8677   -1.4230 C.ar      1 RES1    0.0000
     18 H6A        2.2671    1.2939   -0.7244 H         1 RES1    0.0000
     19 C3A        0.0276   -1.8760   -1.6397 C.ar      1 RES1    0.0000
     20 C5A       -1.5728   -3.2915   -1.6360 C.3       1 RES1    0.0000
     21 H1A        1.7445   -0.7300   -1.9583 H         1 RES1    0.0000
     22 C4A       -0.2742   -3.1155   -2.5028 C.3       1 RES1    0.0000
     23 H4A       -2.4553   -3.2470   -2.1302 H         1 RES1    0.0000
     24 H5A       -1.5643   -4.0809   -1.0559 H         1 RES1    0.0000
     25 H2A       -0.4282   -2.9223   -3.4746 H         1 RES1    0.0000
     26 H3A        0.4037   -3.8664   -2.3880 H         1 RES1    0.0000
@<TRIPOS>BOND
     1    1    2 ar
     2    2    3 ar
     3    3    4 1
     4    4    5 1
     5    5    6 1
     6    6    3 ar
     7    7    1 ar
     8    8    2 1
     9    9    4 1
    10   10    4 1
    11   11    5 1
    12   12    5 1
    13   13    7 1
    14   14    1 ar
    15   15    6 ar
    16   16    7 ar
    17   17   14 ar
    18   18   15 1
    19   19   16 ar
    20   20   16 1
    21   21   17 1
    22   22   19 1
    23   23   20 1
    24   24   20 1
    25   25   22 1
    26   26   22 1
    27   14   15 ar
    28   17   19 ar
    29   20   22 1
@<TRIPOS>SUBSTRUCTURE
     1 RES1 1

@<TRIPOS>CRYSIN
   5.7000    6.7900    6.9460  68.1000  72.4000  86.8700   2 1

