# MOL2 file generated by ConQuest
# Please check atom types

@<TRIPOS>MOLECULE
NUGPUC
   106   117     1
SMALL
NO_CHARGES
****
Generated from CSD

@<TRIPOS>ATOM
      1 C1         0.4307    6.0001   22.5480 C.ar      1 RES1    0.0000
      2 H1         1.1617    6.3121   23.0314 H         1 RES1    0.0000
      3 C2         0.1824    4.6774   22.5096 C.ar      1 RES1    0.0000
      4 H2         0.7376    4.0997   22.9829 H         1 RES1    0.0000
      5 C3        -0.9098    4.1359   21.7626 C.ar      1 RES1    0.0000
      6 C4        -1.1462    2.7562   21.6614 C.ar      1 RES1    0.0000
      7 C5        -2.2048    2.3002   20.8821 C.ar      1 RES1    0.0000
      8 H3        -2.3492    1.3853   20.7969 H         1 RES1    0.0000
      9 C6        -3.0454    3.1819   20.2331 C.ar      1 RES1    0.0000
     10 H4        -3.7601    2.8488   19.7409 H         1 RES1    0.0000
     11 C7        -2.8477    4.5510   20.2982 C.ar      1 RES1    0.0000
     12 C8        -1.7541    5.0468   21.0564 C.ar      1 RES1    0.0000
     13 C9        -0.2618    1.7604   22.3528 C.ar      1 RES1    0.0000
     14 C10       -0.4568    1.4683   23.6998 C.ar      1 RES1    0.0000
     15 H5        -1.1102    1.9275   24.1781 H         1 RES1    0.0000
     16 C11        0.3027    0.5089   24.3385 C.ar      1 RES1    0.0000
     17 H6         0.1623    0.3274   25.2405 H         1 RES1    0.0000
     18 C12        1.2656   -0.1770   23.6403 C.ar      1 RES1    0.0000
     19 H7         1.7793   -0.8236   24.0664 H         1 RES1    0.0000
     20 C13        1.4679    0.0958   22.3054 C.ar      1 RES1    0.0000
     21 H8         2.1123   -0.3825   21.8362 H         1 RES1    0.0000
     22 C14        0.7279    1.0713   21.6469 C.ar      1 RES1    0.0000
     23 C15        0.9638    1.3884   20.2002 C.ar      1 RES1    0.0000
     24 C16        1.4331    2.6437   19.8321 C.ar      1 RES1    0.0000
     25 H9         1.6673    3.2508   20.4955 H         1 RES1    0.0000
     26 C17        1.5623    3.0163   18.5010 C.ar      1 RES1    0.0000
     27 C18        1.2179    2.0841   17.5233 C.ar      1 RES1    0.0000
     28 H10        1.2893    2.3204   16.6274 H         1 RES1    0.0000
     29 C19        0.7677    0.8025   17.8555 C.ar      1 RES1    0.0000
     30 C20        0.6594    0.4715   19.2002 C.ar      1 RES1    0.0000
     31 H11        0.3761   -0.3825   19.4373 H         1 RES1    0.0000
     32 C21        2.0209    4.3815   18.1433 C.ar      1 RES1    0.0000
     33 C22        1.6386    5.4714   18.9118 C.ar      1 RES1    0.0000
     34 H12        1.0858    5.3369   19.6481 H         1 RES1    0.0000
     35 C23        2.0593    6.7488   18.6106 C.ar      1 RES1    0.0000
     36 H13        1.7938    7.4643   19.1422 H         1 RES1    0.0000
     37 C24        2.8706    6.9646   17.5269 C.ar      1 RES1    0.0000
     38 H14        3.1570    7.8261   17.3209 H         1 RES1    0.0000
     39 C25        3.2583    5.9089   16.7474 C.ar      1 RES1    0.0000
     40 H15        3.8056    6.0536   16.0098 H         1 RES1    0.0000
     41 C26        2.8382    4.6237   17.0522 C.ar      1 RES1    0.0000
     42 H16        3.1096    3.9136   16.5157 H         1 RES1    0.0000
     43 C27        0.3726   -0.1756   16.8104 C.ar      1 RES1    0.0000
     44 C28       -0.3581    0.2228   15.7025 C.ar      1 RES1    0.0000
     45 H17       -0.5798    1.1200   15.5945 H         1 RES1    0.0000
     46 C29       -0.7631   -0.7053   14.7499 C.ar      1 RES1    0.0000
     47 H18       -1.2719   -0.4296   14.0220 H         1 RES1    0.0000
     48 C30       -0.4136   -2.0286   14.8829 C.ar      1 RES1    0.0000
     49 H19       -0.6787   -2.6489   14.2412 H         1 RES1    0.0000
     50 C31        0.3266   -2.4295   15.9630 C.ar      1 RES1    0.0000
     51 H20        0.5737   -3.3220   16.0520 H         1 RES1    0.0000
     52 C32        0.7065   -1.5100   16.9196 C.ar      1 RES1    0.0000
     53 H21        1.1982   -1.7966   17.6540 H         1 RES1    0.0000
     54 C1B       -3.6820    5.4869   19.6108 C.ar      1 RES1    0.0000
     55 H1B       -4.4130    5.1749   19.1275 H         1 RES1    0.0000
     56 C2B       -3.4338    6.8096   19.6492 C.ar      1 RES1    0.0000
     57 H2B       -3.9889    7.3873   19.1759 H         1 RES1    0.0000
     58 C3B       -2.3415    7.3511   20.3962 C.ar      1 RES1    0.0000
     59 C4B       -2.1052    8.7308   20.4974 C.ar      1 RES1    0.0000
     60 C5B       -1.0465    9.1868   21.2767 C.ar      1 RES1    0.0000
     61 H3B       -0.9022   10.1017   21.3619 H         1 RES1    0.0000
     62 C6B       -0.2059    8.3051   21.9257 C.ar      1 RES1    0.0000
     63 H4B        0.5088    8.6382   22.4179 H         1 RES1    0.0000
     64 C7B       -0.4037    6.9360   21.8606 C.ar      1 RES1    0.0000
     65 C8B       -1.4973    6.4402   21.1024 C.ar      1 RES1    0.0000
     66 C9B       -2.9895    9.7266   19.8060 C.ar      1 RES1    0.0000
     67 C10B      -2.7945   10.0187   18.4590 C.ar      1 RES1    0.0000
     68 H5B       -2.1412    9.5595   17.9807 H         1 RES1    0.0000
     69 C11B      -3.5540   10.9781   17.8203 C.ar      1 RES1    0.0000
     70 H6B       -3.4136   11.1596   16.9183 H         1 RES1    0.0000
     71 C12B      -4.5169   11.6640   18.5185 C.ar      1 RES1    0.0000
     72 H7B       -5.0306   12.3106   18.0925 H         1 RES1    0.0000
     73 C13B      -4.7193   11.3912   19.8534 C.ar      1 RES1    0.0000
     74 H8B       -5.3636   11.8695   20.3227 H         1 RES1    0.0000
     75 C14B      -3.9792   10.4157   20.5119 C.ar      1 RES1    0.0000
     76 C15B      -4.2151   10.0986   21.9586 C.ar      1 RES1    0.0000
     77 C16B      -4.6845    8.8433   22.3267 C.ar      1 RES1    0.0000
     78 H9B       -4.9187    8.2362   21.6633 H         1 RES1    0.0000
     79 C17B      -4.8137    8.4707   23.6578 C.ar      1 RES1    0.0000
     80 C18B      -4.4692    9.4029   24.6355 C.ar      1 RES1    0.0000
     81 H10B      -4.5407    9.1666   25.5314 H         1 RES1    0.0000
     82 C19B      -4.0191   10.6845   24.3033 C.ar      1 RES1    0.0000
     83 C20B      -3.9108   11.0155   22.9586 C.ar      1 RES1    0.0000
     84 H11B      -3.6275   11.8695   22.7215 H         1 RES1    0.0000
     85 C21B      -5.2722    7.1055   24.0156 C.ar      1 RES1    0.0000
     86 C22B      -4.8899    6.0156   23.2470 C.ar      1 RES1    0.0000
     87 H12B      -4.3372    6.1501   22.5107 H         1 RES1    0.0000
     88 C23B      -5.3106    4.7382   23.5482 C.ar      1 RES1    0.0000
     89 H13B      -5.0451    4.0227   23.0166 H         1 RES1    0.0000
     90 C24B      -6.1220    4.5224   24.6319 C.ar      1 RES1    0.0000
     91 H14B      -6.4084    3.6609   24.8379 H         1 RES1    0.0000
     92 C25B      -6.5097    5.5781   25.4114 C.ar      1 RES1    0.0000
     93 H15B      -7.0570    5.4334   26.1490 H         1 RES1    0.0000
     94 C26B      -6.0896    6.8633   25.1066 C.ar      1 RES1    0.0000
     95 H16B      -6.3610    7.5734   25.6431 H         1 RES1    0.0000
     96 C27B      -3.6240   11.6626   25.3484 C.ar      1 RES1    0.0000
     97 C28B      -2.8933   11.2642   26.4563 C.ar      1 RES1    0.0000
     98 H17B      -2.6716   10.3670   26.5643 H         1 RES1    0.0000
     99 C29B      -2.4883   12.1923   27.4089 C.ar      1 RES1    0.0000
    100 H18B      -1.9795   11.9166   28.1368 H         1 RES1    0.0000
    101 C30B      -2.8378   13.5156   27.2759 C.ar      1 RES1    0.0000
    102 H19B      -2.5726   14.1359   27.9176 H         1 RES1    0.0000
    103 C31B      -3.5780   13.9165   26.1958 C.ar      1 RES1    0.0000
    104 H20B      -3.8251   14.8090   26.1068 H         1 RES1    0.0000
    105 C32B      -3.9578   12.9970   25.2392 C.ar      1 RES1    0.0000
    106 H21B      -4.4496   13.2836   24.5048 H         1 RES1    0.0000
@<TRIPOS>BOND
     1    1    2 1
     2    3    1 ar
     3    4    3 1
     4    5    3 ar
     5    6    5 ar
     6    7    6 ar
     7    8    7 1
     8    9    7 ar
     9   10    9 1
    10   11    9 ar
    11   12    5 ar
    12   13    6 1
    13   14   13 ar
    14   15   14 1
    15   16   14 ar
    16   17   16 1
    17   18   16 ar
    18   19   18 1
    19   20   18 ar
    20   21   20 1
    21   22   13 ar
    22   23   22 1
    23   24   23 ar
    24   25   24 1
    25   26   24 ar
    26   27   26 ar
    27   28   27 1
    28   29   27 ar
    29   30   23 ar
    30   31   30 1
    31   32   26 1
    32   33   32 ar
    33   34   33 1
    34   35   33 ar
    35   36   35 1
    36   37   35 ar
    37   38   37 1
    38   39   37 ar
    39   40   39 1
    40   41   32 ar
    41   42   41 1
    42   43   29 1
    43   44   43 ar
    44   45   44 1
    45   46   44 ar
    46   47   46 1
    47   48   46 ar
    48   49   48 1
    49   50   48 ar
    50   51   50 1
    51   52   43 ar
    52   53   52 1
    53   54   11 ar
    54   55   54 1
    55   56   54 ar
    56   57   56 1
    57   58   56 ar
    58   59   58 ar
    59   60   59 ar
    60   61   60 1
    61   62   60 ar
    62   63   62 1
    63   64    1 ar
    64   65   12 ar
    65   66   59 1
    66   67   66 ar
    67   68   67 1
    68   69   67 ar
    69   70   69 1
    70   71   69 ar
    71   72   71 1
    72   73   71 ar
    73   74   73 1
    74   75   66 ar
    75   76   75 1
    76   77   76 ar
    77   78   77 1
    78   79   77 ar
    79   80   79 ar
    80   81   80 1
    81   82   80 ar
    82   83   76 ar
    83   84   83 1
    84   85   79 1
    85   86   85 ar
    86   87   86 1
    87   88   86 ar
    88   89   88 1
    89   90   88 ar
    90   91   90 1
    91   92   90 ar
    92   93   92 1
    93   94   85 ar
    94   95   94 1
    95   96   82 1
    96   97   96 ar
    97   98   97 1
    98   99   97 ar
    99  100   99 1
   100  101   99 ar
   101  102  101 1
   102  103  101 ar
   103  104  103 1
   104  105   96 ar
   105  106  105 1
   106   11   12 ar
   107   20   22 ar
   108   29   30 ar
   109   39   41 ar
   110   50   52 ar
   111   58   65 ar
   112   62   64 ar
   113   64   65 ar
   114   73   75 ar
   115   82   83 ar
   116   92   94 ar
   117  103  105 ar
@<TRIPOS>SUBSTRUCTURE
     1 RES1 1

@<TRIPOS>CRYSIN
   9.2010   11.4870   21.1420  90.0000  94.4100  90.0000  14 1

