# MOL2 file generated by ConQuest
# Please check atom types

@<TRIPOS>MOLECULE
NUHVUJ
    80    88     1
SMALL
NO_CHARGES
****
Generated from CSD

@<TRIPOS>ATOM
      1 C1         0.8917    8.3827   10.2117 C.2       1 RES1    0.0000
      2 C2         0.5309    9.7568   10.6711 C.ar      1 RES1    0.0000
      3 C3         1.1774   10.8967   10.2609 C.ar      1 RES1    0.0000
      4 H1         1.8907   10.8268    9.6370 H         1 RES1    0.0000
      5 C4         0.8040   12.1739   10.7468 C.ar      1 RES1    0.0000
      6 C5         1.4436   13.3660   10.3161 C.ar      1 RES1    0.0000
      7 H2         2.1489   13.3159    9.6837 H         1 RES1    0.0000
      8 C6         1.0571   14.5824   10.7997 C.ar      1 RES1    0.0000
      9 H3         1.4929   15.3710   10.4988 H         1 RES1    0.0000
     10 C7         0.0154   14.6733   11.7424 C.ar      1 RES1    0.0000
     11 H4        -0.2443   15.5234   12.0803 H         1 RES1    0.0000
     12 C8        -0.6269   13.5478   12.1758 C.ar      1 RES1    0.0000
     13 H5        -1.3316   13.6242   12.8098 H         1 RES1    0.0000
     14 C9        -0.2545   12.2655   11.6905 C.ar      1 RES1    0.0000
     15 C10       -0.9064   11.0786   12.1089 C.ar      1 RES1    0.0000
     16 H6        -1.6111   11.1351   12.7437 H         1 RES1    0.0000
     17 C11       -0.5420    9.8487   11.6177 C.ar      1 RES1    0.0000
     18 C12       -1.1506    8.5635   12.0735 C.2       1 RES1    0.0000
     19 C13       -0.1196    7.5112   12.3040 C.ar      1 RES1    0.0000
     20 C14       -0.1158    6.6860   13.3979 C.ar      1 RES1    0.0000
     21 H7        -0.8095    6.7625   14.0412 H         1 RES1    0.0000
     22 C15        0.9005    5.7232   13.5889 C.ar      1 RES1    0.0000
     23 C16        0.8725    4.8232   14.6890 C.ar      1 RES1    0.0000
     24 H8         0.1534    4.8609   15.3095 H         1 RES1    0.0000
     25 C17        1.8656    3.9077   14.8615 C.ar      1 RES1    0.0000
     26 H9         1.8285    3.2979   15.5877 H         1 RES1    0.0000
     27 C18        2.9545    3.8640   13.9601 C.ar      1 RES1    0.0000
     28 H10        3.6618    3.2471   14.1073 H         1 RES1    0.0000
     29 C19        3.0000    4.6976   12.8828 C.ar      1 RES1    0.0000
     30 H11        3.7344    4.6482   12.2807 H         1 RES1    0.0000
     31 C20        1.9611    5.6403   12.6497 C.ar      1 RES1    0.0000
     32 C21        1.9465    6.5053   11.5282 C.ar      1 RES1    0.0000
     33 H12        2.6506    6.4567   10.8937 H         1 RES1    0.0000
     34 C22        0.9303    7.4142   11.3415 C.ar      1 RES1    0.0000
     35 C23        1.0637    8.0311    8.9248 C.2       1 RES1    0.0000
     36 C24        1.1639    6.6050    8.4743 C.ar      1 RES1    0.0000
     37 C25        0.0126    5.8273    8.4628 C.ar      1 RES1    0.0000
     38 H13       -0.8057    6.1931    8.7791 H         1 RES1    0.0000
     39 C26        0.0445    4.5214    7.9950 C.ar      1 RES1    0.0000
     40 H14       -0.7469    3.9966    7.9971 H         1 RES1    0.0000
     41 C27        1.2281    3.9857    7.5254 C.ar      1 RES1    0.0000
     42 H15        1.2495    3.0948    7.1976 H         1 RES1    0.0000
     43 C28        2.3727    4.7436    7.5336 C.ar      1 RES1    0.0000
     44 H16        3.1884    4.3701    7.2229 H         1 RES1    0.0000
     45 C29        2.3427    6.0550    7.9948 C.ar      1 RES1    0.0000
     46 H17        3.1354    6.5776    7.9816 H         1 RES1    0.0000
     47 C30        0.9752    9.0142    7.7964 C.ar      1 RES1    0.0000
     48 C31       -0.2732    9.4256    7.3451 C.ar      1 RES1    0.0000
     49 H18       -1.0576    9.0909    7.7618 H         1 RES1    0.0000
     50 C32       -0.3812   10.3199    6.2917 C.ar      1 RES1    0.0000
     51 H19       -1.2395   10.5995    5.9935 H         1 RES1    0.0000
     52 C33        0.7548   10.8059    5.6735 C.ar      1 RES1    0.0000
     53 H20        0.6792   11.4264    4.9586 H         1 RES1    0.0000
     54 C34        1.9999   10.3881    6.0987 C.ar      1 RES1    0.0000
     55 H21        2.7827   10.7156    5.6686 H         1 RES1    0.0000
     56 C35        2.1127    9.4926    7.1511 C.ar      1 RES1    0.0000
     57 H22        2.9709    9.2033    7.4349 H         1 RES1    0.0000
     58 C36       -2.4716    8.3386   12.2278 C.2       1 RES1    0.0000
     59 C37       -2.9740    6.9679   12.5775 C.ar      1 RES1    0.0000
     60 C38       -2.9374    5.9803   11.6064 C.ar      1 RES1    0.0000
     61 H23       -2.6730    6.1992   10.7206 H         1 RES1    0.0000
     62 C39       -3.2850    4.6713   11.9187 C.ar      1 RES1    0.0000
     63 H24       -3.2539    3.9990   11.2477 H         1 RES1    0.0000
     64 C40       -3.6750    4.3475   13.1938 C.ar      1 RES1    0.0000
     65 H25       -3.8959    3.4490   13.4090 H         1 RES1    0.0000
     66 C41       -3.7465    5.3262   14.1632 C.ar      1 RES1    0.0000
     67 H26       -4.0252    5.1015   15.0430 H         1 RES1    0.0000
     68 C42       -3.4125    6.6356   13.8570 C.ar      1 RES1    0.0000
     69 H27       -3.4840    7.3102   14.5236 H         1 RES1    0.0000
     70 C43       -3.5248    9.3529   11.9266 C.ar      1 RES1    0.0000
     71 C44       -3.6283    9.9023   10.6529 C.ar      1 RES1    0.0000
     72 H28       -3.0020    9.6602    9.9813 H         1 RES1    0.0000
     73 C45       -4.6437   10.8017   10.3601 C.ar      1 RES1    0.0000
     74 H29       -4.7152   11.1605    9.4833 H         1 RES1    0.0000
     75 C46       -5.5437   11.1784   11.3213 C.ar      1 RES1    0.0000
     76 H30       -6.2297   11.8024   11.1155 H         1 RES1    0.0000
     77 C47       -5.4490   10.6478   12.5844 C.ar      1 RES1    0.0000
     78 H31       -6.0714   10.9078   13.2553 H         1 RES1    0.0000
     79 C48       -4.4512    9.7341   12.8855 C.ar      1 RES1    0.0000
     80 H32       -4.4001    9.3641   13.7591 H         1 RES1    0.0000
@<TRIPOS>BOND
     1    1    2 1
     2    2    3 ar
     3    3    4 1
     4    5    3 ar
     5    6    5 ar
     6    7    6 1
     7    8    6 ar
     8    9    8 1
     9   10    8 ar
    10   11   10 1
    11   12   10 ar
    12   13   12 1
    13   14    5 ar
    14   15   14 ar
    15   16   15 1
    16   17    2 ar
    17   18   17 1
    18   19   18 1
    19   20   19 ar
    20   21   20 1
    21   22   20 ar
    22   23   22 ar
    23   24   23 1
    24   25   23 ar
    25   26   25 1
    26   27   25 ar
    27   28   27 1
    28   29   27 ar
    29   30   29 1
    30   31   22 ar
    31   32   31 ar
    32   33   32 1
    33   34    1 1
    34   35    1 2
    35   36   35 1
    36   37   36 ar
    37   38   37 1
    38   39   37 ar
    39   40   39 1
    40   41   39 ar
    41   42   41 1
    42   43   41 ar
    43   44   43 1
    44   45   36 ar
    45   46   45 1
    46   47   35 1
    47   48   47 ar
    48   49   48 1
    49   50   48 ar
    50   51   50 1
    51   52   50 ar
    52   53   52 1
    53   54   52 ar
    54   55   54 1
    55   56   47 ar
    56   57   56 1
    57   58   18 2
    58   59   58 1
    59   60   59 ar
    60   61   60 1
    61   62   60 ar
    62   63   62 1
    63   64   62 ar
    64   65   64 1
    65   66   64 ar
    66   67   66 1
    67   68   59 ar
    68   69   68 1
    69   70   58 1
    70   71   70 ar
    71   72   71 1
    72   73   71 ar
    73   74   73 1
    74   75   73 ar
    75   76   75 1
    76   77   75 ar
    77   78   77 1
    78   79   70 ar
    79   80   79 1
    80   12   14 ar
    81   15   17 ar
    82   19   34 ar
    83   29   31 ar
    84   32   34 ar
    85   43   45 ar
    86   54   56 ar
    87   66   68 ar
    88   77   79 ar
@<TRIPOS>SUBSTRUCTURE
     1 RES1 1

@<TRIPOS>CRYSIN
  28.4000   12.0889   20.7374  90.0000 110.2710  90.0000  15 1

