# MOL2 file generated by ConQuest
# Please check atom types

@<TRIPOS>MOLECULE
NUMCAA
    60    66     1
SMALL
NO_CHARGES
****
Generated from CSD

@<TRIPOS>ATOM
      1 C1         4.7922    5.5089    1.8336 C.ar      1 RES1    0.0000
      2 H1         4.6546    6.3512    1.4152 H         1 RES1    0.0000
      3 C2         5.8100    4.6970    1.4021 C.ar      1 RES1    0.0000
      4 H2         6.3766    4.9829    0.6949 H         1 RES1    0.0000
      5 C3         6.0164    3.4419    2.0022 C.ar      1 RES1    0.0000
      6 H3         6.7210    2.8837    1.6954 H         1 RES1    0.0000
      7 C4         5.2133    3.0190    3.0209 C.ar      1 RES1    0.0000
      8 H4         5.3605    2.1665    3.4126 H         1 RES1    0.0000
      9 C5         4.1572    3.8434    3.5015 C.ar      1 RES1    0.0000
     10 C6         3.3116    3.4413    4.5622 C.ar      1 RES1    0.0000
     11 H5         3.4536    2.5984    4.9751 H         1 RES1    0.0000
     12 C7         2.2857    4.2473    5.0088 C.ar      1 RES1    0.0000
     13 C8         2.0824    5.5119    4.3850 C.ar      1 RES1    0.0000
     14 H6         1.3799    6.0748    4.6877 H         1 RES1    0.0000
     15 C9         2.8802    5.9265    3.3613 C.ar      1 RES1    0.0000
     16 H7         2.7234    6.7718    2.9560 H         1 RES1    0.0000
     17 C10        3.9450    5.1086    2.8921 C.ar      1 RES1    0.0000
     18 C11        1.4303    3.8511    6.0891 C.1       1 RES1    0.0000
     19 C12        0.6818    3.5598    6.9857 C.1       1 RES1    0.0000
     20 C13       -0.2316    3.2566    8.0457 C.ar      1 RES1    0.0000
     21 C14       -1.3616    4.0948    8.2407 C.ar      1 RES1    0.0000
     22 C15       -1.5879    5.2474    7.4367 C.ar      1 RES1    0.0000
     23 H8        -0.9827    5.4541    6.7342 H         1 RES1    0.0000
     24 C16       -2.6566    6.0576    7.6593 C.ar      1 RES1    0.0000
     25 H9        -2.7837    6.8278    7.1180 H         1 RES1    0.0000
     26 C17       -3.5798    5.7651    8.6866 C.ar      1 RES1    0.0000
     27 H10       -4.3301    6.3310    8.8225 H         1 RES1    0.0000
     28 C18       -0.0086    2.1492    8.8907 C.ar      1 RES1    0.0000
     29 C19        1.1123    1.2748    8.7128 C.ar      1 RES1    0.0000
     30 H11        1.7415    1.4582    8.0257 H         1 RES1    0.0000
     31 C1B       -7.0806    0.4480   16.3570 C.ar      1 RES1    0.0000
     32 H1B       -6.9430   -0.3943   16.7754 H         1 RES1    0.0000
     33 C2B       -8.0983    1.2599   16.7885 C.ar      1 RES1    0.0000
     34 H2B       -8.6649    0.9740   17.4957 H         1 RES1    0.0000
     35 C3B       -8.3048    2.5150   16.1884 C.ar      1 RES1    0.0000
     36 H3B       -9.0094    3.0732   16.4953 H         1 RES1    0.0000
     37 C4B       -7.5016    2.9379   15.1697 C.ar      1 RES1    0.0000
     38 H4B       -7.6488    3.7904   14.7781 H         1 RES1    0.0000
     39 C5B       -6.4455    2.1135   14.6891 C.ar      1 RES1    0.0000
     40 C6B       -5.5999    2.5156   13.6284 C.ar      1 RES1    0.0000
     41 H5B       -5.7420    3.3585   13.2155 H         1 RES1    0.0000
     42 C7B       -4.5740    1.7096   13.1818 C.ar      1 RES1    0.0000
     43 C8B       -4.3708    0.4450   13.8056 C.ar      1 RES1    0.0000
     44 H6B       -3.6682   -0.1179   13.5029 H         1 RES1    0.0000
     45 C9B       -5.1686    0.0304   14.8294 C.ar      1 RES1    0.0000
     46 H7B       -5.0117   -0.8149   15.2347 H         1 RES1    0.0000
     47 C10B      -6.2334    0.8483   15.2985 C.ar      1 RES1    0.0000
     48 C11B      -3.7186    2.1058   12.1015 C.1       1 RES1    0.0000
     49 C12B      -2.9701    2.3971   11.2049 C.1       1 RES1    0.0000
     50 C13B      -2.0567    2.7003   10.1449 C.ar      1 RES1    0.0000
     51 C14B      -0.9267    1.8621    9.9499 C.ar      1 RES1    0.0000
     52 C15B      -0.7004    0.7095   10.7539 C.ar      1 RES1    0.0000
     53 H8B       -1.3056    0.5028   11.4565 H         1 RES1    0.0000
     54 C16B       0.3683   -0.1007   10.5313 C.ar      1 RES1    0.0000
     55 H9B        0.4954   -0.8709   11.0726 H         1 RES1    0.0000
     56 C17B       1.2915    0.1918    9.5041 C.ar      1 RES1    0.0000
     57 H10B       2.0417   -0.3741    9.3682 H         1 RES1    0.0000
     58 C18B      -2.2798    3.8077    9.3000 C.ar      1 RES1    0.0000
     59 C19B      -3.4006    4.6821    9.4779 C.ar      1 RES1    0.0000
     60 H11B      -4.0298    4.4987   10.1649 H         1 RES1    0.0000
@<TRIPOS>BOND
     1    1    2 1
     2    3    1 ar
     3    4    3 1
     4    5    3 ar
     5    6    5 1
     6    7    5 ar
     7    8    7 1
     8    9    7 ar
     9   10    9 ar
    10   11   10 1
    11   12   10 ar
    12   13   12 ar
    13   14   13 1
    14   15   13 ar
    15   16   15 1
    16   17    1 ar
    17   18   12 1
    18   19   18 3
    19   20   19 1
    20   21   20 ar
    21   22   21 ar
    22   23   22 1
    23   24   22 ar
    24   25   24 1
    25   26   24 ar
    26   27   26 1
    27   28   20 ar
    28   29   28 ar
    29   30   29 1
    30   31   32 1
    31   33   31 ar
    32   34   33 1
    33   35   33 ar
    34   36   35 1
    35   37   35 ar
    36   38   37 1
    37   39   37 ar
    38   40   39 ar
    39   41   40 1
    40   42   40 ar
    41   43   42 ar
    42   44   43 1
    43   45   43 ar
    44   46   45 1
    45   47   31 ar
    46   48   42 1
    47   49   48 3
    48   50   49 1
    49   51   28 ar
    50   52   51 ar
    51   53   52 1
    52   54   52 ar
    53   55   54 1
    54   56   29 ar
    55   57   56 1
    56   58   21 ar
    57   59   26 ar
    58   60   59 1
    59    9   17 ar
    60   15   17 ar
    61   39   47 ar
    62   45   47 ar
    63   50   51 ar
    64   50   58 ar
    65   54   56 ar
    66   58   59 ar
@<TRIPOS>SUBSTRUCTURE
     1 RES1 1

@<TRIPOS>CRYSIN
  11.7870    5.9569   18.3340  90.0000  97.1700  90.0000  14 1

