# MOL2 file generated by ConQuest
# Please check atom types

@<TRIPOS>MOLECULE
NUMPOA
   116   132     2
SMALL
NO_CHARGES
****
Generated from CSD

@<TRIPOS>ATOM
      1 C1         9.1514    0.9800    3.6129 C.3       1 RES1    0.0000
      2 H1         8.2293    1.0907    3.3331 H         1 RES1    0.0000
      3 H2         9.2109    0.2164    4.2077 H         1 RES1    0.0000
      4 C2        10.0741    0.7985    2.3974 C.3       1 RES1    0.0000
      5 H3         9.5505    0.8785    1.5733 H         1 RES1    0.0000
      6 C3        11.1384    1.9378    2.4555 C.3       1 RES1    0.0000
      7 H4        11.0861    2.4884    1.6467 H         1 RES1    0.0000
      8 C4        10.7432    2.7479    3.6588 C.ar      1 RES1    0.0000
      9 C5        11.4017    3.9305    4.1358 C.ar      1 RES1    0.0000
     10 C6        12.5523    4.4573    3.5044 C.ar      1 RES1    0.0000
     11 H5        12.8773    4.0560    2.7307 H         1 RES1    0.0000
     12 C7        13.1909    5.5504    4.0196 C.ar      1 RES1    0.0000
     13 H6        13.9520    5.8831    3.6007 H         1 RES1    0.0000
     14 C8        12.7125    6.1620    5.1557 C.ar      1 RES1    0.0000
     15 H7        13.1582    6.9002    5.5027 H         1 RES1    0.0000
     16 C9        11.5950    5.6955    5.7780 C.ar      1 RES1    0.0000
     17 H8        11.2839    6.1311    6.5394 H         1 RES1    0.0000
     18 C10       10.8975    4.5695    5.2948 C.ar      1 RES1    0.0000
     19 C11        9.7037    4.0455    5.9354 C.ar      1 RES1    0.0000
     20 C12        9.1224    4.6665    7.0623 C.ar      1 RES1    0.0000
     21 H9         9.4901    5.4551    7.3880 H         1 RES1    0.0000
     22 C13        8.0287    4.1288    7.6830 C.ar      1 RES1    0.0000
     23 H10        7.6687    4.5476    8.4307 H         1 RES1    0.0000
     24 C14        7.4513    2.9658    7.2029 C.ar      1 RES1    0.0000
     25 H11        6.7114    2.6025    7.6326 H         1 RES1    0.0000
     26 C15        7.9666    2.3528    6.1036 C.ar      1 RES1    0.0000
     27 H12        7.5602    1.5805    5.7795 H         1 RES1    0.0000
     28 C16        9.1006    2.8646    5.4431 C.ar      1 RES1    0.0000
     29 C17        9.6635    2.2289    4.2887 C.ar      1 RES1    0.0000
     30 C18       10.9590   -0.4780    2.3347 C.3       1 RES1    0.0000
     31 H13       10.5178   -1.2828    1.9892 H         1 RES1    0.0000
     32 C19       12.1504    0.0356    1.5014 C.3       1 RES1    0.0000
     33 H14       12.8599   -0.6196    1.4128 H         1 RES1    0.0000
     34 H15       11.8859    0.3670    0.6299 H         1 RES1    0.0000
     35 C20       12.4965    1.1593    2.4861 C.3       1 RES1    0.0000
     36 H16       13.2965    1.6850    2.2720 H         1 RES1    0.0000
     37 C21       12.5575    0.3643    3.7689 C.ar      1 RES1    0.0000
     38 C22       13.3661    0.5465    4.9340 C.ar      1 RES1    0.0000
     39 C23       14.3073    1.5814    5.0379 C.ar      1 RES1    0.0000
     40 H17       14.3766    2.2077    4.3545 H         1 RES1    0.0000
     41 C24       15.1241    1.6836    6.1311 C.ar      1 RES1    0.0000
     42 H18       15.7320    2.3853    6.1984 H         1 RES1    0.0000
     43 C25       15.0397    0.7358    7.1357 C.ar      1 RES1    0.0000
     44 H19       15.6232    0.7791    7.8589 H         1 RES1    0.0000
     45 C26       14.1159   -0.2558    7.0806 C.ar      1 RES1    0.0000
     46 H20       14.0621   -0.8634    7.7824 H         1 RES1    0.0000
     47 C27       13.2310   -0.3931    5.9859 C.ar      1 RES1    0.0000
     48 C28       12.2083   -1.4237    5.9110 C.ar      1 RES1    0.0000
     49 C29       11.9652   -2.3365    6.9537 C.ar      1 RES1    0.0000
     50 H21       12.4704   -2.2839    7.7320 H         1 RES1    0.0000
     51 C30       10.9976   -3.3047    6.8482 C.ar      1 RES1    0.0000
     52 H22       10.8474   -3.8841    7.5592 H         1 RES1    0.0000
     53 C31       10.2374   -3.4287    5.6877 C.ar      1 RES1    0.0000
     54 H23        9.5974   -4.1004    5.6144 H         1 RES1    0.0000
     55 C32       10.4397   -2.5599    4.6649 C.ar      1 RES1    0.0000
     56 H24        9.9269   -2.6394    3.8943 H         1 RES1    0.0000
     57 C33       11.4058   -1.5437    4.7413 C.ar      1 RES1    0.0000
     58 C34       11.6367   -0.6282    3.6802 C.ar      1 RES1    0.0000
     59 C35        8.6138    7.5896    4.5716 C.3       2 RES2    0.0000
     60 H25        9.3975    7.4225    5.1174 H         2 RES2    0.0000
     61 H26        8.3745    6.7739    4.1053 H         2 RES2    0.0000
     62 C36        7.4411    8.0987    5.4339 C.3       2 RES2    0.0000
     63 H27        7.7208    8.1728    6.3697 H         2 RES2    0.0000
     64 C37        7.0456    9.5029    4.8820 C.3       2 RES2    0.0000
     65 H28        7.1388   10.1812    5.5822 H         2 RES2    0.0000
     66 C38        8.0205    9.7571    3.7827 C.ar      2 RES2    0.0000
     67 C39        8.1279   10.9422    2.9845 C.ar      2 RES2    0.0000
     68 C40        7.2955   12.0564    3.2017 C.ar      2 RES2    0.0000
     69 H29        6.6552   12.0283    3.8759 H         2 RES2    0.0000
     70 C41        7.4134   13.1752    2.4356 C.ar      2 RES2    0.0000
     71 H30        6.8529   13.9011    2.5870 H         2 RES2    0.0000
     72 C42        8.3628   13.2366    1.4372 C.ar      2 RES2    0.0000
     73 H31        8.4378   14.0062    0.9204 H         2 RES2    0.0000
     74 C43        9.1922   12.1794    1.1972 C.ar      2 RES2    0.0000
     75 H32        9.8256   12.2391    0.5198 H         2 RES2    0.0000
     76 C44        9.1031   10.9976    1.9632 C.ar      2 RES2    0.0000
     77 C45        9.9945    9.8654    1.7598 C.ar      2 RES2    0.0000
     78 C46       10.9975    9.8598    0.7706 C.ar      2 RES2    0.0000
     79 H33       11.0801   10.5880    0.1988 H         2 RES2    0.0000
     80 C47       11.8515    8.7980    0.6376 C.ar      2 RES2    0.0000
     81 H34       12.5055    8.8158   -0.0245 H         2 RES2    0.0000
     82 C48       11.7574    7.7036    1.4709 C.ar      2 RES2    0.0000
     83 H35       12.3581    6.9987    1.3807 H         2 RES2    0.0000
     84 C49       10.7841    7.6503    2.4326 C.ar      2 RES2    0.0000
     85 H36       10.7139    6.9026    2.9800 H         2 RES2    0.0000
     86 C50        9.8854    8.7295    2.5931 C.ar      2 RES2    0.0000
     87 C51        8.8658    8.7096    3.6007 C.ar      2 RES2    0.0000
     88 C52        6.1129    7.3061    5.3391 C.3       2 RES2    0.0000
     89 H37        6.0568    6.5042    5.9003 H         2 RES2    0.0000
     90 C53        5.1088    8.4228    5.6755 C.3       2 RES2    0.0000
     91 H38        4.1856    8.1334    5.6082 H         2 RES2    0.0000
     92 H39        5.2713    8.8293    6.5409 H         2 RES2    0.0000
     93 C54        5.5403    9.3137    4.5089 C.3       2 RES2    0.0000
     94 H40        5.0250   10.1388    4.3942 H         2 RES2    0.0000
     95 C55        5.4383    8.3226    3.3775 C.ar      2 RES2    0.0000
     96 C56        5.0769    8.4970    2.0045 C.ar      2 RES2    0.0000
     97 C57        4.8142    9.7568    1.4449 C.ar      2 RES2    0.0000
     98 H41        4.8803   10.5176    1.9754 H         2 RES2    0.0000
     99 C58        4.4646    9.8767    0.1391 C.ar      2 RES2    0.0000
    100 H42        4.2964   10.7208   -0.2141 H         2 RES2    0.0000
    101 C59        4.3527    8.7600   -0.6773 C.ar      2 RES2    0.0000
    102 H43        4.1062    8.8556   -1.5687 H         2 RES2    0.0000
    103 C60        4.6080    7.5225   -0.1667 C.ar      2 RES2    0.0000
    104 H44        4.5324    6.7807   -0.7232 H         2 RES2    0.0000
    105 C61        4.9818    7.3352    1.1819 C.ar      2 RES2    0.0000
    106 C62        5.2730    6.0238    1.7461 C.ar      2 RES2    0.0000
    107 C63        5.1017    4.8327    1.0168 C.ar      2 RES2    0.0000
    108 H45        4.7862    4.8748    0.1437 H         2 RES2    0.0000
    109 C64        5.3875    3.6215    1.5611 C.ar      2 RES2    0.0000
    110 H46        5.2522    2.8491    1.0611 H         2 RES2    0.0000
    111 C65        5.8786    3.5222    2.8515 C.ar      2 RES2    0.0000
    112 H47        6.0936    2.6901    3.2047 H         2 RES2    0.0000
    113 C66        6.0470    4.6505    3.6099 C.ar      2 RES2    0.0000
    114 H48        6.3711    4.5797    4.4783 H         2 RES2    0.0000
    115 C67        5.7330    5.9137    3.0824 C.ar      2 RES2    0.0000
    116 C68        5.7677    7.1041    3.8713 C.ar      2 RES2    0.0000
@<TRIPOS>BOND
     1    1    2 1
     2    3    1 1
     3    4    1 1
     4    5    4 1
     5    6    4 1
     6    7    6 1
     7    8    6 1
     8    9    8 ar
     9   10    9 ar
    10   11   10 1
    11   12   10 ar
    12   13   12 1
    13   14   12 ar
    14   15   14 1
    15   16   14 ar
    16   17   16 1
    17   18    9 ar
    18   19   18 ar
    19   20   19 ar
    20   21   20 1
    21   22   20 ar
    22   23   22 1
    23   24   22 ar
    24   25   24 1
    25   26   24 ar
    26   27   26 1
    27   28   19 ar
    28   29    1 1
    29   30    4 1
    30   31   30 1
    31   32   30 1
    32   33   32 1
    33   34   32 1
    34   35    6 1
    35   36   35 1
    36   37   35 1
    37   38   37 ar
    38   39   38 ar
    39   40   39 1
    40   41   39 ar
    41   42   41 1
    42   43   41 ar
    43   44   43 1
    44   45   43 ar
    45   46   45 1
    46   47   38 ar
    47   48   47 ar
    48   49   48 ar
    49   50   49 1
    50   51   49 ar
    51   52   51 1
    52   53   51 ar
    53   54   53 1
    54   55   53 ar
    55   56   55 1
    56   57   48 ar
    57   58   30 1
    58   59   60 1
    59   61   59 1
    60   62   59 1
    61   63   62 1
    62   64   62 1
    63   65   64 1
    64   66   64 1
    65   67   66 ar
    66   68   67 ar
    67   69   68 1
    68   70   68 ar
    69   71   70 1
    70   72   70 ar
    71   73   72 1
    72   74   72 ar
    73   75   74 1
    74   76   67 ar
    75   77   76 ar
    76   78   77 ar
    77   79   78 1
    78   80   78 ar
    79   81   80 1
    80   82   80 ar
    81   83   82 1
    82   84   82 ar
    83   85   84 1
    84   86   77 ar
    85   87   59 1
    86   88   62 1
    87   89   88 1
    88   90   88 1
    89   91   90 1
    90   92   90 1
    91   93   64 1
    92   94   93 1
    93   95   93 1
    94   96   95 ar
    95   97   96 ar
    96   98   97 1
    97   99   97 ar
    98  100   99 1
    99  101   99 ar
   100  102  101 1
   101  103  101 ar
   102  104  103 1
   103  105   96 ar
   104  106  105 ar
   105  107  106 ar
   106  108  107 1
   107  109  107 ar
   108  110  109 1
   109  111  109 ar
   110  112  111 1
   111  113  111 ar
   112  114  113 1
   113  115  106 ar
   114  116   88 1
   115    8   29 ar
   116   16   18 ar
   117   26   28 ar
   118   28   29 ar
   119   32   35 1
   120   37   58 ar
   121   45   47 ar
   122   55   57 ar
   123   57   58 ar
   124   66   87 ar
   125   74   76 ar
   126   84   86 ar
   127   86   87 ar
   128   90   93 1
   129   95  116 ar
   130  103  105 ar
   131  113  115 ar
   132  115  116 ar
@<TRIPOS>SUBSTRUCTURE
     1 RES1 1
     2 RES2 59

@<TRIPOS>CRYSIN
  10.9580   13.5370   16.0640  79.7700  74.1000  81.3480   2 1

