# MOL2 file generated by ConQuest
# Please check atom types

@<TRIPOS>MOLECULE
NUVSON
    31    34     1
SMALL
NO_CHARGES
****
Generated from CSD

@<TRIPOS>ATOM
      1 C1         4.3382    2.4733    3.5560 C.ar      1 RES1    0.0000
      2 C2         3.3531    2.7670    2.6345 C.ar      1 RES1    0.0000
      3 C3         2.9878    1.8293    1.6956 C.ar      1 RES1    0.0000
      4 C4         3.2442   -0.3819    0.6419 C.ar      1 RES1    0.0000
      5 C5         3.8966   -1.5817    0.6167 C.ar      1 RES1    0.0000
      6 C6         5.5965   -3.1397    1.5210 C.ar      1 RES1    0.0000
      7 C7         6.5884   -3.4255    2.4153 C.ar      1 RES1    0.0000
      8 C8         6.9171   -2.5049    3.3795 C.ar      1 RES1    0.0000
      9 C9         6.6181   -0.2950    4.4542 C.ar      1 RES1    0.0000
     10 C10        6.0152    0.8929    4.5010 C.ar      1 RES1    0.0000
     11 C11        3.5888    0.5966    1.6424 C.ar      1 RES1    0.0000
     12 C12        4.9154   -1.9162    1.5555 C.ar      1 RES1    0.0000
     13 C13        6.2845   -1.2893    3.4817 C.ar      1 RES1    0.0000
     14 C14        4.9787    1.2485    3.5533 C.ar      1 RES1    0.0000
     15 C15        4.6075    0.2805    2.5893 C.ar      1 RES1    0.0000
     16 C16        5.2529   -0.9772    2.5383 C.ar      1 RES1    0.0000
     17 C17        2.2235   -0.0817   -0.3108 C.1       1 RES1    0.0000
     18 C18        1.3761    0.1870   -1.0990 C.1       1 RES1    0.0000
     19 C19        0.3514    0.4715   -2.0913 C.3       1 RES1    0.0000
     20 H1         4.5969    3.1339    4.2024 H         1 RES1    0.0000
     21 H2         2.9135    3.6193    2.6515 H         1 RES1    0.0000
     22 H3         2.3020    2.0236    1.0541 H         1 RES1    0.0000
     23 H4         3.6660   -2.2230   -0.0595 H         1 RES1    0.0000
     24 H5         5.3271   -3.7840    0.8625 H         1 RES1    0.0000
     25 H6         7.0594   -4.2587    2.3393 H         1 RES1    0.0000
     26 H7         7.6051   -2.7133    4.0150 H         1 RES1    0.0000
     27 H8         7.2966   -0.5160    5.0963 H         1 RES1    0.0000
     28 H9         6.2668    1.5325    5.1713 H         1 RES1    0.0000
     29 H10       -0.2311    1.1585   -1.7606 H         1 RES1    0.0000
     30 H11       -0.1576   -0.3245   -2.2618 H         1 RES1    0.0000
     31 H12        0.7652    0.7666   -2.9053 H         1 RES1    0.0000
@<TRIPOS>BOND
     1    1    2 ar
     2    2    3 ar
     3    3   11 ar
     4    4    5 ar
     5    5   12 ar
     6    6    7 ar
     7    7    8 ar
     8    8   13 ar
     9    9   10 ar
    10   10   14 ar
    11   11    4 ar
    12   12    6 ar
    13   13    9 ar
    14   14    1 ar
    15   15   11 ar
    16   16   12 ar
    17   17    4 1
    18   18   17 3
    19   19   18 1
    20   20    1 1
    21   21    2 1
    22   22    3 1
    23   23    5 1
    24   24    6 1
    25   25    7 1
    26   26    8 1
    27   27    9 1
    28   28   10 1
    29   29   19 1
    30   30   19 1
    31   31   19 1
    32   13   16 ar
    33   14   15 ar
    34   15   16 ar
@<TRIPOS>SUBSTRUCTURE
     1 RES1 1

@<TRIPOS>CRYSIN
   9.9000   13.1700   19.4000  90.0000  90.0000  90.0000  61 1

