# MOL2 file generated by ConQuest
# Please check atom types

@<TRIPOS>MOLECULE
NUVSED
    28    31     1
SMALL
NO_CHARGES
****
Generated from CSD

@<TRIPOS>ATOM
      1 C1         2.9457    0.1634    6.5866 C.ar      1 RES1    0.0000
      2 C2         1.7663   -0.4484    7.0300 C.ar      1 RES1    0.0000
      3 H1         1.6742   -0.5239    7.9758 H         1 RES1    0.0000
      4 C3         0.8051   -0.8863    6.1445 C.ar      1 RES1    0.0000
      5 H2         0.0444   -1.2784    6.5038 H         1 RES1    0.0000
      6 C4         0.0349   -1.2197    3.7865 C.ar      1 RES1    0.0000
      7 H3        -0.7322   -1.6302    4.1345 H         1 RES1    0.0000
      8 C5         0.2486   -1.0927    2.4750 C.ar      1 RES1    0.0000
      9 H4        -0.3481   -1.4347    1.8376 H         1 RES1    0.0000
     10 C6         1.6780   -0.3311    0.5769 C.ar      1 RES1    0.0000
     11 H5         1.0496   -0.7037   -0.0020 H         1 RES1    0.0000
     12 C7         2.8441    0.2705    0.1251 C.ar      1 RES1    0.0000
     13 H6         2.9628    0.4379   -0.7233 H         1 RES1    0.0000
     14 C8         3.8023    0.7244    1.0112 C.ar      1 RES1    0.0000
     15 H7         4.5922    1.1259    0.6959 H         1 RES1    0.0000
     16 C9         4.5837    1.0477    3.3535 C.ar      1 RES1    0.0000
     17 H8         5.3543    1.4778    3.0652 H         1 RES1    0.0000
     18 C10        4.3817    0.9265    4.6842 C.ar      1 RES1    0.0000
     19 H9         4.9273    1.2745    5.2507 H         1 RES1    0.0000
     20 C11        1.0021   -0.7608    4.7522 C.ar      1 RES1    0.0000
     21 C12        1.4393   -0.4871    1.9535 C.ar      1 RES1    0.0000
     22 C13        3.6245    0.5868    2.4000 C.ar      1 RES1    0.0000
     23 C14        3.1838    0.3147    5.2005 C.ar      1 RES1    0.0000
     24 C15        2.2020   -0.1505    4.2811 C.ar      1 RES1    0.0000
     25 C16        2.4214   -0.0133    2.8758 C.ar      1 RES1    0.0000
     26 C17        3.9136    0.6204    7.5476 C.1       1 RES1    0.0000
     27 C18        4.7229    0.9844    8.3374 C.1       1 RES1    0.0000
     28 H10        5.3681    1.3605    8.9239 H         1 RES1    0.0000
@<TRIPOS>BOND
     1    1    2 ar
     2    2    3 1
     3    4    2 ar
     4    5    4 1
     5    6    7 1
     6    8    6 ar
     7    9    8 1
     8   10   11 1
     9   12   10 ar
    10   13   12 1
    11   14   12 ar
    12   15   14 1
    13   16   17 1
    14   18   16 ar
    15   19   18 1
    16   20    4 ar
    17   21    8 ar
    18   22   14 ar
    19   23    1 ar
    20   24   20 ar
    21   25   21 ar
    22   26    1 1
    23   27   26 3
    24   28   27 1
    25    6   20 ar
    26   10   21 ar
    27   16   22 ar
    28   18   23 ar
    29   22   25 ar
    30   23   24 ar
    31   24   25 ar
@<TRIPOS>SUBSTRUCTURE
     1 RES1 1

@<TRIPOS>CRYSIN
  14.5709    3.9094   20.2420  90.0000 105.0420  90.0000  14 1

