# MOL2 file generated by ConQuest
# Please check atom types

@<TRIPOS>MOLECULE
NUXXIN
    54    58     1
SMALL
NO_CHARGES
****
Generated from CSD

@<TRIPOS>ATOM
      1 C1         0.1369    5.1227    1.5702 C.3       1 RES1    0.0000
      2 C2        -0.9355    6.1058    2.1358 C.3       1 RES1    0.0000
      3 C3        -2.0082    5.5292    3.0743 C.3       1 RES1    0.0000
      4 C4        -1.8583    5.7910    4.5826 C.3       1 RES1    0.0000
      5 C5        -2.2976    4.6849    5.5535 C.3       1 RES1    0.0000
      6 C6        -1.1722    3.9069    6.2992 C.3       1 RES1    0.0000
      7 C7        -0.0609    3.6246    5.3101 C.ar      1 RES1    0.0000
      8 C8         1.0339    4.5389    5.1384 C.ar      1 RES1    0.0000
      9 C9         1.6763    5.1879    6.2345 C.ar      1 RES1    0.0000
     10 C10        2.5580    6.2059    5.9784 C.ar      1 RES1    0.0000
     11 C11        2.9155    6.5569    4.6783 C.ar      1 RES1    0.0000
     12 C12        2.3966    5.9092    3.5907 C.ar      1 RES1    0.0000
     13 C13        1.4088    4.8972    3.7947 C.ar      1 RES1    0.0000
     14 C14        0.6664    4.3013    2.7169 C.ar      1 RES1    0.0000
     15 C15        0.0090    3.1313    2.9646 C.ar      1 RES1    0.0000
     16 C16       -0.3745    2.7863    4.2759 C.ar      1 RES1    0.0000
     17 C17        1.5283    4.7331    7.6485 C.ar      1 RES1    0.0000
     18 C18        1.4402    5.6679    8.6700 C.ar      1 RES1    0.0000
     19 C19        1.4236    5.2771    9.9982 C.ar      1 RES1    0.0000
     20 C20        1.4858    3.9443   10.3246 C.ar      1 RES1    0.0000
     21 C21        1.5586    3.0046    9.3186 C.ar      1 RES1    0.0000
     22 C22        1.5869    3.3955    7.9876 C.ar      1 RES1    0.0000
     23 C23        2.9828    6.2204    2.2540 C.ar      1 RES1    0.0000
     24 C24        3.1698    7.5363    1.8699 C.ar      1 RES1    0.0000
     25 C25        3.7952    7.8367    0.6641 C.ar      1 RES1    0.0000
     26 C26        4.2424    6.8259   -0.1379 C.ar      1 RES1    0.0000
     27 C27        4.0627    5.5111    0.2167 C.ar      1 RES1    0.0000
     28 C28        3.4317    5.2120    1.4253 C.ar      1 RES1    0.0000
     29 H1        -0.2687    4.5872    0.8611 H         1 RES1    0.0000
     30 H2         0.8513    5.6269    1.1284 H         1 RES1    0.0000
     31 H3        -0.4645    6.7921    2.6255 H         1 RES1    0.0000
     32 H4        -1.3834    6.5533    1.3986 H         1 RES1    0.0000
     33 H5        -2.8747    5.8416    2.7971 H         1 RES1    0.0000
     34 H6        -2.0075    4.5655    2.9547 H         1 RES1    0.0000
     35 H7        -0.9040    5.9779    4.7881 H         1 RES1    0.0000
     36 H8        -2.3151    6.6220    4.8331 H         1 RES1    0.0000
     37 H9        -2.9640    5.0214    6.1543 H         1 RES1    0.0000
     38 H10       -2.7620    4.0191    4.9864 H         1 RES1    0.0000
     39 H11       -0.8566    4.4979    7.0463 H         1 RES1    0.0000
     40 H12       -1.5260    3.1301    6.7551 H         1 RES1    0.0000
     41 H13        2.9738    6.7125    6.7565 H         1 RES1    0.0000
     42 H14        3.5734    7.3084    4.5207 H         1 RES1    0.0000
     43 H15       -0.1855    2.5113    2.2217 H         1 RES1    0.0000
     44 H16       -0.8658    1.9372    4.4377 H         1 RES1    0.0000
     45 H17        1.3789    6.6353    8.4449 H         1 RES1    0.0000
     46 H18        1.3882    5.9043   10.7482 H         1 RES1    0.0000
     47 H19        1.4807    3.6307   11.2533 H         1 RES1    0.0000
     48 H20        1.6239    2.0035    9.5423 H         1 RES1    0.0000
     49 H21        1.6373    2.7019    7.2686 H         1 RES1    0.0000
     50 H22        2.8399    8.2902    2.4806 H         1 RES1    0.0000
     51 H23        3.9519    8.7835    0.3982 H         1 RES1    0.0000
     52 H24        4.6873    7.0165   -0.9863 H         1 RES1    0.0000
     53 H25        4.3862    4.7621   -0.3883 H         1 RES1    0.0000
     54 H26        3.2623    4.2181    1.6898 H         1 RES1    0.0000
@<TRIPOS>BOND
     1    1    2 1
     2    2    3 1
     3    3    4 1
     4    4    5 1
     5    5    6 1
     6    6    7 1
     7    7    8 ar
     8    8    9 ar
     9    9   10 ar
    10   10   11 ar
    11   11   12 ar
    12   12   13 ar
    13   13    8 ar
    14   14    1 1
    15   15   14 ar
    16   16    7 ar
    17   17    9 1
    18   18   17 ar
    19   19   18 ar
    20   20   19 ar
    21   21   20 ar
    22   22   17 ar
    23   23   12 1
    24   24   23 ar
    25   25   24 ar
    26   26   25 ar
    27   27   26 ar
    28   28   23 ar
    29   29    1 1
    30   30    1 1
    31   31    2 1
    32   32    2 1
    33   33    3 1
    34   34    3 1
    35   35    4 1
    36   36    4 1
    37   37    5 1
    38   38    5 1
    39   39    6 1
    40   40    6 1
    41   41   10 1
    42   42   11 1
    43   43   15 1
    44   44   16 1
    45   45   18 1
    46   46   19 1
    47   47   20 1
    48   48   21 1
    49   49   22 1
    50   50   24 1
    51   51   25 1
    52   52   26 1
    53   53   27 1
    54   54   28 1
    55   13   14 ar
    56   15   16 ar
    57   21   22 ar
    58   27   28 ar
@<TRIPOS>SUBSTRUCTURE
     1 RES1 1

@<TRIPOS>CRYSIN
  11.9910   12.0620   14.6380  90.0000 106.0120  90.0000  14 2

