# MOL2 file generated by ConQuest
# Please check atom types

@<TRIPOS>MOLECULE
OBEFEG
    94    99     1
SMALL
NO_CHARGES
****
Generated from CSD

@<TRIPOS>ATOM
      1 C1        15.1740    7.2639   13.7573 C.ar      1 RES1    0.0000
      2 C2        14.8134    6.0452   13.0902 C.ar      1 RES1    0.0000
      3 C3        15.1402    4.8103   13.7114 C.ar      1 RES1    0.0000
      4 C4        14.7581    3.5811   13.0940 C.ar      1 RES1    0.0000
      5 C5        15.1457    2.3601   13.7516 C.ar      1 RES1    0.0000
      6 C6        14.1514    6.0244   11.8687 C.ar      1 RES1    0.0000
      7 C7        13.7781    4.8345   11.2857 C.ar      1 RES1    0.0000
      8 C8        14.0408    3.6065   11.8783 C.ar      1 RES1    0.0000
      9 C9        13.5749    2.3601   11.1939 C.ar      1 RES1    0.0000
     10 C10       12.7627    1.4197   11.8419 C.ar      1 RES1    0.0000
     11 C11       12.2853    0.2992   11.1805 C.ar      1 RES1    0.0000
     12 C12       12.6444    0.1340    9.8348 C.ar      1 RES1    0.0000
     13 C13       13.4354    1.0489    9.1448 C.ar      1 RES1    0.0000
     14 C14       13.8852    2.1695    9.8444 C.ar      1 RES1    0.0000
     15 C15       11.4170   -0.7520   11.8725 C.3       1 RES1    0.0000
     16 C16       11.0561   -0.3743   13.3062 C.3       1 RES1    0.0000
     17 C17       12.1858   -2.0828   11.9088 C.3       1 RES1    0.0000
     18 C18       10.1091   -0.9669   11.1022 C.3       1 RES1    0.0000
     19 C19       13.8317    0.8664    7.6710 C.3       1 RES1    0.0000
     20 C20       15.3543    0.9080    7.5448 C.3       1 RES1    0.0000
     21 C21       13.2343    2.0262    6.8567 C.3       1 RES1    0.0000
     22 C22       13.3353   -0.4505    7.0918 C.3       1 RES1    0.0000
     23 H1        14.9842    8.0945   13.3023 H         1 RES1    0.0000
     24 H2        13.9880    6.9023   11.4386 H         1 RES1    0.0000
     25 H3        13.3212    4.8692   10.5421 H         1 RES1    0.0000
     26 H4        14.8413    1.4625   13.3520 H         1 RES1    0.0000
     27 H5        12.5189    1.5849   12.7729 H         1 RES1    0.0000
     28 H6        11.8521   -0.2206   13.8032 H         1 RES1    0.0000
     29 H7        10.5279    0.4159   13.3043 H         1 RES1    0.0000
     30 H8        10.5657   -1.0824   13.7076 H         1 RES1    0.0000
     31 H9        13.0010   -1.9592   12.3963 H         1 RES1    0.0000
     32 H10       12.3732   -2.3762   11.0410 H         1 RES1    0.0000
     33 H11       11.6580   -2.7367   12.3695 H         1 RES1    0.0000
     34 H12        9.6731   -0.1317   10.9798 H         1 RES1    0.0000
     35 H13       10.3008   -1.3400   10.2535 H         1 RES1    0.0000
     36 H14        9.5444   -1.5514   11.5934 H         1 RES1    0.0000
     37 H15       12.3062   -0.5961    9.3914 H         1 RES1    0.0000
     38 H16       15.6833    1.7270    7.8965 H         1 RES1    0.0000
     39 H17       15.5978    0.8352    6.6292 H         1 RES1    0.0000
     40 H18       15.7264    0.1825    8.0323 H         1 RES1    0.0000
     41 H19       13.5397    2.8557    7.2065 H         1 RES1    0.0000
     42 H20       13.5060    1.9465    5.9506 H         1 RES1    0.0000
     43 H21       12.2856    1.9916    6.9083 H         1 RES1    0.0000
     44 H22       13.6337   -0.5337    6.1934 H         1 RES1    0.0000
     45 H23       12.3872   -0.4702    7.1147 H         1 RES1    0.0000
     46 H24       13.6800   -1.1691    7.6079 H         1 RES1    0.0000
     47 H25       14.4013    2.8453    9.4219 H         1 RES1    0.0000
     48 C1A       15.8009    7.2639   14.9157 C.ar      1 RES1    0.0000
     49 C2A       16.1616    6.0452   15.5828 C.ar      1 RES1    0.0000
     50 C3A       15.8347    4.8103   14.9616 C.ar      1 RES1    0.0000
     51 C5A       15.8292    2.3601   14.9214 C.ar      1 RES1    0.0000
     52 C4A       16.2168    3.5811   15.5790 C.ar      1 RES1    0.0000
     53 C8A       16.9341    3.6065   16.7947 C.ar      1 RES1    0.0000
     54 C7A       17.1968    4.8345   17.3873 C.ar      1 RES1    0.0000
     55 C6A       16.8235    6.0244   16.8043 C.ar      1 RES1    0.0000
     56 H2A       16.9870    6.9023   17.2344 H         1 RES1    0.0000
     57 H3A       17.6537    4.8692   18.1309 H         1 RES1    0.0000
     58 C9A       17.4000    2.3601   17.4790 C.ar      1 RES1    0.0000
     59 C10A      18.2122    1.4197   16.8310 C.ar      1 RES1    0.0000
     60 C11A      18.6897    0.2992   17.4924 C.ar      1 RES1    0.0000
     61 C12A      18.3305    0.1340   18.8381 C.ar      1 RES1    0.0000
     62 C13A      17.5396    1.0489   19.5282 C.ar      1 RES1    0.0000
     63 C14A      17.0897    2.1695   18.8286 C.ar      1 RES1    0.0000
     64 H25A      16.5736    2.8453   19.2510 H         1 RES1    0.0000
     65 C19A      17.1432    0.8664   21.0020 C.3       1 RES1    0.0000
     66 C20A      15.6206    0.9080   21.1282 C.3       1 RES1    0.0000
     67 H16A      15.2916    1.7270   20.7764 H         1 RES1    0.0000
     68 H17A      15.3771    0.8352   22.0438 H         1 RES1    0.0000
     69 H18A      15.2486    0.1825   20.6407 H         1 RES1    0.0000
     70 C21A      17.7406    2.0262   21.8163 C.3       1 RES1    0.0000
     71 H19A      17.4353    2.8557   21.4665 H         1 RES1    0.0000
     72 H20A      17.4690    1.9465   22.7224 H         1 RES1    0.0000
     73 H21A      18.6894    1.9916   21.7647 H         1 RES1    0.0000
     74 C22A      17.6396   -0.4505   21.5812 C.3       1 RES1    0.0000
     75 H22A      17.3413   -0.5337   22.4796 H         1 RES1    0.0000
     76 H23A      18.5878   -0.4702   21.5583 H         1 RES1    0.0000
     77 H24A      17.2949   -1.1691   21.0651 H         1 RES1    0.0000
     78 H15A      18.6687   -0.5961   19.2816 H         1 RES1    0.0000
     79 C15A      19.5579   -0.7520   16.8005 C.3       1 RES1    0.0000
     80 C16A      19.9188   -0.3743   15.3668 C.3       1 RES1    0.0000
     81 H6A       19.1228   -0.2206   14.8698 H         1 RES1    0.0000
     82 H7A       20.4470    0.4159   15.3687 H         1 RES1    0.0000
     83 H8A       20.4092   -1.0824   14.9654 H         1 RES1    0.0000
     84 C17A      18.7891   -2.0828   16.7641 C.3       1 RES1    0.0000
     85 H9A       17.9740   -1.9592   16.2767 H         1 RES1    0.0000
     86 H10A      18.6018   -2.3762   17.6320 H         1 RES1    0.0000
     87 H11A      19.3170   -2.7367   16.3035 H         1 RES1    0.0000
     88 C18A      20.8658   -0.9669   17.5708 C.3       1 RES1    0.0000
     89 H12A      21.3018   -0.1317   17.6931 H         1 RES1    0.0000
     90 H13A      20.6741   -1.3400   18.4195 H         1 RES1    0.0000
     91 H14A      21.4306   -1.5514   17.0795 H         1 RES1    0.0000
     92 H5A       18.4560    1.5849   15.9001 H         1 RES1    0.0000
     93 H4A       16.1336    1.4625   15.3209 H         1 RES1    0.0000
     94 H1A       15.9907    8.0945   15.3706 H         1 RES1    0.0000
@<TRIPOS>BOND
     1    1    2 ar
     2    2    3 ar
     3    3    4 ar
     4    4    5 ar
     5    5   26 1
     6    6    2 ar
     7    7    6 ar
     8    8    4 ar
     9    9    8 1
    10   10    9 ar
    11   11   10 ar
    12   12   11 ar
    13   13   12 ar
    14   14    9 ar
    15   15   11 1
    16   16   15 1
    17   17   15 1
    18   18   15 1
    19   19   13 1
    20   20   19 1
    21   21   19 1
    22   22   19 1
    23   23    1 1
    24   24    6 1
    25   25    7 1
    26   27   10 1
    27   28   16 1
    28   29   16 1
    29   30   16 1
    30   31   17 1
    31   32   17 1
    32   33   17 1
    33   34   18 1
    34   35   18 1
    35   36   18 1
    36   37   12 1
    37   38   20 1
    38   39   20 1
    39   40   20 1
    40   41   21 1
    41   42   21 1
    42   43   21 1
    43   44   22 1
    44   45   22 1
    45   46   22 1
    46   47   14 1
    47   48    1 ar
    48   49   48 ar
    49   50    3 ar
    50   51    5 ar
    51   52   50 ar
    52   53   52 ar
    53   54   53 ar
    54   55   49 ar
    55   56   55 1
    56   57   54 1
    57   58   53 1
    58   59   58 ar
    59   60   59 ar
    60   61   60 ar
    61   62   61 ar
    62   63   58 ar
    63   64   63 1
    64   65   62 1
    65   66   65 1
    66   67   66 1
    67   68   66 1
    68   69   66 1
    69   70   65 1
    70   71   70 1
    71   72   70 1
    72   73   70 1
    73   74   65 1
    74   75   74 1
    75   76   74 1
    76   77   74 1
    77   78   61 1
    78   79   60 1
    79   80   79 1
    80   81   80 1
    81   82   80 1
    82   83   80 1
    83   84   79 1
    84   85   84 1
    85   86   84 1
    86   87   84 1
    87   88   79 1
    88   89   88 1
    89   90   88 1
    90   91   88 1
    91   92   59 1
    92   93   51 1
    93   94   48 1
    94    7    8 ar
    95   13   14 ar
    96   49   50 ar
    97   51   52 ar
    98   54   55 ar
    99   62   63 ar
@<TRIPOS>SUBSTRUCTURE
     1 RES1 1

@<TRIPOS>CRYSIN
  15.7690   11.5520   19.1190  90.0000  91.1250  90.0000  15 1

