# MOL2 file generated by ConQuest
# Please check atom types

@<TRIPOS>MOLECULE
OBEFAC
    94    99     1
SMALL
NO_CHARGES
****
Generated from CSD

@<TRIPOS>ATOM
      1 C1         2.1032   -1.2655    2.2959 C.ar      1 RES1    0.0000
      2 C2         1.3253   -0.3371    2.9808 C.ar      1 RES1    0.0000
      3 C3         1.7171    0.1777    4.1991 C.ar      1 RES1    0.0000
      4 C4         2.9106   -0.2251    4.7958 C.ar      1 RES1    0.0000
      5 C5         3.7076   -1.2088    4.1465 C.ar      1 RES1    0.0000
      6 C6         3.2990   -1.7383    2.8899 C.ar      1 RES1    0.0000
      7 C7         3.3807    0.3327    6.0328 C.ar      1 RES1    0.0000
      8 C8         4.1043   -2.7632    2.2977 C.ar      1 RES1    0.0000
      9 C9         1.6413   -1.7325    0.9565 C.ar      1 RES1    0.0000
     10 C10        2.4556   -1.5990   -0.1781 C.ar      1 RES1    0.0000
     11 C11        2.0025   -1.9666   -1.4321 C.ar      1 RES1    0.0000
     12 C12        0.7041   -2.4863   -1.5434 C.ar      1 RES1    0.0000
     13 C13       -0.1342   -2.6277   -0.4373 C.ar      1 RES1    0.0000
     14 C14        0.3558   -2.2341    0.8042 C.ar      1 RES1    0.0000
     15 C15        2.8807   -1.8505   -2.6931 C.3       1 RES1    0.0000
     16 C16        2.1598   -1.0273   -3.7698 C.3       1 RES1    0.0000
     17 C17        4.2167   -1.1626   -2.4019 C.3       1 RES1    0.0000
     18 C18        3.1644   -3.2526   -3.2301 C.3       1 RES1    0.0000
     19 C19       -1.5647   -3.1837   -0.5317 C.3       1 RES1    0.0000
     20 C20       -1.6691   -4.4438    0.3375 C.3       1 RES1    0.0000
     21 C21       -2.5480   -2.1260   -0.0294 C.3       1 RES1    0.0000
     22 C22       -1.9513   -3.5572   -1.9637 C.3       1 RES1    0.0000
     23 H1         0.5078   -0.0210    2.5738 H         1 RES1    0.0000
     24 H2         1.1907    0.8980    4.6791 H         1 RES1    0.0000
     25 H3         2.8585    1.0360    6.4443 H         1 RES1    0.0000
     26 H4         3.8199   -3.1775    1.4828 H         1 RES1    0.0000
     27 H5         3.3303   -1.2161   -0.0356 H         1 RES1    0.0000
     28 H6         0.3839   -2.7574   -2.4215 H         1 RES1    0.0000
     29 H7        -0.2132   -2.3245    1.6387 H         1 RES1    0.0000
     30 H8         1.3433   -1.4863   -4.0709 H         1 RES1    0.0000
     31 H9         2.7168   -0.9697   -4.5892 H         1 RES1    0.0000
     32 H10        2.0274   -0.0704   -3.3833 H         1 RES1    0.0000
     33 H11        4.7061   -1.1754   -3.2480 H         1 RES1    0.0000
     34 H12        4.0692   -0.1672   -2.0296 H         1 RES1    0.0000
     35 H13        4.7093   -1.7088   -1.7286 H         1 RES1    0.0000
     36 H14        2.3163   -3.6789   -3.5677 H         1 RES1    0.0000
     37 H15        3.7945   -3.1962   -4.0397 H         1 RES1    0.0000
     38 H16        3.6848   -3.7661   -2.5123 H         1 RES1    0.0000
     39 H17       -2.6086   -4.8194    0.2316 H         1 RES1    0.0000
     40 H18       -1.4354   -4.2080    1.2887 H         1 RES1    0.0000
     41 H19       -1.0764   -5.1559    0.0036 H         1 RES1    0.0000
     42 H20       -2.5279   -1.3059   -0.5789 H         1 RES1    0.0000
     43 H21       -3.4682   -2.4749   -0.0534 H         1 RES1    0.0000
     44 H22       -2.3367   -1.8328    0.9235 H         1 RES1    0.0000
     45 H23       -1.3791   -4.3274   -2.2941 H         1 RES1    0.0000
     46 H24       -2.9196   -3.8449   -1.9824 H         1 RES1    0.0000
     47 H25       -1.9603   -2.7155   -2.5462 H         1 RES1    0.0000
     48 C5A        4.9241   -1.6427    4.7593 C.ar      1 RES1    0.0000
     49 C4A        5.7211   -2.6264    4.1100 C.ar      1 RES1    0.0000
     50 C3A        6.9147   -3.0291    4.7067 C.ar      1 RES1    0.0000
     51 C2A        7.3065   -2.5143    5.9250 C.ar      1 RES1    0.0000
     52 C1A        6.5286   -1.5860    6.6099 C.ar      1 RES1    0.0000
     53 C6A        5.3328   -1.1131    6.0159 C.ar      1 RES1    0.0000
     54 C8A        4.5275   -0.0882    6.6081 C.ar      1 RES1    0.0000
     55 H4A        4.8119    0.3261    7.4230 H         1 RES1    0.0000
     56 C9A        6.9904   -1.1189    7.9493 C.ar      1 RES1    0.0000
     57 C10A       6.1762   -1.2524    9.0839 C.ar      1 RES1    0.0000
     58 C11A       6.6293   -0.8848   10.3379 C.ar      1 RES1    0.0000
     59 C12A       7.9277   -0.3652   10.4492 C.ar      1 RES1    0.0000
     60 C13A       8.7660   -0.2238    9.3431 C.ar      1 RES1    0.0000
     61 C14A       8.2759   -0.6173    8.1016 C.ar      1 RES1    0.0000
     62 H7A        8.8450   -0.5269    7.2671 H         1 RES1    0.0000
     63 C19A      10.1964    0.3323    9.4375 C.3       1 RES1    0.0000
     64 C20A      10.3009    1.5924    8.5683 C.3       1 RES1    0.0000
     65 H17A      11.2404    1.9680    8.6743 H         1 RES1    0.0000
     66 H18A      10.0672    1.3566    7.6171 H         1 RES1    0.0000
     67 H19A       9.7081    2.3045    8.9023 H         1 RES1    0.0000
     68 C21A      11.1797   -0.7254    8.9352 C.3       1 RES1    0.0000
     69 H20A      11.1597   -1.5456    9.4847 H         1 RES1    0.0000
     70 H21A      12.1000   -0.3765    8.9593 H         1 RES1    0.0000
     71 H22A      10.9685   -1.0186    7.9823 H         1 RES1    0.0000
     72 C22A      10.5831    0.7058   10.8696 C.3       1 RES1    0.0000
     73 H23A      10.0109    1.4760   11.2000 H         1 RES1    0.0000
     74 H24A      11.5514    0.9935   10.8883 H         1 RES1    0.0000
     75 H25A      10.5921   -0.1359   11.4520 H         1 RES1    0.0000
     76 H6A        8.2478   -0.0940   11.3273 H         1 RES1    0.0000
     77 C15A       5.7511   -1.0010   11.5989 C.3       1 RES1    0.0000
     78 C16A       6.4719   -1.8241   12.6757 C.3       1 RES1    0.0000
     79 H8A        7.2885   -1.3652   12.9767 H         1 RES1    0.0000
     80 H9A        5.9150   -1.8817   13.4950 H         1 RES1    0.0000
     81 H10A       6.6043   -2.7811   12.2891 H         1 RES1    0.0000
     82 C17A       4.4151   -1.6888   11.3077 C.3       1 RES1    0.0000
     83 H11A       3.9256   -1.6760   12.1538 H         1 RES1    0.0000
     84 H12A       4.5626   -2.6842   10.9355 H         1 RES1    0.0000
     85 H13A       3.9225   -1.1426   10.6344 H         1 RES1    0.0000
     86 C18A       5.4674    0.4012   12.1360 C.3       1 RES1    0.0000
     87 H14A       6.3155    0.8275   12.4735 H         1 RES1    0.0000
     88 H15A       4.8372    0.3448   12.9455 H         1 RES1    0.0000
     89 H16A       4.9470    0.9147   11.4182 H         1 RES1    0.0000
     90 H5A        5.3015   -1.6353    8.9414 H         1 RES1    0.0000
     91 H1A        8.1239   -2.8304    6.3320 H         1 RES1    0.0000
     92 H2A        7.4410   -3.7494    4.2267 H         1 RES1    0.0000
     93 C7A        5.2510   -3.1841    2.8730 C.ar      1 RES1    0.0000
     94 H3A        5.7732   -3.8874    2.4616 H         1 RES1    0.0000
@<TRIPOS>BOND
     1    1    2 ar
     2    2    3 ar
     3    3    4 ar
     4    4    5 ar
     5    5    6 ar
     6    6    1 ar
     7    7    4 ar
     8    8    6 ar
     9    9    1 1
    10   10    9 ar
    11   11   10 ar
    12   12   11 ar
    13   13   12 ar
    14   14    9 ar
    15   15   11 1
    16   16   15 1
    17   17   15 1
    18   18   15 1
    19   19   13 1
    20   20   19 1
    21   21   19 1
    22   22   19 1
    23   23    2 1
    24   24    3 1
    25   25    7 1
    26   26    8 1
    27   27   10 1
    28   28   12 1
    29   29   14 1
    30   30   16 1
    31   31   16 1
    32   32   16 1
    33   33   17 1
    34   34   17 1
    35   35   17 1
    36   36   18 1
    37   37   18 1
    38   38   18 1
    39   39   20 1
    40   40   20 1
    41   41   20 1
    42   42   21 1
    43   43   21 1
    44   44   21 1
    45   45   22 1
    46   46   22 1
    47   47   22 1
    48   48    5 ar
    49   49   48 ar
    50   50   49 ar
    51   51   50 ar
    52   52   51 ar
    53   53   48 ar
    54   54    7 ar
    55   55   54 1
    56   56   52 1
    57   57   56 ar
    58   58   57 ar
    59   59   58 ar
    60   60   59 ar
    61   61   56 ar
    62   62   61 1
    63   63   60 1
    64   64   63 1
    65   65   64 1
    66   66   64 1
    67   67   64 1
    68   68   63 1
    69   69   68 1
    70   70   68 1
    71   71   68 1
    72   72   63 1
    73   73   72 1
    74   74   72 1
    75   75   72 1
    76   76   59 1
    77   77   58 1
    78   78   77 1
    79   79   78 1
    80   80   78 1
    81   81   78 1
    82   82   77 1
    83   83   82 1
    84   84   82 1
    85   85   82 1
    86   86   77 1
    87   87   86 1
    88   88   86 1
    89   89   86 1
    90   90   57 1
    91   91   51 1
    92   92   50 1
    93   93    8 ar
    94   94   93 1
    95   13   14 ar
    96   49   93 ar
    97   52   53 ar
    98   53   54 ar
    99   60   61 ar
@<TRIPOS>SUBSTRUCTURE
     1 RES1 1

@<TRIPOS>CRYSIN
   9.8330   10.0340    9.4280 106.7900  97.3200  95.4900   2 1

