# MOL2 file generated by ConQuest
# Please check atom types

@<TRIPOS>MOLECULE
OBIHEO
    48    52     1
SMALL
NO_CHARGES
****
Generated from CSD

@<TRIPOS>ATOM
      1 C1         4.3594    9.0550    7.3012 C.ar      1 RES1    0.0000
      2 C2         3.0911    9.5763    6.8528 C.ar      1 RES1    0.0000
      3 C3         2.8873   10.9540    6.7864 C.ar      1 RES1    0.0000
      4 C4         3.9350   11.8705    7.1519 C.ar      1 RES1    0.0000
      5 C5         3.7710   13.2885    7.1114 C.ar      1 RES1    0.0000
      6 H1         2.9398   13.6573    6.8355 H         1 RES1    0.0000
      7 C6         4.8016   14.1273    7.4665 C.ar      1 RES1    0.0000
      8 H2         4.6733   15.0672    7.4401 H         1 RES1    0.0000
      9 C7         6.0502   13.6016    7.8708 C.ar      1 RES1    0.0000
     10 H3         6.7544   14.1901    8.1165 H         1 RES1    0.0000
     11 C8         6.2468   12.2439    7.9097 C.ar      1 RES1    0.0000
     12 H4         7.0911   11.8987    8.1773 H         1 RES1    0.0000
     13 C9         5.1991   11.3449    7.5530 C.ar      1 RES1    0.0000
     14 C10        5.3728    9.9385    7.6116 C.ar      1 RES1    0.0000
     15 H5         6.2175    9.5922    7.8741 H         1 RES1    0.0000
     16 C11        4.5920    7.5945    7.5353 C.ar      1 RES1    0.0000
     17 C12        3.6671    6.8226    8.2586 C.ar      1 RES1    0.0000
     18 H6         2.8535    7.2163    8.5523 H         1 RES1    0.0000
     19 C13        3.9333    5.4839    8.5499 C.ar      1 RES1    0.0000
     20 H7         3.3001    4.9726    9.0398 H         1 RES1    0.0000
     21 C14        5.1138    4.8961    8.1296 C.ar      1 RES1    0.0000
     22 H8         5.2887    3.9828    8.3271 H         1 RES1    0.0000
     23 C15        6.0387    5.6420    7.4202 C.ar      1 RES1    0.0000
     24 H9         6.8500    5.2390    7.1333 H         1 RES1    0.0000
     25 C16        5.7849    6.9874    7.1230 C.ar      1 RES1    0.0000
     26 H10        6.4271    7.4914    6.6376 H         1 RES1    0.0000
     27 C17        1.9936    8.6301    6.4355 C.ar      1 RES1    0.0000
     28 C18        2.1703    7.8058    5.3208 C.ar      1 RES1    0.0000
     29 H11        2.9747    7.8595    4.8182 H         1 RES1    0.0000
     30 C19        1.1748    6.9053    4.9402 C.ar      1 RES1    0.0000
     31 H12        1.3049    6.3500    4.1799 H         1 RES1    0.0000
     32 C20       -0.0021    6.8150    5.6653 C.ar      1 RES1    0.0000
     33 H13       -0.6750    6.1962    5.4074 H         1 RES1    0.0000
     34 C21       -0.1951    7.6334    6.7724 C.ar      1 RES1    0.0000
     35 H14       -1.0017    7.5737    7.2713 H         1 RES1    0.0000
     36 C22        0.7954    8.5433    7.1525 C.ar      1 RES1    0.0000
     37 H15        0.6535    9.1070    7.9041 H         1 RES1    0.0000
     38 C23        1.5701   11.5173    6.3465 C.ar      1 RES1    0.0000
     39 C24        1.1538   11.4458    5.0105 C.ar      1 RES1    0.0000
     40 H16        1.7138   11.0410    4.3588 H         1 RES1    0.0000
     41 C25       -0.0872   11.9702    4.6391 C.ar      1 RES1    0.0000
     42 H17       -0.3693   11.9182    3.7332 H         1 RES1    0.0000
     43 C26       -0.9106   12.5664    5.5879 C.ar      1 RES1    0.0000
     44 H18       -1.7610   12.9058    5.3338 H         1 RES1    0.0000
     45 C27       -0.4873   12.6643    6.9077 C.ar      1 RES1    0.0000
     46 H19       -1.0380   13.0920    7.5527 H         1 RES1    0.0000
     47 C28        0.7406   12.1361    7.2832 C.ar      1 RES1    0.0000
     48 H20        1.0196   12.1976    8.1891 H         1 RES1    0.0000
@<TRIPOS>BOND
     1    1    2 ar
     2    2    3 ar
     3    3    4 ar
     4    4    5 ar
     5    5    6 1
     6    7    5 ar
     7    8    7 1
     8    9    7 ar
     9   10    9 1
    10   11    9 ar
    11   12   11 1
    12   13    4 ar
    13   14    1 ar
    14   15   14 1
    15   16    1 1
    16   17   16 ar
    17   18   17 1
    18   19   17 ar
    19   20   19 1
    20   21   19 ar
    21   22   21 1
    22   23   21 ar
    23   24   23 1
    24   25   16 ar
    25   26   25 1
    26   27    2 1
    27   28   27 ar
    28   29   28 1
    29   30   28 ar
    30   31   30 1
    31   32   30 ar
    32   33   32 1
    33   34   32 ar
    34   35   34 1
    35   36   27 ar
    36   37   36 1
    37   38    3 1
    38   39   38 ar
    39   40   39 1
    40   41   39 ar
    41   42   41 1
    42   43   41 ar
    43   44   43 1
    44   45   43 ar
    45   46   45 1
    46   47   38 ar
    47   48   47 1
    48   11   13 ar
    49   13   14 ar
    50   23   25 ar
    51   34   36 ar
    52   45   47 ar
@<TRIPOS>SUBSTRUCTURE
     1 RES1 1

@<TRIPOS>CRYSIN
  10.1370   21.6576    9.4740  90.0000 106.6060  90.0000  14 1

