# MOL2 file generated by ConQuest
# Please check atom types

@<TRIPOS>MOLECULE
ODIVEF
   128   140     2
SMALL
NO_CHARGES
****
Generated from CSD

@<TRIPOS>ATOM
      1 C1         6.2730    0.9027    4.3764 C.ar      1 RES1    0.0000
      2 H1         6.8616    1.5196    3.9588 H         1 RES1    0.0000
      3 C2         5.1450    0.4767    3.6818 C.ar      1 RES1    0.0000
      4 C3         4.3074   -0.4387    4.3237 C.ar      1 RES1    0.0000
      5 H2         3.5334   -0.7456    3.8674 H         1 RES1    0.0000
      6 C4         4.5607   -0.9226    5.6092 C.ar      1 RES1    0.0000
      7 C5         3.6874   -1.8501    6.2686 C.ar      1 RES1    0.0000
      8 H3         2.9283   -2.1836    5.8037 H         1 RES1    0.0000
      9 C6         3.9185   -2.2578    7.5298 C.ar      1 RES1    0.0000
     10 H4         3.3085   -2.8614    7.9355 H         1 RES1    0.0000
     11 C7         5.0575   -1.8104    8.2828 C.ar      1 RES1    0.0000
     12 C8         5.9692   -0.9119    7.6465 C.ar      1 RES1    0.0000
     13 C9         7.1366   -0.4499    8.3237 C.ar      1 RES1    0.0000
     14 C10        7.9877    0.4755    7.6379 C.ar      1 RES1    0.0000
     15 H5         8.7679    0.7921    8.0772 H         1 RES1    0.0000
     16 C11        7.7219    0.9135    6.3889 C.ar      1 RES1    0.0000
     17 H6         8.3092    1.5384    5.9794 H         1 RES1    0.0000
     18 C12        6.5727    0.4547    5.6703 C.ar      1 RES1    0.0000
     19 C13        5.7031   -0.4655    6.3169 C.ar      1 RES1    0.0000
     20 C14        4.8065    0.9495    2.2612 C.3       1 RES1    0.0000
     21 C15        5.7533    2.0635    1.7911 C.3       1 RES1    0.0000
     22 H7         5.7030    2.8189    2.4133 H         1 RES1    0.0000
     23 H8         5.4894    2.3596    0.8947 H         1 RES1    0.0000
     24 H9         6.6720    1.7226    1.7660 H         1 RES1    0.0000
     25 C16        4.9301   -0.2348    1.2958 C.3       1 RES1    0.0000
     26 H10        5.8474   -0.5787    1.3160 H         1 RES1    0.0000
     27 H11        4.7107    0.0608    0.3873 H         1 RES1    0.0000
     28 H12        4.3097   -0.9430    1.5670 H         1 RES1    0.0000
     29 C17        3.3660    1.4769    2.2134 C.3       1 RES1    0.0000
     30 H13        2.7446    0.7503    2.4276 H         1 RES1    0.0000
     31 H14        3.1722    1.8184    1.3160 H         1 RES1    0.0000
     32 H15        3.2612    2.2002    2.8669 H         1 RES1    0.0000
     33 C18        2.3099    4.9674    4.0027 C.ar      2 RES2    0.0000
     34 H16        2.8345    4.7696    3.2362 H         2 RES2    0.0000
     35 C19        1.1477    5.7192    3.8399 C.ar      2 RES2    0.0000
     36 C20        0.3963    5.9875    4.9881 C.ar      2 RES2    0.0000
     37 H17       -0.4004    6.4985    4.9055 H         2 RES2    0.0000
     38 C21        0.7767    5.5303    6.2572 C.ar      2 RES2    0.0000
     39 C22       -0.0056    5.8021    7.4211 C.ar      2 RES2    0.0000
     40 H18       -0.8092    6.3007    7.3385 H         2 RES2    0.0000
     41 C23        0.3805    5.3602    8.6407 C.ar      2 RES2    0.0000
     42 H19       -0.1601    5.5662    9.3932 H         2 RES2    0.0000
     43 C24        1.5706    4.5949    8.8381 C.ar      2 RES2    0.0000
     44 C25        2.3715    4.2990    7.6940 C.ar      2 RES2    0.0000
     45 C26        3.5678    3.5376    7.8193 C.ar      2 RES2    0.0000
     46 C27        4.3272    3.2778    6.6247 C.ar      2 RES2    0.0000
     47 H20        5.1284    2.7714    6.6894 H         2 RES2    0.0000
     48 C28        3.9351    3.7336    5.4139 C.ar      2 RES2    0.0000
     49 H21        4.4711    3.5447    4.6527 H         2 RES2    0.0000
     50 C29        2.7386    4.4895    5.2486 C.ar      2 RES2    0.0000
     51 C30        1.9616    4.7722    6.4049 C.ar      2 RES2    0.0000
     52 C31        0.7378    6.3030    2.4859 C.3       2 RES2    0.0000
     53 C32        1.1894    7.7662    2.4531 C.3       2 RES2    0.0000
     54 H22        0.7310    8.2651    3.1609 H         2 RES2    0.0000
     55 H23        0.9677    8.1570    1.5814 H         2 RES2    0.0000
     56 H24        2.1574    7.8127    2.5944 H         2 RES2    0.0000
     57 C33        1.4134    5.5642    1.3130 C.3       2 RES2    0.0000
     58 H25        2.3807    5.7159    1.3447 H         2 RES2    0.0000
     59 H26        1.0571    5.9024    0.4644 H         2 RES2    0.0000
     60 H27        1.2315    4.6031    1.3841 H         2 RES2    0.0000
     61 C34       -0.7722    6.2299    2.2727 C.3       2 RES2    0.0000
     62 H28       -1.0662    5.2967    2.3380 H         2 RES2    0.0000
     63 H29       -0.9946    6.5812    1.3859 H         2 RES2    0.0000
     64 H30       -1.2252    6.7640    2.9583 H         2 RES2    0.0000
     65 C1A        6.1794   -3.6049   13.5530 C.ar      1 RES1    0.0000
     66 H1A        5.5909   -4.2217   13.9705 H         1 RES1    0.0000
     67 C2A        7.3075   -3.1788   14.2475 C.ar      1 RES1    0.0000
     68 C3A        8.1451   -2.2635   13.6057 C.ar      1 RES1    0.0000
     69 H2A        8.9191   -1.9566   14.0620 H         1 RES1    0.0000
     70 C4A        7.8918   -1.7796   12.3201 C.ar      1 RES1    0.0000
     71 C5A        8.7650   -0.8521   11.6607 C.ar      1 RES1    0.0000
     72 H3A        9.5241   -0.5186   12.1256 H         1 RES1    0.0000
     73 C6A        8.5340   -0.4444   10.3996 C.ar      1 RES1    0.0000
     74 H4A        9.1440    0.1592    9.9938 H         1 RES1    0.0000
     75 C7A        7.3950   -0.8917    9.6465 C.ar      1 RES1    0.0000
     76 C8A        6.4833   -1.7903   10.2828 C.ar      1 RES1    0.0000
     77 C9A        5.3158   -2.2523    9.6056 C.ar      1 RES1    0.0000
     78 C10A       4.4647   -3.1777   10.2914 C.ar      1 RES1    0.0000
     79 H5A        3.6846   -3.4943    9.8522 H         1 RES1    0.0000
     80 C11A       4.7306   -3.6157   11.5404 C.ar      1 RES1    0.0000
     81 H6A        4.1433   -4.2405   11.9499 H         1 RES1    0.0000
     82 C12A       5.8797   -3.1569   12.2590 C.ar      1 RES1    0.0000
     83 C13A       6.7493   -2.2367   11.6125 C.ar      1 RES1    0.0000
     84 C14A       7.6460   -3.6517   15.6681 C.3       1 RES1    0.0000
     85 C15A       6.6991   -4.7656   16.1382 C.3       1 RES1    0.0000
     86 H7A        6.7495   -5.5210   15.5160 H         1 RES1    0.0000
     87 H8A        6.9630   -5.0618   17.0347 H         1 RES1    0.0000
     88 H9A        5.7805   -4.4247   16.1633 H         1 RES1    0.0000
     89 C16A       7.5224   -2.4674   16.6336 C.3       1 RES1    0.0000
     90 H10A       6.6050   -2.1235   16.6133 H         1 RES1    0.0000
     91 H11A       7.7418   -2.7630   17.5421 H         1 RES1    0.0000
     92 H12A       8.1428   -1.7592   16.3623 H         1 RES1    0.0000
     93 C17A       9.0865   -4.1791   15.7160 C.3       1 RES1    0.0000
     94 H13A       9.7079   -3.4524   15.5017 H         1 RES1    0.0000
     95 H14A       9.2803   -4.5205   16.6133 H         1 RES1    0.0000
     96 H15A       9.1913   -4.9024   15.0624 H         1 RES1    0.0000
     97 C18A       3.2330    2.6939   13.9266 C.ar      2 RES2    0.0000
     98 H16A       2.7084    2.8916   14.6931 H         2 RES2    0.0000
     99 C19A       4.3952    1.9420   14.0894 C.ar      2 RES2    0.0000
    100 C20A       5.1466    1.6737   12.9412 C.ar      2 RES2    0.0000
    101 H17A       5.9433    1.1628   13.0239 H         2 RES2    0.0000
    102 C21A       4.7663    2.1310   11.6722 C.ar      2 RES2    0.0000
    103 C22A       5.5485    1.8591   10.5082 C.ar      2 RES2    0.0000
    104 H18A       6.3521    1.3605   10.5909 H         2 RES2    0.0000
    105 C23A       5.1624    2.3011    9.2887 C.ar      2 RES2    0.0000
    106 H19A       5.7030    2.0951    8.5362 H         2 RES2    0.0000
    107 C24A       3.9723    3.0663    9.0912 C.ar      2 RES2    0.0000
    108 C25A       3.1714    3.3622   10.2353 C.ar      2 RES2    0.0000
    109 C26A       1.9751    4.1236   10.1100 C.ar      2 RES2    0.0000
    110 C27A       1.2157    4.3834   11.3046 C.ar      2 RES2    0.0000
    111 H20A       0.4145    4.8899   11.2399 H         2 RES2    0.0000
    112 C28A       1.6078    3.9276   12.5154 C.ar      2 RES2    0.0000
    113 H21A       1.0718    4.1166   13.2767 H         2 RES2    0.0000
    114 C29A       2.8043    3.1717   12.6807 C.ar      2 RES2    0.0000
    115 C30A       3.5813    2.8890   11.5244 C.ar      2 RES2    0.0000
    116 C31A       4.8051    1.3582   15.4434 C.3       2 RES2    0.0000
    117 C32A       4.3535   -0.1049   15.4762 C.3       2 RES2    0.0000
    118 H22A       4.8119   -0.6039   14.7684 H         2 RES2    0.0000
    119 H23A       4.5753   -0.4958   16.3480 H         2 RES2    0.0000
    120 H24A       3.3855   -0.1514   15.3350 H         2 RES2    0.0000
    121 C33A       4.1295    2.0971   16.6164 C.3       2 RES2    0.0000
    122 H25A       3.1622    1.9454   16.5846 H         2 RES2    0.0000
    123 H26A       4.4859    1.7588   17.4650 H         2 RES2    0.0000
    124 H27A       4.3114    3.0581   16.5452 H         2 RES2    0.0000
    125 C34A       6.3151    1.4313   15.6566 C.3       2 RES2    0.0000
    126 H28A       6.6091    2.3645   15.5914 H         2 RES2    0.0000
    127 H29A       6.5375    1.0800   16.5434 H         2 RES2    0.0000
    128 H30A       6.7682    0.8973   14.9710 H         2 RES2    0.0000
@<TRIPOS>BOND
     1    1    2 1
     2    3    1 ar
     3    4    3 ar
     4    5    4 1
     5    6    4 ar
     6    7    6 ar
     7    8    7 1
     8    9    7 ar
     9   10    9 1
    10   11    9 ar
    11   12   11 ar
    12   13   12 ar
    13   14   13 ar
    14   15   14 1
    15   16   14 ar
    16   17   16 1
    17   18    1 ar
    18   19    6 ar
    19   20    3 1
    20   21   20 1
    21   22   21 1
    22   23   21 1
    23   24   21 1
    24   25   20 1
    25   26   25 1
    26   27   25 1
    27   28   25 1
    28   29   20 1
    29   30   29 1
    30   31   29 1
    31   32   29 1
    32   33   34 1
    33   35   33 ar
    34   36   35 ar
    35   37   36 1
    36   38   36 ar
    37   39   38 ar
    38   40   39 1
    39   41   39 ar
    40   42   41 1
    41   43   41 ar
    42   44   43 ar
    43   45   44 ar
    44   46   45 ar
    45   47   46 1
    46   48   46 ar
    47   49   48 1
    48   50   33 ar
    49   51   38 ar
    50   52   35 1
    51   53   52 1
    52   54   53 1
    53   55   53 1
    54   56   53 1
    55   57   52 1
    56   58   57 1
    57   59   57 1
    58   60   57 1
    59   61   52 1
    60   62   61 1
    61   63   61 1
    62   64   61 1
    63   65   66 1
    64   67   65 ar
    65   68   67 ar
    66   69   68 1
    67   70   68 ar
    68   71   70 ar
    69   72   71 1
    70   73   71 ar
    71   74   73 1
    72   75   13 ar
    73   76   75 ar
    74   77   11 ar
    75   78   77 ar
    76   79   78 1
    77   80   78 ar
    78   81   80 1
    79   82   65 ar
    80   83   70 ar
    81   84   67 1
    82   85   84 1
    83   86   85 1
    84   87   85 1
    85   88   85 1
    86   89   84 1
    87   90   89 1
    88   91   89 1
    89   92   89 1
    90   93   84 1
    91   94   93 1
    92   95   93 1
    93   96   93 1
    94   97   98 1
    95   99   97 ar
    96  100   99 ar
    97  101  100 1
    98  102  100 ar
    99  103  102 ar
   100  104  103 1
   101  105  103 ar
   102  106  105 1
   103  107   45 ar
   104  108  107 ar
   105  109   43 ar
   106  110  109 ar
   107  111  110 1
   108  112  110 ar
   109  113  112 1
   110  114   97 ar
   111  115  102 ar
   112  116   99 1
   113  117  116 1
   114  118  117 1
   115  119  117 1
   116  120  117 1
   117  121  116 1
   118  122  121 1
   119  123  121 1
   120  124  121 1
   121  125  116 1
   122  126  125 1
   123  127  125 1
   124  128  125 1
   125   12   19 ar
   126   16   18 ar
   127   18   19 ar
   128   44   51 ar
   129   48   50 ar
   130   50   51 ar
   131   73   75 ar
   132   76   77 ar
   133   76   83 ar
   134   80   82 ar
   135   82   83 ar
   136  105  107 ar
   137  108  109 ar
   138  108  115 ar
   139  112  114 ar
   140  114  115 ar
@<TRIPOS>SUBSTRUCTURE
     1 RES1 1
     2 RES2 33

@<TRIPOS>CRYSIN
   6.3207   10.3801   18.1328  98.5220  90.5970  93.2520   2 1

