# MOL2 file generated by ConQuest
# Please check atom types

@<TRIPOS>MOLECULE
ODIVIJ
    60    68     1
SMALL
NO_CHARGES
****
Generated from CSD

@<TRIPOS>ATOM
      1 C1         4.3273   -0.5982    4.1832 C.ar      1 RES1    0.0000
      2 H1         3.4587   -0.9520    4.3361 H         1 RES1    0.0000
      3 C2         6.1452   -0.0738    2.6458 C.ar      1 RES1    0.0000
      4 C3         7.9731    0.5032    1.0974 C.ar      1 RES1    0.0000
      5 C4         4.6087   -1.0996    0.5232 C.ar      1 RES1    0.0000
      6 H2         4.0905   -1.4628   -0.1832 H         1 RES1    0.0000
      7 C5         5.8933   -0.5456    0.2282 C.ar      1 RES1    0.0000
      8 C6         6.6705   -0.0288    1.3096 C.ar      1 RES1    0.0000
      9 C7         6.8915    0.4234    3.7456 C.ar      1 RES1    0.0000
     10 C8         5.0455   -0.0764    5.2618 C.ar      1 RES1    0.0000
     11 C9         4.8512   -0.6135    2.8887 C.ar      1 RES1    0.0000
     12 C10        4.4086    0.0119    6.6060 C.ar      1 RES1    0.0000
     13 C11        8.1926    0.9495    3.4872 C.ar      1 RES1    0.0000
     14 H3         8.7122    1.2778    4.2126 H         1 RES1    0.0000
     15 C12        8.7079    0.9910    2.2278 C.ar      1 RES1    0.0000
     16 H4         9.5758    1.3533    2.0944 H         1 RES1    0.0000
     17 C13        4.1093   -1.1226    1.7810 C.ar      1 RES1    0.0000
     18 H5         3.2442   -1.4866    1.9311 H         1 RES1    0.0000
     19 C14        4.6778    1.0886    7.4533 C.ar      1 RES1    0.0000
     20 H6         5.2960    1.7564    7.1790 H         1 RES1    0.0000
     21 C15        6.3265    0.4132    5.0285 C.ar      1 RES1    0.0000
     22 H7         6.8325    0.7492    5.7575 H         1 RES1    0.0000
     23 C16        3.4961   -0.9452    7.0480 C.ar      1 RES1    0.0000
     24 H8         3.2960   -1.6885    6.4902 H         1 RES1    0.0000
     25 C17        2.8750   -0.8358    8.2835 C.ar      1 RES1    0.0000
     26 H9         2.2597   -1.5010    8.5686 H         1 RES1    0.0000
     27 C18        4.0546    1.1972    8.6917 C.ar      1 RES1    0.0000
     28 H10        4.2539    1.9337    9.2575 H         1 RES1    0.0000
     29 C19        3.1536    0.2469    9.0994 C.ar      1 RES1    0.0000
     30 H11        2.7210    0.3318    9.9423 H         1 RES1    0.0000
     31 C1D       10.0659    0.5982   -4.1832 C.ar      1 RES1    0.0000
     32 H1D       10.9345    0.9520   -4.3361 H         1 RES1    0.0000
     33 C2D        8.2480    0.0738   -2.6458 C.ar      1 RES1    0.0000
     34 C3D        6.4201   -0.5032   -1.0974 C.ar      1 RES1    0.0000
     35 C4D        9.7845    1.0996   -0.5232 C.ar      1 RES1    0.0000
     36 H2D       10.3027    1.4628    0.1832 H         1 RES1    0.0000
     37 C5D        8.4999    0.5456   -0.2282 C.ar      1 RES1    0.0000
     38 C6D        7.7227    0.0288   -1.3096 C.ar      1 RES1    0.0000
     39 C7D        7.5017   -0.4234   -3.7456 C.ar      1 RES1    0.0000
     40 C8D        9.3477    0.0764   -5.2618 C.ar      1 RES1    0.0000
     41 C9D        9.5420    0.6135   -2.8887 C.ar      1 RES1    0.0000
     42 C10D       9.9846   -0.0119   -6.6060 C.ar      1 RES1    0.0000
     43 C11D       6.2006   -0.9495   -3.4872 C.ar      1 RES1    0.0000
     44 H3D        5.6810   -1.2778   -4.2126 H         1 RES1    0.0000
     45 C12D       5.6853   -0.9910   -2.2278 C.ar      1 RES1    0.0000
     46 H4D        4.8174   -1.3533   -2.0944 H         1 RES1    0.0000
     47 C13D      10.2839    1.1226   -1.7810 C.ar      1 RES1    0.0000
     48 H5D       11.1490    1.4866   -1.9311 H         1 RES1    0.0000
     49 C14D       9.7154   -1.0886   -7.4533 C.ar      1 RES1    0.0000
     50 H6D        9.0972   -1.7564   -7.1790 H         1 RES1    0.0000
     51 C15D       8.0667   -0.4132   -5.0285 C.ar      1 RES1    0.0000
     52 H7D        7.5607   -0.7492   -5.7575 H         1 RES1    0.0000
     53 C16D      10.8971    0.9452   -7.0480 C.ar      1 RES1    0.0000
     54 H8D       11.0972    1.6885   -6.4902 H         1 RES1    0.0000
     55 C17D      11.5182    0.8358   -8.2835 C.ar      1 RES1    0.0000
     56 H9D       12.1335    1.5010   -8.5686 H         1 RES1    0.0000
     57 C18D      10.3386   -1.1972   -8.6917 C.ar      1 RES1    0.0000
     58 H10D      10.1393   -1.9337   -9.2575 H         1 RES1    0.0000
     59 C19D      11.2396   -0.2469   -9.0994 C.ar      1 RES1    0.0000
     60 H11D      11.6722   -0.3318   -9.9423 H         1 RES1    0.0000
@<TRIPOS>BOND
     1    1    2 1
     2    3    8 ar
     3    4    8 ar
     4    5    6 1
     5    7    5 ar
     6    8    7 ar
     7    9    3 ar
     8   10    1 ar
     9   11    1 ar
    10   12   10 1
    11   13    9 ar
    12   14   13 1
    13   15    4 ar
    14   16   15 1
    15   17    5 ar
    16   18   17 1
    17   19   12 ar
    18   20   19 1
    19   21    9 ar
    20   22   21 1
    21   23   12 ar
    22   24   23 1
    23   25   23 ar
    24   26   25 1
    25   27   19 ar
    26   28   27 1
    27   29   25 ar
    28   30   29 1
    29   31   32 1
    30   33   38 ar
    31   34    7 ar
    32   35   36 1
    33   37    4 ar
    34   38   34 ar
    35   39   33 ar
    36   40   31 ar
    37   41   31 ar
    38   42   40 1
    39   43   39 ar
    40   44   43 1
    41   45   34 ar
    42   46   45 1
    43   47   35 ar
    44   48   47 1
    45   49   42 ar
    46   50   49 1
    47   51   39 ar
    48   52   51 1
    49   53   42 ar
    50   54   53 1
    51   55   53 ar
    52   56   55 1
    53   57   49 ar
    54   58   57 1
    55   59   55 ar
    56   60   59 1
    57    3   11 ar
    58   10   21 ar
    59   11   17 ar
    60   13   15 ar
    61   27   29 ar
    62   33   41 ar
    63   35   37 ar
    64   37   38 ar
    65   40   51 ar
    66   41   47 ar
    67   43   45 ar
    68   57   59 ar
@<TRIPOS>SUBSTRUCTURE
     1 RES1 1

@<TRIPOS>CRYSIN
   7.1966    8.4849   39.8170  90.0000  90.0000  90.0000  61 3

