# MOL2 file generated by ConQuest
# Please check atom types

@<TRIPOS>MOLECULE
OFALOZ
   576   672    12
SMALL
NO_CHARGES
****
Generated from CSD

@<TRIPOS>ATOM
      1 C1         3.0841   19.8488   21.3170 C.ar      1 RES1    0.0000
      2 C2         4.2618   19.9312   20.4918 C.ar      1 RES1    0.0000
      3 C3         3.9078   19.6514   19.1722 C.ar      1 RES1    0.0000
      4 C4         2.5065   19.3730   19.1378 C.ar      1 RES1    0.0000
      5 C5         2.0174   19.4775   20.4457 C.ar      1 RES1    0.0000
      6 C6         3.0815   19.6916   22.6606 C.ar      1 RES1    0.0000
      7 C7         4.4541   19.7426   23.2667 C.ar      1 RES1    0.0000
      8 C8         5.6307   19.8326   22.4199 C.ar      1 RES1    0.0000
      9 C9         5.5289   19.8488   20.9655 C.ar      1 RES1    0.0000
     10 C10        6.5129   19.5592   19.9568 C.ar      1 RES1    0.0000
     11 H1         7.4341   19.5644   20.1908 H         1 RES1    0.0000
     12 C11        6.1475   19.2733   18.6481 C.ar      1 RES1    0.0000
     13 H2         6.8315   19.0973   18.0132 H         1 RES1    0.0000
     14 C12        4.7868   19.2326   18.2128 C.ar      1 RES1    0.0000
     15 C13        4.1498   18.6723   17.0069 C.ar      1 RES1    0.0000
     16 C14        2.7216   18.4093   16.9578 C.ar      1 RES1    0.0000
     17 C15        1.8839   18.6755   18.1475 C.ar      1 RES1    0.0000
     18 C16        0.5982   18.1606   18.5128 C.ar      1 RES1    0.0000
     19 H3         0.0533   17.7585   17.8451 H         1 RES1    0.0000
     20 C17        0.1264   18.2334   19.8234 C.ar      1 RES1    0.0000
     21 H4        -0.7187   17.8493   20.0280 H         1 RES1    0.0000
     22 C18        0.8732   18.8687   20.8740 C.ar      1 RES1    0.0000
     23 C19        0.6912   18.8602   22.3305 C.ar      1 RES1    0.0000
     24 C20        1.7522   19.3475   23.2093 C.ar      1 RES1    0.0000
     25 C21        4.6788   19.6321   24.6410 C.ar      1 RES1    0.0000
     26 H5         3.9310   19.5471   25.2212 H         1 RES1    0.0000
     27 C22        5.9533   19.6410   25.1905 C.ar      1 RES1    0.0000
     28 H6         6.0587   19.5731   26.1312 H         1 RES1    0.0000
     29 C23        7.0740   19.7483   24.3843 C.ar      1 RES1    0.0000
     30 H7         7.9439   19.7699   24.7675 H         1 RES1    0.0000
     31 C24        6.9089   19.8242   23.0265 C.ar      1 RES1    0.0000
     32 H8         7.6804   19.8737   22.4725 H         1 RES1    0.0000
     33 C25        4.9030   18.3115   15.8826 C.ar      1 RES1    0.0000
     34 H9         5.8419   18.4614   15.8943 H         1 RES1    0.0000
     35 C26        4.3345   17.7483   14.7644 C.ar      1 RES1    0.0000
     36 H10        4.8806   17.5163   14.0210 H         1 RES1    0.0000
     37 C27        2.9619   17.5187   14.7177 C.ar      1 RES1    0.0000
     38 H11        2.5667   17.1443   13.9382 H         1 RES1    0.0000
     39 C28        2.1772   17.8390   15.8081 C.ar      1 RES1    0.0000
     40 H12        1.2428   17.6655   15.7742 H         1 RES1    0.0000
     41 C29       -0.5130   18.3935   22.8875 C.ar      1 RES1    0.0000
     42 H13       -1.1848   18.0397   22.3177 H         1 RES1    0.0000
     43 C30       -0.7327   18.4389   24.2351 C.ar      1 RES1    0.0000
     44 H14       -1.5373   18.0851   24.5967 H         1 RES1    0.0000
     45 C31        0.2190   19.0014   25.0827 C.ar      1 RES1    0.0000
     46 H15        0.0369   19.0864   26.0111 H         1 RES1    0.0000
     47 C32        1.4215   19.4334   24.5780 C.ar      1 RES1    0.0000
     48 H16        2.0579   19.8066   25.1758 H         1 RES1    0.0000
     49 C33        3.2594   19.7656    8.1721 C.ar      2 RES2    0.0000
     50 C34        4.3481   19.9479    7.2701 C.ar      2 RES2    0.0000
     51 C35        3.8938   19.8252    5.9569 C.ar      2 RES2    0.0000
     52 C36        2.4923   19.5499    6.0097 C.ar      2 RES2    0.0000
     53 C37        2.1028   19.5184    7.3526 C.ar      2 RES2    0.0000
     54 C38        3.3755   19.4068    9.4776 C.ar      2 RES2    0.0000
     55 C39        4.7711   19.3172    9.9585 C.ar      2 RES2    0.0000
     56 C40        5.8801   19.5149    9.0408 C.ar      2 RES2    0.0000
     57 C41        5.6597   19.7604    7.6213 C.ar      2 RES2    0.0000
     58 C42        6.5480   19.6172    6.5045 C.ar      2 RES2    0.0000
     59 H17        7.4849   19.6163    6.6609 H         2 RES2    0.0000
     60 C43        6.0885   19.4812    5.2025 C.ar      2 RES2    0.0000
     61 H18        6.7167   19.3698    4.4993 H         2 RES2    0.0000
     62 C44        4.6869   19.5041    4.8908 C.ar      2 RES2    0.0000
     63 C45        3.9580   19.0399    3.6931 C.ar      2 RES2    0.0000
     64 C46        2.5329   18.7925    3.7433 C.ar      2 RES2    0.0000
     65 C47        1.7845   18.9580    5.0018 C.ar      2 RES2    0.0000
     66 C48        0.5322   18.3926    5.4210 C.ar      2 RES2    0.0000
     67 H19       -0.0623   18.0440    4.7662 H         2 RES2    0.0000
     68 C49        0.1708   18.3431    6.7530 C.ar      2 RES2    0.0000
     69 H20       -0.6630   17.9467    6.9811 H         2 RES2    0.0000
     70 C50        0.9921   18.8598    7.8105 C.ar      2 RES2    0.0000
     71 C51        0.9232   18.7015    9.2495 C.ar      2 RES2    0.0000
     72 C52        2.0585   19.0309   10.0959 C.ar      2 RES2    0.0000
     73 C53        5.1111   18.9472   11.2808 C.ar      2 RES2    0.0000
     74 H21        4.4089   18.7750   11.8967 H         2 RES2    0.0000
     75 C54        6.4075   18.8241   11.7161 C.ar      2 RES2    0.0000
     76 H22        6.5850   18.5868   12.6199 H         2 RES2    0.0000
     77 C55        7.4681   19.0477   10.8304 C.ar      2 RES2    0.0000
     78 H23        8.3665   18.9848   11.1335 H         2 RES2    0.0000
     79 C56        7.1978   19.3574    9.5233 C.ar      2 RES2    0.0000
     80 H24        7.9237   19.4693    8.9212 H         2 RES2    0.0000
     81 C57        4.6276   18.7878    2.4909 C.ar      2 RES2    0.0000
     82 H25        5.5633   18.9459    2.4445 H         2 RES2    0.0000
     83 C58        3.9788   18.3210    1.3823 C.ar      2 RES2    0.0000
     84 H26        4.4692   18.1413    0.5871 H         2 RES2    0.0000
     85 C59        2.5884   18.1050    1.4125 C.ar      2 RES2    0.0000
     86 H27        2.1281   17.8082    0.6351 H         2 RES2    0.0000
     87 C60        1.9178   18.3284    2.5758 C.ar      2 RES2    0.0000
     88 H28        0.9830   18.1608    2.5966 H         2 RES2    0.0000
     89 C61       -0.2492   18.2460    9.8547 C.ar      2 RES2    0.0000
     90 H29       -0.9771   17.9878    9.3028 H         2 RES2    0.0000
     91 C62       -0.3923   18.1552   11.2194 C.ar      2 RES2    0.0000
     92 H30       -1.1948   17.8191   11.5978 H         2 RES2    0.0000
     93 C63        0.6484   18.5600   12.0286 C.ar      2 RES2    0.0000
     94 H31        0.5374   18.5609   12.9722 H         2 RES2    0.0000
     95 C64        1.8524   18.9649   11.4775 C.ar      2 RES2    0.0000
     96 H32        2.5643   19.2076   12.0595 H         2 RES2    0.0000
     97 C65        6.2254   16.1689    8.6562 C.ar      3 RES3    0.0000
     98 C66        7.4088   15.9725    7.8823 C.ar      3 RES3    0.0000
     99 C67        7.0736   16.0430    6.5203 C.ar      3 RES3    0.0000
    100 C68        5.6820   16.3082    6.4148 C.ar      3 RES3    0.0000
    101 C69        5.1657   16.3758    7.7283 C.ar      3 RES3    0.0000
    102 C70        6.0653   15.7588    9.9430 C.ar      3 RES3    0.0000
    103 C71        7.3492   15.3613   10.5920 C.ar      3 RES3    0.0000
    104 C72        8.5271   15.0946    9.7928 C.ar      3 RES3    0.0000
    105 C73        8.5142   15.3172    8.3432 C.ar      3 RES3    0.0000
    106 C74        9.3874   14.8249    7.3163 C.ar      3 RES3    0.0000
    107 H33       10.2151   14.4300    7.5656 H         3 RES3    0.0000
    108 C75        9.0617   14.9073    5.9745 C.ar      3 RES3    0.0000
    109 H34        9.6820   14.5836    5.3319 H         3 RES3    0.0000
    110 C76        7.8236   15.4625    5.5187 C.ar      3 RES3    0.0000
    111 C77        7.1209   15.3254    4.2402 C.ar      3 RES3    0.0000
    112 C78        5.7032   15.5957    4.1289 C.ar      3 RES3    0.0000
    113 C79        4.9287   16.0123    5.3143 C.ar      3 RES3    0.0000
    114 C80        3.5169   15.9729    5.5713 C.ar      3 RES3    0.0000
    115 H35        2.9139   15.8899    4.8409 H         3 RES3    0.0000
    116 C81        3.0151   16.0525    6.8584 C.ar      3 RES3    0.0000
    117 H36        2.0727   16.0283    6.9811 H         3 RES3    0.0000
    118 C82        3.8589   16.1704    8.0158 C.ar      3 RES3    0.0000
    119 C83        3.5542   15.8440    9.4181 C.ar      3 RES3    0.0000
    120 C84        4.6576   15.6362   10.3655 C.ar      3 RES3    0.0000
    121 C85        7.5025   15.2557   11.9891 C.ar      3 RES3    0.0000
    122 H37        6.7795   15.5071   12.5505 H         3 RES3    0.0000
    123 C86        8.6756   14.7966   12.5703 C.ar      3 RES3    0.0000
    124 H38        8.7415   14.7371   13.5166 H         3 RES3    0.0000
    125 C87        9.7565   14.4231   11.7734 C.ar      3 RES3    0.0000
    126 H39       10.5401   14.0602   12.1663 H         3 RES3    0.0000
    127 C88        9.6749   14.5859   10.4146 C.ar      3 RES3    0.0000
    128 H40       10.4209   14.3457    9.8766 H         3 RES3    0.0000
    129 C89        7.8054   14.8725    3.0983 C.ar      3 RES3    0.0000
    130 H41        8.7386   14.7003    3.1543 H         3 RES3    0.0000
    131 C90        7.1583   14.6742    1.9009 C.ar      3 RES3    0.0000
    132 H42        7.6467   14.3781    1.1422 H         3 RES3    0.0000
    133 C91        5.7878   14.9067    1.7997 C.ar      3 RES3    0.0000
    134 H43        5.3329   14.7479    0.9794 H         3 RES3    0.0000
    135 C92        5.0966   15.3710    2.9016 C.ar      3 RES3    0.0000
    136 H44        4.1650   15.5438    2.8154 H         3 RES3    0.0000
    137 C93        2.2426   15.6645    9.8355 C.ar      3 RES3    0.0000
    138 H45        1.5412   15.8098    9.2121 H         3 RES3    0.0000
    139 C94        1.9216   15.2843   11.1148 C.ar      3 RES3    0.0000
    140 H46        1.0138   15.1913   11.3790 H         3 RES3    0.0000
    141 C95        2.9534   15.0367   12.0198 C.ar      3 RES3    0.0000
    142 H47        2.7476   14.7501   12.9028 H         3 RES3    0.0000
    143 C96        4.2638   15.2023   11.6494 C.ar      3 RES3    0.0000
    144 H48        4.9395   15.0161   12.2890 H         3 RES3    0.0000
    145 C97       12.8626   20.0720    4.3437 C.ar      4 RES4    0.0000
    146 C98       11.6669   19.7489    5.0707 C.ar      4 RES4    0.0000
    147 C99       11.9806   19.5938    6.4146 C.ar      4 RES4    0.0000
    148 C100      13.3750   19.8309    6.5774 C.ar      4 RES4    0.0000
    149 C101      13.9039   20.1135    5.3007 C.ar      4 RES4    0.0000
    150 C102      13.0280   19.8826    3.0113 C.ar      4 RES4    0.0000
    151 C103      11.7427   19.5925    2.2822 C.ar      4 RES4    0.0000
    152 C104      10.5528   19.2050    3.0182 C.ar      4 RES4    0.0000
    153 C105      10.5552   19.1719    4.4801 C.ar      4 RES4    0.0000
    154 C106       9.6955   18.5038    5.4040 C.ar      4 RES4    0.0000
    155 H49        8.8719   18.1543    5.0837 H         4 RES4    0.0000
    156 C107      10.0054   18.3420    6.7436 C.ar      4 RES4    0.0000
    157 H50        9.3935   17.8883    7.3094 H         4 RES4    0.0000
    158 C108      11.2275   18.8440    7.2958 C.ar      4 RES4    0.0000
    159 C109      11.9151   18.5103    8.5561 C.ar      4 RES4    0.0000
    160 C110      13.3287   18.7311    8.7061 C.ar      4 RES4    0.0000
    161 C111      14.1180   19.3510    7.6192 C.ar      4 RES4    0.0000
    162 C112      15.5311   19.3488    7.3739 C.ar      4 RES4    0.0000
    163 H51       16.1226   19.1427    8.0886 H         4 RES4    0.0000
    164 C113      16.0558   19.6386    6.1248 C.ar      4 RES4    0.0000
    165 H52       16.9984   19.6336    6.0124 H         4 RES4    0.0000
    166 C114      15.2346   19.9451    5.0015 C.ar      4 RES4    0.0000
    167 C115      15.5226   19.8759    3.5618 C.ar      4 RES4    0.0000
    168 C116      14.4464   19.8151    2.5840 C.ar      4 RES4    0.0000
    169 C117      11.5967   19.7000    0.9020 C.ar      4 RES4    0.0000
    170 H53       12.3359   20.0143    0.3923 H         4 RES4    0.0000
    171 C118      10.4302   19.3724    0.2346 C.ar      4 RES4    0.0000
    172 H54       10.3857   19.4541   -0.7099 H         4 RES4    0.0000
    173 C119       9.3220   18.9249    0.9444 C.ar      4 RES4    0.0000
    174 H55        8.5315   18.6625    0.4857 H         4 RES4    0.0000
    175 C120       9.3831   18.8654    2.3185 C.ar      4 RES4    0.0000
    176 H56        8.6160   18.5890    2.8047 H         4 RES4    0.0000
    177 C121      11.2338   17.8552    9.5884 C.ar      4 RES4    0.0000
    178 H57       10.3003   17.7001    9.4976 H         4 RES4    0.0000
    179 C122      11.8710   17.4272   10.7311 C.ar      4 RES4    0.0000
    180 H58       11.3789   17.0015   11.4244 H         4 RES4    0.0000
    181 C123      13.2602   17.6264   10.8637 C.ar      4 RES4    0.0000
    182 H59       13.7156   17.3151   11.6379 H         4 RES4    0.0000
    183 C124      13.9498   18.2694    9.8763 C.ar      4 RES4    0.0000
    184 H60       14.8833   18.4095    9.9860 H         4 RES4    0.0000
    185 C125      16.8508   19.7526    3.1290 C.ar      4 RES4    0.0000
    186 H61       17.5491   19.7807    3.7708 H         4 RES4    0.0000
    187 C126      17.1656   19.5938    1.8181 C.ar      4 RES4    0.0000
    188 H62       18.0747   19.5363    1.5505 H         4 RES4    0.0000
    189 C127      16.1526   19.5153    0.8726 C.ar      4 RES4    0.0000
    190 H63       16.3718   19.4000   -0.0454 H         4 RES4    0.0000
    191 C128      14.8357   19.6027    1.2505 C.ar      4 RES4    0.0000
    192 H64       14.1625   19.5168    0.5871 H         4 RES4    0.0000
    193 C129       3.2319   12.4720    8.9025 C.ar      5 RES5    0.0000
    194 C130       4.2749   12.7329    7.9781 C.ar      5 RES5    0.0000
    195 C131       3.7630   12.6639    6.6585 C.ar      5 RES5    0.0000
    196 C132       2.3911   12.3442    6.7591 C.ar      5 RES5    0.0000
    197 C133       2.0464   12.2445    8.1164 C.ar      5 RES5    0.0000
    198 C134       3.3892   12.0512   10.1787 C.ar      5 RES5    0.0000
    199 C135       4.8145   11.9629   10.6059 C.ar      5 RES5    0.0000
    200 C136       5.8731   12.2261    9.6551 C.ar      5 RES5    0.0000
    201 C137       5.6068   12.5640    8.2639 C.ar      5 RES5    0.0000
    202 C138       6.4516   12.5086    7.1130 C.ar      5 RES5    0.0000
    203 H65        7.3934   12.5203    7.2373 H         5 RES5    0.0000
    204 C139       5.9522   12.4396    5.8144 C.ar      5 RES5    0.0000
    205 H66        6.5578   12.3948    5.0837 H         5 RES5    0.0000
    206 C140       4.5350   12.4342    5.5561 C.ar      5 RES5    0.0000
    207 C141       3.7847   11.9926    4.3661 C.ar      5 RES5    0.0000
    208 C142       2.3788   11.6634    4.4641 C.ar      5 RES5    0.0000
    209 C143       1.6782   11.7508    5.7520 C.ar      5 RES5    0.0000
    210 C144       0.4588   11.1275    6.1920 C.ar      5 RES5    0.0000
    211 H67       -0.1388   10.7749    5.5427 H         5 RES5    0.0000
    212 C145       0.1290   11.0234    7.5186 C.ar      5 RES5    0.0000
    213 H68       -0.6894   10.6041    7.7550 H         5 RES5    0.0000
    214 C146       0.9752   11.5245    8.5655 C.ar      5 RES5    0.0000
    215 C147       0.9590   11.2819   10.0087 C.ar      5 RES5    0.0000
    216 C148       2.1254   11.6063   10.8298 C.ar      5 RES5    0.0000
    217 C149       5.2055   11.5198   11.8802 C.ar      5 RES5    0.0000
    218 H69        4.5291   11.3005   12.5105 H         5 RES5    0.0000
    219 C150       6.5167   11.3889   12.2557 C.ar      5 RES5    0.0000
    220 H70        6.7304   11.1015   13.1350 H         5 RES5    0.0000
    221 C151       7.5305   11.6742   11.3555 C.ar      5 RES5    0.0000
    222 H71        8.4388   11.5989   11.6219 H         5 RES5    0.0000
    223 C152       7.2190   12.0635   10.0890 C.ar      5 RES5    0.0000
    224 H72        7.9227   12.2326    9.4736 H         5 RES5    0.0000
    225 C153       4.4172   11.8275    3.1260 C.ar      5 RES5    0.0000
    226 H73        5.3389   12.0401    3.0422 H         5 RES5    0.0000
    227 C154       3.7313   11.3662    2.0287 C.ar      5 RES5    0.0000
    228 H74        4.1813   11.2637    1.1982 H         5 RES5    0.0000
    229 C155       2.3835   11.0500    2.1264 C.ar      5 RES5    0.0000
    230 H75        1.9170   10.7317    1.3637 H         5 RES5    0.0000
    231 C156       1.7282   11.1938    3.3142 C.ar      5 RES5    0.0000
    232 H76        0.8065   10.9696    3.3625 H         5 RES5    0.0000
    233 C157      -0.1801   10.7442   10.6238 C.ar      5 RES5    0.0000
    234 H77       -0.9188   10.4873   10.0821 H         5 RES5    0.0000
    235 C158      -0.2614   10.5768   11.9773 C.ar      5 RES5    0.0000
    236 H78       -1.0287   10.1737   12.3637 H         5 RES5    0.0000
    237 C159       0.7922   11.0029   12.7849 C.ar      5 RES5    0.0000
    238 H79        0.7112   10.9588   13.7301 H         5 RES5    0.0000
    239 C160       1.9533   11.4897   12.2156 C.ar      5 RES5    0.0000
    240 H80        2.6631   11.7568   12.7881 H         5 RES5    0.0000
    241 C161      15.9675   16.3501    4.5652 C.ar      6 RES6    0.0000
    242 C162      14.9181   16.3979    5.5387 C.ar      6 RES6    0.0000
    243 C163      15.4644   16.1016    6.7946 C.ar      6 RES6    0.0000
    244 C164      16.8496   15.8522    6.6334 C.ar      6 RES6    0.0000
    245 C165      17.1650   15.9930    5.2775 C.ar      6 RES6    0.0000
    246 C166      15.8041   16.1922    3.2354 C.ar      6 RES6    0.0000
    247 C167      14.3615   16.1901    2.8111 C.ar      6 RES6    0.0000
    248 C168      13.3084   16.2441    3.8121 C.ar      6 RES6    0.0000
    249 C169      13.5983   16.2731    5.2412 C.ar      6 RES6    0.0000
    250 C170      12.7670   15.9498    6.3748 C.ar      6 RES6    0.0000
    251 H81       11.8230   15.9375    6.2686 H         6 RES6    0.0000
    252 C171      13.3106   15.6569    7.6144 C.ar      6 RES6    0.0000
    253 H82       12.7242   15.4552    8.3341 H         6 RES6    0.0000
    254 C172      14.7255   15.6459    7.8495 C.ar      6 RES6    0.0000
    255 C173      15.5206   15.0540    8.9540 C.ar      6 RES6    0.0000
    256 C174      16.9440   14.8031    8.7857 C.ar      6 RES6    0.0000
    257 C175      17.6118   15.1249    7.5039 C.ar      6 RES6    0.0000
    258 C176      18.8218   14.6192    6.9526 C.ar      6 RES6    0.0000
    259 H83       19.4368   14.1770    7.5255 H         6 RES6    0.0000
    260 C177      19.1314   14.7514    5.6124 C.ar      6 RES6    0.0000
    261 H84       19.9509   14.3911    5.2946 H         6 RES6    0.0000
    262 C178      18.2579   15.4167    4.6821 C.ar      6 RES6    0.0000
    263 C179      18.2554   15.4577    3.2317 C.ar      6 RES6    0.0000
    264 C180      17.0639   15.8916    2.4960 C.ar      6 RES6    0.0000
    265 C181      13.9605   16.0620    1.4771 C.ar      6 RES6    0.0000
    266 H85       14.6261   16.0045    0.8006 H         6 RES6    0.0000
    267 C182      12.6211   16.0160    1.1083 C.ar      6 RES6    0.0000
    268 H86       12.3901   15.9461    0.1895 H         6 RES6    0.0000
    269 C183      11.6235   16.0700    2.0570 C.ar      6 RES6    0.0000
    270 H87       10.7105   16.0369    1.7960 H         6 RES6    0.0000
    271 C184      11.9637   16.1728    3.3830 C.ar      6 RES6    0.0000
    272 H88       11.2725   16.1970    4.0350 H         6 RES6    0.0000
    273 C185      14.9159   14.6290   10.1392 C.ar      6 RES6    0.0000
    274 H89       13.9857   14.7804   10.2635 H         6 RES6    0.0000
    275 C186      15.6340   13.9946   11.1367 C.ar      6 RES6    0.0000
    276 H90       15.1975   13.7141   11.9314 H         6 RES6    0.0000
    277 C187      17.0000   13.7647   10.9779 C.ar      6 RES6    0.0000
    278 H91       17.4928   13.3335   11.6672 H         6 RES6    0.0000
    279 C188      17.6366   14.1661    9.8171 C.ar      6 RES6    0.0000
    280 H92       18.5686   14.0039    9.7191 H         6 RES6    0.0000
    281 C189      19.3997   15.0983    2.5000 C.ar      6 RES6    0.0000
    282 H93       20.1649   14.7890    2.9702 H         6 RES6    0.0000
    283 C190      19.4498   15.1762    1.1411 C.ar      6 RES6    0.0000
    284 H94       20.2267   14.8928    0.6752 H         6 RES6    0.0000
    285 C191      18.3616   15.6697    0.4441 C.ar      6 RES6    0.0000
    286 H95       18.4095   15.7731   -0.4990 H         6 RES6    0.0000
    287 C192      17.2012   16.0119    1.1187 C.ar      6 RES6    0.0000
    288 H96       16.4669   16.3441    0.6165 H         6 RES6    0.0000
    289 C193       6.4460    8.8401    9.2273 C.ar      7 RES7    0.0000
    290 C194       7.5105    8.6634    8.3013 C.ar      7 RES7    0.0000
    291 C195       6.9996    8.8193    6.9993 C.ar      7 RES7    0.0000
    292 C196       5.6080    9.1128    7.1033 C.ar      7 RES7    0.0000
    293 C197       5.2614    9.1068    8.4563 C.ar      7 RES7    0.0000
    294 C198       6.4391    8.3771   10.5053 C.ar      7 RES7    0.0000
    295 C199       7.7971    7.9454   10.9758 C.ar      7 RES7    0.0000
    296 C200       8.8292    7.6439    9.9977 C.ar      7 RES7    0.0000
    297 C201       8.6420    7.9456    8.5756 C.ar      7 RES7    0.0000
    298 C202       9.3502    7.4866    7.4148 C.ar      7 RES7    0.0000
    299 H97       10.1844    7.0485    7.5282 H         7 RES7    0.0000
    300 C203       8.8568    7.6623    6.1376 C.ar      7 RES7    0.0000
    301 H98        9.3777    7.3642    5.4013 H         7 RES7    0.0000
    302 C204       7.5945    8.2735    5.8811 C.ar      7 RES7    0.0000
    303 C205       6.7183    8.2280    4.6864 C.ar      7 RES7    0.0000
    304 C206       5.3131    8.5204    4.7921 C.ar      7 RES7    0.0000
    305 C207       4.7044    8.8851    6.0853 C.ar      7 RES7    0.0000
    306 C208       3.3398    8.8371    6.5261 C.ar      7 RES7    0.0000
    307 H99        2.6445    8.8133    5.8790 H         7 RES7    0.0000
    308 C209       3.0110    8.8256    7.8748 C.ar      7 RES7    0.0000
    309 H100       2.0938    8.7808    8.1206 H         7 RES7    0.0000
    310 C210       3.9996    8.8784    8.9057 C.ar      7 RES7    0.0000
    311 C211       3.8990    8.4826   10.3265 C.ar      7 RES7    0.0000
    312 C212       5.0983    8.2371   11.1052 C.ar      7 RES7    0.0000
    313 C213       8.1374    7.7782   12.3146 C.ar      7 RES7    0.0000
    314 H101       7.5123    8.0369   12.9802 H         7 RES7    0.0000
    315 C214       9.3494    7.2492   12.7088 C.ar      7 RES7    0.0000
    316 H102       9.5480    7.1653   13.6340 H         7 RES7    0.0000
    317 C215      10.2736    6.8426   11.7716 C.ar      7 RES7    0.0000
    318 H103      11.0794    6.4213   12.0462 H         7 RES7    0.0000
    319 C216      10.0254    7.0489   10.4442 C.ar      7 RES7    0.0000
    320 H104      10.6771    6.7846    9.8045 H         7 RES7    0.0000
    321 C217       7.2197    7.8039    3.4575 C.ar      7 RES7    0.0000
    322 H105       8.1453    7.6043    3.3785 H         7 RES7    0.0000
    323 C218       6.4067    7.6662    2.3561 C.ar      7 RES7    0.0000
    324 H106       6.7720    7.3794    1.5265 H         7 RES7    0.0000
    325 C219       5.0435    7.9456    2.4551 C.ar      7 RES7    0.0000
    326 H107       4.4788    7.8379    1.6972 H         7 RES7    0.0000
    327 C220       4.5179    8.3771    3.6509 C.ar      7 RES7    0.0000
    328 H108       3.5916    8.5819    3.7014 H         7 RES7    0.0000
    329 C221       2.6501    8.2609   10.8976 C.ar      7 RES7    0.0000
    330 H109       1.8722    8.4240   10.3783 H         7 RES7    0.0000
    331 C222       2.5040    7.8150   12.1895 C.ar      7 RES7    0.0000
    332 H110       1.6393    7.6951   12.5639 H         7 RES7    0.0000
    333 C223       3.6354    7.5448   12.9372 C.ar      7 RES7    0.0000
    334 H111       3.5468    7.2172   13.8235 H         7 RES7    0.0000
    335 C224       4.8893    7.7488   12.4062 C.ar      7 RES7    0.0000
    336 H112       5.6468    7.5502   12.9428 H         7 RES7    0.0000
    337 C225      12.8349   12.7582    4.7245 C.ar      8 RES8    0.0000
    338 C226      11.6130   12.4506    5.4157 C.ar      8 RES8    0.0000
    339 C227      11.8722   12.3168    6.7727 C.ar      8 RES8    0.0000
    340 C228      13.2726   12.5131    6.9702 C.ar      8 RES8    0.0000
    341 C229      13.8501   12.7833    5.7173 C.ar      8 RES8    0.0000
    342 C230      13.0275   12.6094    3.3945 C.ar      8 RES8    0.0000
    343 C231      11.7621   12.3473    2.6337 C.ar      8 RES8    0.0000
    344 C232      10.5582   11.9504    3.3387 C.ar      8 RES8    0.0000
    345 C233      10.5127   11.8989    4.7913 C.ar      8 RES8    0.0000
    346 C234       9.5935   11.2579    5.6986 C.ar      8 RES8    0.0000
    347 H113       8.7790   10.9112    5.3559 H         8 RES8    0.0000
    348 C235       9.8559   11.1290    7.0502 C.ar      8 RES8    0.0000
    349 H114       9.2082   10.7144    7.6083 H         8 RES8    0.0000
    350 C236      11.0887   11.6087    7.6413 C.ar      8 RES8    0.0000
    351 C237      11.7173   11.3093    8.9364 C.ar      8 RES8    0.0000
    352 C238      13.1227   11.5243    9.1424 C.ar      8 RES8    0.0000
    353 C239      13.9684   12.0620    8.0510 C.ar      8 RES8    0.0000
    354 C240      15.3884   12.0239    7.8487 C.ar      8 RES8    0.0000
    355 H115      15.9523   11.8109    8.5823 H         8 RES8    0.0000
    356 C241      15.9671   12.2882    6.6105 C.ar      8 RES8    0.0000
    357 H116      16.9127   12.2607    6.5301 H         8 RES8    0.0000
    358 C242      15.1795   12.5996    5.4536 C.ar      8 RES8    0.0000
    359 C243      15.5074   12.5413    4.0211 C.ar      8 RES8    0.0000
    360 C244      14.4588   12.5341    3.0022 C.ar      8 RES8    0.0000
    361 C245      11.6578   12.4926    1.2478 C.ar      8 RES8    0.0000
    362 H117      12.4122   12.8101    0.7659 H         8 RES8    0.0000
    363 C246      10.4992   12.1930    0.5425 C.ar      8 RES8    0.0000
    364 H118      10.4679   12.3126   -0.4003 H         8 RES8    0.0000
    365 C247       9.3812   11.7144    1.2246 C.ar      8 RES8    0.0000
    366 H119       8.6023   11.4627    0.7445 H         8 RES8    0.0000
    367 C248       9.4132   11.6085    2.5891 C.ar      8 RES8    0.0000
    368 H120       8.6406   11.2961    3.0449 H         8 RES8    0.0000
    369 C249      10.9760   10.7120    9.9679 C.ar      8 RES8    0.0000
    370 H121      10.0475   10.5608    9.8366 H         8 RES8    0.0000
    371 C250      11.5468   10.3406   11.1538 C.ar      8 RES8    0.0000
    372 H122      11.0181    9.9466   11.8380 H         8 RES8    0.0000
    373 C251      12.9211   10.5461   11.3491 C.ar      8 RES8    0.0000
    374 H123      13.3297   10.2840   12.1663 H         8 RES8    0.0000
    375 C252      13.6736   11.1279   10.3601 C.ar      8 RES8    0.0000
    376 H124      14.6013   11.2659   10.5090 H         8 RES8    0.0000
    377 C253      16.8387   12.4158    3.6243 C.ar      8 RES8    0.0000
    378 H125      17.5154   12.4013    4.2912 H         8 RES8    0.0000
    379 C254      17.2040   12.3114    2.3081 C.ar      8 RES8    0.0000
    380 H126      18.1219   12.2521    2.0682 H         8 RES8    0.0000
    381 C255      16.2204   12.2940    1.3298 C.ar      8 RES8    0.0000
    382 H127      16.4673   12.2153    0.4163 H         8 RES8    0.0000
    383 C256      14.8933   12.3912    1.6722 C.ar      8 RES8    0.0000
    384 H128      14.2427   12.3602    0.9821 H         8 RES8    0.0000
    385 C257       3.1786    5.2320    8.9023 C.ar      9 RES9    0.0000
    386 C258       4.3490    5.4930    8.1631 C.ar      9 RES9    0.0000
    387 C259       4.0480    5.4573    6.7927 C.ar      9 RES9    0.0000
    388 C260       2.6608    5.1509    6.6561 C.ar      9 RES9    0.0000
    389 C261       2.1306    5.0142    7.9480 C.ar      9 RES9    0.0000
    390 C262       3.1264    4.7920   10.1899 C.ar      9 RES9    0.0000
    391 C263       4.4627    4.6882   10.8429 C.ar      9 RES9    0.0000
    392 C264       5.6737    4.9441   10.0738 C.ar      9 RES9    0.0000
    393 C265       5.6122    5.2875    8.6570 C.ar      9 RES9    0.0000
    394 C266       6.6242    5.2181    7.6387 C.ar      9 RES9    0.0000
    395 H129       7.5366    5.1950    7.9045 H         9 RES9    0.0000
    396 C267       6.3260    5.1855    6.2926 C.ar      9 RES9    0.0000
    397 H130       7.0381    5.1431    5.6655 H         9 RES9    0.0000
    398 C268       4.9827    5.2118    5.8080 C.ar      9 RES9    0.0000
    399 C269       4.4098    4.8139    4.5057 C.ar      9 RES9    0.0000
    400 C270       3.0031    4.5243    4.3725 C.ar      9 RES9    0.0000
    401 C271       2.1074    4.5987    5.5395 C.ar      9 RES9    0.0000
    402 C272       0.8254    3.9713    5.7672 C.ar      9 RES9    0.0000
    403 H131       0.3242    3.6572    5.0224 H         9 RES9    0.0000
    404 C273       0.3095    3.8169    7.0390 C.ar      9 RES9    0.0000
    405 H132      -0.5305    3.3847    7.1466 H         9 RES9    0.0000
    406 C274       1.0028    4.2888    8.2044 C.ar      9 RES9    0.0000
    407 C275       0.7808    3.9968    9.6292 C.ar      9 RES9    0.0000
    408 C276       1.7898    4.3299   10.6243 C.ar      9 RES9    0.0000
    409 C277       4.6356    4.2604   12.1553 C.ar      9 RES9    0.0000
    410 H133       3.8665    4.0595   12.6760 H         9 RES9    0.0000
    411 C278       5.8875    4.1151   12.7352 C.ar      9 RES9    0.0000
    412 H134       5.9594    3.8303   13.6393 H         9 RES9    0.0000
    413 C279       7.0323    4.3837   12.0043 C.ar      9 RES9    0.0000
    414 H135       7.8887    4.3017   12.4064 H         9 RES9    0.0000
    415 C280       6.9143    4.7657   10.7028 C.ar      9 RES9    0.0000
    416 H136       7.7058    4.9181   10.1995 H         9 RES9    0.0000
    417 C281       5.2417    4.6285    3.3985 C.ar      9 RES9    0.0000
    418 H137       6.1737    4.7970    3.4799 H         9 RES9    0.0000
    419 C282       4.7302    4.2031    2.1832 C.ar      9 RES9    0.0000
    420 H138       5.3090    4.0941    1.4384 H         9 RES9    0.0000
    421 C283       3.3803    3.9375    2.0455 C.ar      9 RES9    0.0000
    422 H139       3.0358    3.6421    1.2116 H         9 RES9    0.0000
    423 C284       2.5357    4.1032    3.1266 C.ar      9 RES9    0.0000
    424 H140       1.6080    3.9254    3.0182 H         9 RES9    0.0000
    425 C285      -0.4097    3.3973   10.0476 C.ar      9 RES9    0.0000
    426 H141      -1.0446    3.1339    9.3909 H         9 RES9    0.0000
    427 C286      -0.6996    3.1717   11.3777 C.ar      9 RES9    0.0000
    428 H142      -1.4990    2.7251   11.6299 H         9 RES9    0.0000
    429 C287       0.2012    3.6094   12.3405 C.ar      9 RES9    0.0000
    430 H143      -0.0138    3.5232   13.2631 H         9 RES9    0.0000
    431 C288       1.4060    4.1690   11.9640 C.ar      9 RES9    0.0000
    432 H144       2.0030    4.4596   12.6439 H         9 RES9    0.0000
    433 C289      12.8522    5.5858    5.0779 C.ar     10 RES10   0.0000
    434 C290      11.7820    5.2421    5.9596 C.ar     10 RES10   0.0000
    435 C291      12.2747    5.1137    7.2648 C.ar     10 RES10   0.0000
    436 C292      13.6871    5.3803    7.2133 C.ar     10 RES10   0.0000
    437 C293      14.0280    5.6546    5.8851 C.ar     10 RES10   0.0000
    438 C294      12.8432    5.4050    3.7337 C.ar     10 RES10   0.0000
    439 C295      11.4821    5.0834    3.2010 C.ar     10 RES10   0.0000
    440 C296      10.4282    4.6244    4.1011 C.ar     10 RES10   0.0000
    441 C297      10.6205    4.6236    5.5425 C.ar     10 RES10   0.0000
    442 C298       9.8955    3.9659    6.5987 C.ar     10 RES10   0.0000
    443 H145       9.0486    3.5837    6.3994 H        10 RES10   0.0000
    444 C299      10.3790    3.8677    7.8831 C.ar     10 RES10   0.0000
    445 H146       9.8476    3.4410    8.5449 H        10 RES10   0.0000
    446 C300      11.6742    4.3960    8.2535 C.ar     10 RES10   0.0000
    447 C301      12.5396    4.0766    9.4074 C.ar     10 RES10   0.0000
    448 C302      13.9621    4.3253    9.3466 C.ar     10 RES10   0.0000
    449 C303      14.5785    4.9233    8.1516 C.ar     10 RES10   0.0000
    450 C304      15.9392    4.9380    7.6985 C.ar     10 RES10   0.0000
    451 H147      16.6304    4.7516    8.3234 H        10 RES10   0.0000
    452 C305      16.2829    5.2123    6.3943 C.ar     10 RES10   0.0000
    453 H148      17.2003    5.2080    6.1485 H        10 RES10   0.0000
    454 C306      15.2961    5.5062    5.3914 C.ar     10 RES10   0.0000
    455 C307      15.3831    5.4184    3.9373 C.ar     10 RES10   0.0000
    456 C308      14.1941    5.3459    3.1092 C.ar     10 RES10   0.0000
    457 C309      11.1283    5.2038    1.8518 C.ar     10 RES10   0.0000
    458 H149      11.7606    5.5843    1.2543 H        10 RES10   0.0000
    459 C310       9.9085    4.7985    1.3423 C.ar     10 RES10   0.0000
    460 H150       9.7176    4.9030    0.4163 H        10 RES10   0.0000
    461 C311       8.9656    4.2390    2.1907 C.ar     10 RES10   0.0000
    462 H151       8.1480    3.9038    1.8387 H        10 RES10   0.0000
    463 C312       9.2142    4.1696    3.5397 C.ar     10 RES10   0.0000
    464 H152       8.5502    3.8043    4.1124 H        10 RES10   0.0000
    465 C313      12.0176    3.4403   10.5451 C.ar     10 RES10   0.0000
    466 H153      11.0838    3.2723   10.5998 H        10 RES10   0.0000
    467 C314      12.8455    3.0534   11.5920 C.ar     10 RES10   0.0000
    468 H154      12.4746    2.6234   12.3531 H        10 RES10   0.0000
    469 C315      14.2106    3.2926   11.5285 C.ar     10 RES10   0.0000
    470 H155      14.7734    3.0257   12.2463 H        10 RES10   0.0000
    471 C316      14.7541    3.9166   10.4279 C.ar     10 RES10   0.0000
    472 H156      15.6911    4.0747   10.3996 H        10 RES10   0.0000
    473 C317      16.6375    5.2910    3.3176 C.ar     10 RES10   0.0000
    474 H157      17.4219    5.3269    3.8535 H        10 RES10   0.0000
    475 C318      16.7616    5.1173    1.9732 C.ar     10 RES10   0.0000
    476 H158      17.6242    5.0717    1.5772 H        10 RES10   0.0000
    477 C319      15.6279    5.0085    1.1803 C.ar     10 RES10   0.0000
    478 H159      15.7167    4.8597    0.2455 H        10 RES10   0.0000
    479 C320      14.3771    5.1158    1.7431 C.ar     10 RES10   0.0000
    480 H160      13.6128    5.0306    1.1849 H        10 RES10   0.0000
    481 C321       6.4758    1.7259    8.6944 C.ar     11 RES11   0.0000
    482 C322       7.5115    1.5418    7.7289 C.ar     11 RES11   0.0000
    483 C323       6.9570    1.6472    6.4485 C.ar     11 RES11   0.0000
    484 C324       5.5685    1.8965    6.5795 C.ar     11 RES11   0.0000
    485 C325       5.2681    1.9372    7.9616 C.ar     11 RES11   0.0000
    486 C326       6.5392    1.3104    9.9892 C.ar     11 RES11   0.0000
    487 C327       7.9086    0.8941   10.4100 C.ar     11 RES11   0.0000
    488 C328       8.9105    0.5835    9.4168 C.ar     11 RES11   0.0000
    489 C329       8.6762    0.8504    7.9872 C.ar     11 RES11   0.0000
    490 C330       9.3569    0.3967    6.8167 C.ar     11 RES11   0.0000
    491 H161      10.2105   -0.0087    6.9117 H        11 RES11   0.0000
    492 C331       8.8147    0.5260    5.5486 C.ar     11 RES11   0.0000
    493 H162       9.3171    0.2184    4.8035 H        11 RES11   0.0000
    494 C332       7.5358    1.1013    5.3215 C.ar     11 RES11   0.0000
    495 C333       6.6278    0.9717    4.1649 C.ar     11 RES11   0.0000
    496 C334       5.2131    1.2075    4.3189 C.ar     11 RES11   0.0000
    497 C335       4.6408    1.6026    5.6113 C.ar     11 RES11   0.0000
    498 C336       3.2996    1.5159    6.1074 C.ar     11 RES11   0.0000
    499 H163       2.5893    1.4296    5.4840 H        11 RES11   0.0000
    500 C337       2.9963    1.5527    7.4551 C.ar     11 RES11   0.0000
    501 H164       2.0887    1.4858    7.7257 H        11 RES11   0.0000
    502 C338       4.0212    1.6883    8.4582 C.ar     11 RES11   0.0000
    503 C339       3.9883    1.3576    9.8902 C.ar     11 RES11   0.0000
    504 C340       5.2118    1.1709   10.6398 C.ar     11 RES11   0.0000
    505 C341       8.2965    0.7485   11.7417 C.ar     11 RES11   0.0000
    506 H165       7.6942    1.0338   12.4198 H        11 RES11   0.0000
    507 C342       9.5061    0.2135   12.1260 C.ar     11 RES11   0.0000
    508 H166       9.7223    0.1341   13.0469 H        11 RES11   0.0000
    509 C343      10.4114   -0.2109   11.1522 C.ar     11 RES11   0.0000
    510 H167      11.2210   -0.6380   11.4030 H        11 RES11   0.0000
    511 C344      10.1172   -0.0026    9.8285 C.ar     11 RES11   0.0000
    512 H168      10.7494   -0.2639    9.1694 H        11 RES11   0.0000
    513 C345       7.1074    0.5424    2.9312 C.ar     11 RES11   0.0000
    514 H169       8.0404    0.4088    2.8181 H        11 RES11   0.0000
    515 C346       6.2593    0.3054    1.8622 C.ar     11 RES11   0.0000
    516 H170       6.6073    0.0043    1.0301 H        11 RES11   0.0000
    517 C347       4.8931    0.5113    2.0177 C.ar     11 RES11   0.0000
    518 H171       4.3063    0.3482    1.2889 H        11 RES11   0.0000
    519 C348       4.3849    0.9495    3.2176 C.ar     11 RES11   0.0000
    520 H172       3.4479    1.0814    3.3038 H        11 RES11   0.0000
    521 C349       2.7545    1.1636   10.5301 C.ar     11 RES11   0.0000
    522 H173       1.9537    1.2890   10.0340 H        11 RES11   0.0000
    523 C350       2.6657    0.7994   11.8458 C.ar     11 RES11   0.0000
    524 H174       1.8169    0.7007   12.2623 H        11 RES11   0.0000
    525 C351       3.8390    0.5757   12.5698 C.ar     11 RES11   0.0000
    526 H175       3.7919    0.3028   13.4792 H        11 RES11   0.0000
    527 C352       5.0541    0.7488   11.9733 C.ar     11 RES11   0.0000
    528 H176       5.8344    0.5753   12.4865 H        11 RES11   0.0000
    529 C353      16.0735    1.9766    4.7926 C.ar     12 RES12   0.0000
    530 C354      14.9089    2.0789    5.5974 C.ar     12 RES12   0.0000
    531 C355      15.2521    1.7787    6.9408 C.ar     12 RES12   0.0000
    532 C356      16.6421    1.4899    6.9721 C.ar     12 RES12   0.0000
    533 C357      17.1493    1.6048    5.6695 C.ar     12 RES12   0.0000
    534 C358      16.0886    1.7916    3.4513 C.ar     12 RES12   0.0000
    535 C359      14.7309    1.7869    2.8426 C.ar     12 RES12   0.0000
    536 C360      13.5406    1.9004    3.6686 C.ar     12 RES12   0.0000
    537 C361      13.6261    1.9718    5.1134 C.ar     12 RES12   0.0000
    538 C362      12.6421    1.6958    6.1256 C.ar     12 RES12   0.0000
    539 H177      11.7217    1.7172    5.8870 H        12 RES12   0.0000
    540 C363      12.9861    1.4019    7.4303 C.ar     12 RES12   0.0000
    541 H178      12.2973    1.2328    8.0619 H        12 RES12   0.0000
    542 C364      14.3472    1.3457    7.8570 C.ar     12 RES12   0.0000
    543 C365      14.9539    0.7064    9.0506 C.ar     12 RES12   0.0000
    544 C366      16.3715    0.4388    9.1083 C.ar     12 RES12   0.0000
    545 C367      17.2342    0.7470    7.9546 C.ar     12 RES12   0.0000
    546 C368      18.5086    0.2154    7.5888 C.ar     12 RES12   0.0000
    547 H179      19.0313   -0.2163    8.2541 H        12 RES12   0.0000
    548 C369      19.0162    0.3052    6.2969 C.ar     12 RES12   0.0000
    549 H180      19.8629   -0.0779    6.1031 H        12 RES12   0.0000
    550 C370      18.2867    0.9672    5.2436 C.ar     12 RES12   0.0000
    551 C371      18.4662    0.9700    3.7977 C.ar     12 RES12   0.0000
    552 C372      17.4289    1.4380    2.9016 C.ar     12 RES12   0.0000
    553 C373      14.5100    1.5795    1.4675 C.ar     12 RES12   0.0000
    554 H181      15.2651    1.4664    0.9020 H        12 RES12   0.0000
    555 C374      13.2533    1.5319    0.9012 C.ar     12 RES12   0.0000
    556 H182      13.1587    1.3907   -0.0347 H        12 RES12   0.0000
    557 C375      12.1237    1.6906    1.7004 C.ar     12 RES12   0.0000
    558 H183      11.2561    1.6891    1.3103 H        12 RES12   0.0000
    559 C376      12.2757    1.8492    3.0590 C.ar     12 RES12   0.0000
    560 H184      11.5005    1.9270    3.6026 H        12 RES12   0.0000
    561 C377      14.1665    0.2768   10.1200 C.ar     12 RES12   0.0000
    562 H185      13.2313    0.4412   10.0981 H        12 RES12   0.0000
    563 C378      14.7036   -0.3815   11.2096 C.ar     12 RES12   0.0000
    564 H186      14.1406   -0.6705   11.9181 H        12 RES12   0.0000
    565 C379      16.0685   -0.6183   11.2645 C.ar     12 RES12   0.0000
    566 H187      16.4391   -1.0576   12.0222 H        12 RES12   0.0000
    567 C380      16.8914   -0.2264   10.2368 C.ar     12 RES12   0.0000
    568 H188      17.8225   -0.4066   10.2876 H        12 RES12   0.0000
    569 C381      19.6744    0.5041    3.2386 C.ar     12 RES12   0.0000
    570 H189      20.3405    0.1449    3.8135 H        12 RES12   0.0000
    571 C382      19.9161    0.5552    1.8891 C.ar     12 RES12   0.0000
    572 H190      20.7219    0.1990    1.5345 H        12 RES12   0.0000
    573 C383      18.9766    1.1309    1.0448 C.ar     12 RES12   0.0000
    574 H191      19.1669    1.2349    0.1201 H        12 RES12   0.0000
    575 C384      17.7636    1.5505    1.5539 C.ar     12 RES12   0.0000
    576 H192      17.1286    1.9335    0.9580 H        12 RES12   0.0000
@<TRIPOS>BOND
     1    1    2 ar
     2    2    3 ar
     3    3    4 ar
     4    4    5 ar
     5    5    1 ar
     6    6    1 ar
     7    7    6 ar
     8    8    7 ar
     9    9    2 ar
    10   10    9 ar
    11   11   10 1
    12   12   10 ar
    13   13   12 1
    14   14    3 ar
    15   15   14 ar
    16   16   15 ar
    17   17    4 ar
    18   18   17 ar
    19   19   18 1
    20   20   18 ar
    21   21   20 1
    22   22    5 ar
    23   23   22 ar
    24   24    6 ar
    25   25    7 ar
    26   26   25 1
    27   27   25 ar
    28   28   27 1
    29   29   27 ar
    30   30   29 1
    31   31    8 ar
    32   32   31 1
    33   33   15 ar
    34   34   33 1
    35   35   33 ar
    36   36   35 1
    37   37   35 ar
    38   38   37 1
    39   39   16 ar
    40   40   39 1
    41   41   23 ar
    42   42   41 1
    43   43   41 ar
    44   44   43 1
    45   45   43 ar
    46   46   45 1
    47   47   24 ar
    48   48   47 1
    49   49   50 ar
    50   50   51 ar
    51   51   52 ar
    52   52   53 ar
    53   53   49 ar
    54   54   49 ar
    55   55   54 ar
    56   56   55 ar
    57   57   50 ar
    58   58   57 ar
    59   59   58 1
    60   60   58 ar
    61   61   60 1
    62   62   51 ar
    63   63   62 ar
    64   64   63 ar
    65   65   52 ar
    66   66   65 ar
    67   67   66 1
    68   68   66 ar
    69   69   68 1
    70   70   53 ar
    71   71   70 ar
    72   72   54 ar
    73   73   55 ar
    74   74   73 1
    75   75   73 ar
    76   76   75 1
    77   77   75 ar
    78   78   77 1
    79   79   56 ar
    80   80   79 1
    81   81   63 ar
    82   82   81 1
    83   83   81 ar
    84   84   83 1
    85   85   83 ar
    86   86   85 1
    87   87   64 ar
    88   88   87 1
    89   89   71 ar
    90   90   89 1
    91   91   89 ar
    92   92   91 1
    93   93   91 ar
    94   94   93 1
    95   95   72 ar
    96   96   95 1
    97   97   98 ar
    98   98   99 ar
    99   99  100 ar
   100  100  101 ar
   101  101   97 ar
   102  102   97 ar
   103  103  102 ar
   104  104  103 ar
   105  105   98 ar
   106  106  105 ar
   107  107  106 1
   108  108  106 ar
   109  109  108 1
   110  110   99 ar
   111  111  110 ar
   112  112  111 ar
   113  113  100 ar
   114  114  113 ar
   115  115  114 1
   116  116  114 ar
   117  117  116 1
   118  118  101 ar
   119  119  118 ar
   120  120  102 ar
   121  121  103 ar
   122  122  121 1
   123  123  121 ar
   124  124  123 1
   125  125  123 ar
   126  126  125 1
   127  127  104 ar
   128  128  127 1
   129  129  111 ar
   130  130  129 1
   131  131  129 ar
   132  132  131 1
   133  133  131 ar
   134  134  133 1
   135  135  112 ar
   136  136  135 1
   137  137  119 ar
   138  138  137 1
   139  139  137 ar
   140  140  139 1
   141  141  139 ar
   142  142  141 1
   143  143  120 ar
   144  144  143 1
   145  145  146 ar
   146  146  147 ar
   147  147  148 ar
   148  148  149 ar
   149  149  145 ar
   150  150  145 ar
   151  151  150 ar
   152  152  151 ar
   153  153  146 ar
   154  154  153 ar
   155  155  154 1
   156  156  154 ar
   157  157  156 1
   158  158  147 ar
   159  159  158 ar
   160  160  159 ar
   161  161  148 ar
   162  162  161 ar
   163  163  162 1
   164  164  162 ar
   165  165  164 1
   166  166  149 ar
   167  167  166 ar
   168  168  150 ar
   169  169  151 ar
   170  170  169 1
   171  171  169 ar
   172  172  171 1
   173  173  171 ar
   174  174  173 1
   175  175  152 ar
   176  176  175 1
   177  177  159 ar
   178  178  177 1
   179  179  177 ar
   180  180  179 1
   181  181  179 ar
   182  182  181 1
   183  183  160 ar
   184  184  183 1
   185  185  167 ar
   186  186  185 1
   187  187  185 ar
   188  188  187 1
   189  189  187 ar
   190  190  189 1
   191  191  168 ar
   192  192  191 1
   193  193  194 ar
   194  194  195 ar
   195  195  196 ar
   196  196  197 ar
   197  197  193 ar
   198  198  193 ar
   199  199  198 ar
   200  200  199 ar
   201  201  194 ar
   202  202  201 ar
   203  203  202 1
   204  204  202 ar
   205  205  204 1
   206  206  195 ar
   207  207  206 ar
   208  208  207 ar
   209  209  196 ar
   210  210  209 ar
   211  211  210 1
   212  212  210 ar
   213  213  212 1
   214  214  197 ar
   215  215  214 ar
   216  216  198 ar
   217  217  199 ar
   218  218  217 1
   219  219  217 ar
   220  220  219 1
   221  221  219 ar
   222  222  221 1
   223  223  200 ar
   224  224  223 1
   225  225  207 ar
   226  226  225 1
   227  227  225 ar
   228  228  227 1
   229  229  227 ar
   230  230  229 1
   231  231  208 ar
   232  232  231 1
   233  233  215 ar
   234  234  233 1
   235  235  233 ar
   236  236  235 1
   237  237  235 ar
   238  238  237 1
   239  239  216 ar
   240  240  239 1
   241  241  242 ar
   242  242  243 ar
   243  243  244 ar
   244  244  245 ar
   245  245  241 ar
   246  246  241 ar
   247  247  246 ar
   248  248  247 ar
   249  249  242 ar
   250  250  249 ar
   251  251  250 1
   252  252  250 ar
   253  253  252 1
   254  254  243 ar
   255  255  254 ar
   256  256  255 ar
   257  257  244 ar
   258  258  257 ar
   259  259  258 1
   260  260  258 ar
   261  261  260 1
   262  262  245 ar
   263  263  262 ar
   264  264  246 ar
   265  265  247 ar
   266  266  265 1
   267  267  265 ar
   268  268  267 1
   269  269  267 ar
   270  270  269 1
   271  271  248 ar
   272  272  271 1
   273  273  255 ar
   274  274  273 1
   275  275  273 ar
   276  276  275 1
   277  277  275 ar
   278  278  277 1
   279  279  256 ar
   280  280  279 1
   281  281  263 ar
   282  282  281 1
   283  283  281 ar
   284  284  283 1
   285  285  283 ar
   286  286  285 1
   287  287  264 ar
   288  288  287 1
   289  289  290 ar
   290  290  291 ar
   291  291  292 ar
   292  292  293 ar
   293  293  289 ar
   294  294  289 ar
   295  295  294 ar
   296  296  295 ar
   297  297  290 ar
   298  298  297 ar
   299  299  298 1
   300  300  298 ar
   301  301  300 1
   302  302  291 ar
   303  303  302 ar
   304  304  303 ar
   305  305  292 ar
   306  306  305 ar
   307  307  306 1
   308  308  306 ar
   309  309  308 1
   310  310  293 ar
   311  311  310 ar
   312  312  294 ar
   313  313  295 ar
   314  314  313 1
   315  315  313 ar
   316  316  315 1
   317  317  315 ar
   318  318  317 1
   319  319  296 ar
   320  320  319 1
   321  321  303 ar
   322  322  321 1
   323  323  321 ar
   324  324  323 1
   325  325  323 ar
   326  326  325 1
   327  327  304 ar
   328  328  327 1
   329  329  311 ar
   330  330  329 1
   331  331  329 ar
   332  332  331 1
   333  333  331 ar
   334  334  333 1
   335  335  312 ar
   336  336  335 1
   337  337  338 ar
   338  338  339 ar
   339  339  340 ar
   340  340  341 ar
   341  341  337 ar
   342  342  337 ar
   343  343  342 ar
   344  344  343 ar
   345  345  338 ar
   346  346  345 ar
   347  347  346 1
   348  348  346 ar
   349  349  348 1
   350  350  339 ar
   351  351  350 ar
   352  352  351 ar
   353  353  340 ar
   354  354  353 ar
   355  355  354 1
   356  356  354 ar
   357  357  356 1
   358  358  341 ar
   359  359  358 ar
   360  360  342 ar
   361  361  343 ar
   362  362  361 1
   363  363  361 ar
   364  364  363 1
   365  365  363 ar
   366  366  365 1
   367  367  344 ar
   368  368  367 1
   369  369  351 ar
   370  370  369 1
   371  371  369 ar
   372  372  371 1
   373  373  371 ar
   374  374  373 1
   375  375  352 ar
   376  376  375 1
   377  377  359 ar
   378  378  377 1
   379  379  377 ar
   380  380  379 1
   381  381  379 ar
   382  382  381 1
   383  383  360 ar
   384  384  383 1
   385  385  386 ar
   386  386  387 ar
   387  387  388 ar
   388  388  389 ar
   389  389  385 ar
   390  390  385 ar
   391  391  390 ar
   392  392  391 ar
   393  393  386 ar
   394  394  393 ar
   395  395  394 1
   396  396  394 ar
   397  397  396 1
   398  398  387 ar
   399  399  398 ar
   400  400  399 ar
   401  401  388 ar
   402  402  401 ar
   403  403  402 1
   404  404  402 ar
   405  405  404 1
   406  406  389 ar
   407  407  406 ar
   408  408  390 ar
   409  409  391 ar
   410  410  409 1
   411  411  409 ar
   412  412  411 1
   413  413  411 ar
   414  414  413 1
   415  415  392 ar
   416  416  415 1
   417  417  399 ar
   418  418  417 1
   419  419  417 ar
   420  420  419 1
   421  421  419 ar
   422  422  421 1
   423  423  400 ar
   424  424  423 1
   425  425  407 ar
   426  426  425 1
   427  427  425 ar
   428  428  427 1
   429  429  427 ar
   430  430  429 1
   431  431  408 ar
   432  432  431 1
   433  433  434 ar
   434  434  435 ar
   435  435  436 ar
   436  436  437 ar
   437  437  433 ar
   438  438  433 ar
   439  439  438 ar
   440  440  439 ar
   441  441  434 ar
   442  442  441 ar
   443  443  442 1
   444  444  442 ar
   445  445  444 1
   446  446  435 ar
   447  447  446 ar
   448  448  447 ar
   449  449  436 ar
   450  450  449 ar
   451  451  450 1
   452  452  450 ar
   453  453  452 1
   454  454  437 ar
   455  455  454 ar
   456  456  438 ar
   457  457  439 ar
   458  458  457 1
   459  459  457 ar
   460  460  459 1
   461  461  459 ar
   462  462  461 1
   463  463  440 ar
   464  464  463 1
   465  465  447 ar
   466  466  465 1
   467  467  465 ar
   468  468  467 1
   469  469  467 ar
   470  470  469 1
   471  471  448 ar
   472  472  471 1
   473  473  455 ar
   474  474  473 1
   475  475  473 ar
   476  476  475 1
   477  477  475 ar
   478  478  477 1
   479  479  456 ar
   480  480  479 1
   481  481  482 ar
   482  482  483 ar
   483  483  484 ar
   484  484  485 ar
   485  485  481 ar
   486  486  481 ar
   487  487  486 ar
   488  488  487 ar
   489  489  482 ar
   490  490  489 ar
   491  491  490 1
   492  492  490 ar
   493  493  492 1
   494  494  483 ar
   495  495  494 ar
   496  496  495 ar
   497  497  484 ar
   498  498  497 ar
   499  499  498 1
   500  500  498 ar
   501  501  500 1
   502  502  485 ar
   503  503  502 ar
   504  504  486 ar
   505  505  487 ar
   506  506  505 1
   507  507  505 ar
   508  508  507 1
   509  509  507 ar
   510  510  509 1
   511  511  488 ar
   512  512  511 1
   513  513  495 ar
   514  514  513 1
   515  515  513 ar
   516  516  515 1
   517  517  515 ar
   518  518  517 1
   519  519  496 ar
   520  520  519 1
   521  521  503 ar
   522  522  521 1
   523  523  521 ar
   524  524  523 1
   525  525  523 ar
   526  526  525 1
   527  527  504 ar
   528  528  527 1
   529  529  530 ar
   530  530  531 ar
   531  531  532 ar
   532  532  533 ar
   533  533  529 ar
   534  534  529 ar
   535  535  534 ar
   536  536  535 ar
   537  537  530 ar
   538  538  537 ar
   539  539  538 1
   540  540  538 ar
   541  541  540 1
   542  542  531 ar
   543  543  542 ar
   544  544  543 ar
   545  545  532 ar
   546  546  545 ar
   547  547  546 1
   548  548  546 ar
   549  549  548 1
   550  550  533 ar
   551  551  550 ar
   552  552  534 ar
   553  553  535 ar
   554  554  553 1
   555  555  553 ar
   556  556  555 1
   557  557  555 ar
   558  558  557 1
   559  559  536 ar
   560  560  559 1
   561  561  543 ar
   562  562  561 1
   563  563  561 ar
   564  564  563 1
   565  565  563 ar
   566  566  565 1
   567  567  544 ar
   568  568  567 1
   569  569  551 ar
   570  570  569 1
   571  571  569 ar
   572  572  571 1
   573  573  571 ar
   574  574  573 1
   575  575  552 ar
   576  576  575 1
   577    8    9 ar
   578   12   14 ar
   579   16   17 ar
   580   20   22 ar
   581   23   24 ar
   582   29   31 ar
   583   37   39 ar
   584   45   47 ar
   585   56   57 ar
   586   60   62 ar
   587   64   65 ar
   588   68   70 ar
   589   71   72 ar
   590   77   79 ar
   591   85   87 ar
   592   93   95 ar
   593  104  105 ar
   594  108  110 ar
   595  112  113 ar
   596  116  118 ar
   597  119  120 ar
   598  125  127 ar
   599  133  135 ar
   600  141  143 ar
   601  152  153 ar
   602  156  158 ar
   603  160  161 ar
   604  164  166 ar
   605  167  168 ar
   606  173  175 ar
   607  181  183 ar
   608  189  191 ar
   609  200  201 ar
   610  204  206 ar
   611  208  209 ar
   612  212  214 ar
   613  215  216 ar
   614  221  223 ar
   615  229  231 ar
   616  237  239 ar
   617  248  249 ar
   618  252  254 ar
   619  256  257 ar
   620  260  262 ar
   621  263  264 ar
   622  269  271 ar
   623  277  279 ar
   624  285  287 ar
   625  296  297 ar
   626  300  302 ar
   627  304  305 ar
   628  308  310 ar
   629  311  312 ar
   630  317  319 ar
   631  325  327 ar
   632  333  335 ar
   633  344  345 ar
   634  348  350 ar
   635  352  353 ar
   636  356  358 ar
   637  359  360 ar
   638  365  367 ar
   639  373  375 ar
   640  381  383 ar
   641  392  393 ar
   642  396  398 ar
   643  400  401 ar
   644  404  406 ar
   645  407  408 ar
   646  413  415 ar
   647  421  423 ar
   648  429  431 ar
   649  440  441 ar
   650  444  446 ar
   651  448  449 ar
   652  452  454 ar
   653  455  456 ar
   654  461  463 ar
   655  469  471 ar
   656  477  479 ar
   657  488  489 ar
   658  492  494 ar
   659  496  497 ar
   660  500  502 ar
   661  503  504 ar
   662  509  511 ar
   663  517  519 ar
   664  525  527 ar
   665  536  537 ar
   666  540  542 ar
   667  544  545 ar
   668  548  550 ar
   669  551  552 ar
   670  557  559 ar
   671  565  567 ar
   672  573  575 ar
@<TRIPOS>SUBSTRUCTURE
     1 RES1 1
     2 RES2 49
     3 RES3 97
     4 RES4 145
     5 RES5 193
     6 RES6 241
     7 RES7 289
     8 RES8 337
     9 RES9 385
    10 RES10 433
    11 RES11 481
    12 RES12 529

@<TRIPOS>CRYSIN
  19.2518   21.6277   26.6863  90.0000  90.1010  90.0000   4 1

