# MOL2 file generated by ConQuest
# Please check atom types

@<TRIPOS>MOLECULE
OHCHRY
    36    39     1
SMALL
NO_CHARGES
****
Generated from CSD

@<TRIPOS>ATOM
      1 C1        -0.3761    0.6180    0.1021 C.ar      1 RES1    0.0000
      2 C2        -1.2776    0.7690    1.1470 C.ar      1 RES1    0.0000
      3 C3        -2.0169    2.0480    1.2805 C.3       1 RES1    0.0000
      4 C4        -2.6881    2.2760    2.6590 C.3       1 RES1    0.0000
      5 C5        -3.4817    1.0080    3.0024 C.3       1 RES1    0.0000
      6 C6        -2.5319   -0.1080    3.2477 C.3       1 RES1    0.0000
      7 C7        -1.5036   -0.2650    2.0919 C.ar      1 RES1    0.0000
      8 C8        -0.6977   -1.4210    1.9045 C.ar      1 RES1    0.0000
      9 C9        -0.1767    1.6340   -0.8909 C.ar      1 RES1    0.0000
     10 H1        -2.7515    2.0300    0.6025 H         1 RES1    0.0000
     11 H2        -1.3469    2.7810    1.1588 H         1 RES1    0.0000
     12 H3        -3.2925    3.0700    2.6257 H         1 RES1    0.0000
     13 H4        -4.0306    1.1670    3.8208 H         1 RES1    0.0000
     14 H5        -4.0851    0.7730    2.2420 H         1 RES1    0.0000
     15 H6        -2.0211    0.0910    4.0877 H         1 RES1    0.0000
     16 H7        -3.0510   -0.9570    3.3194 H         1 RES1    0.0000
     17 H8        -0.8107   -2.1390    2.5403 H         1 RES1    0.0000
     18 H9        -0.6894    2.4800   -0.8007 H         1 RES1    0.0000
     19 C1B        0.3761   -0.6180   -0.1021 C.ar      1 RES1    0.0000
     20 C9B        0.1767   -1.6340    0.8909 C.ar      1 RES1    0.0000
     21 C8B        0.6977    1.4210   -1.9045 C.ar      1 RES1    0.0000
     22 C2B        1.2776   -0.7690   -1.1470 C.ar      1 RES1    0.0000
     23 H9B        0.6894   -2.4800    0.8007 H         1 RES1    0.0000
     24 C7B        1.5036    0.2650   -2.0919 C.ar      1 RES1    0.0000
     25 H8B        0.8107    2.1390   -2.5403 H         1 RES1    0.0000
     26 C3B        2.0169   -2.0480   -1.2805 C.3       1 RES1    0.0000
     27 C6B        2.5319    0.1080   -3.2477 C.3       1 RES1    0.0000
     28 C4B        2.6881   -2.2760   -2.6590 C.3       1 RES1    0.0000
     29 H1B        2.7515   -2.0300   -0.6025 H         1 RES1    0.0000
     30 H2B        1.3469   -2.7810   -1.1588 H         1 RES1    0.0000
     31 C5B        3.4817   -1.0080   -3.0024 C.3       1 RES1    0.0000
     32 H6B        2.0211   -0.0910   -4.0877 H         1 RES1    0.0000
     33 H7B        3.0510    0.9570   -3.3194 H         1 RES1    0.0000
     34 H3B        3.2925   -3.0700   -2.6257 H         1 RES1    0.0000
     35 H4B        4.0306   -1.1670   -3.8208 H         1 RES1    0.0000
     36 H5B        4.0851   -0.7730   -2.2420 H         1 RES1    0.0000
@<TRIPOS>BOND
     1    1    2 ar
     2    2    3 1
     3    3    4 1
     4    4    5 1
     5    5    6 1
     6    6    7 1
     7    7    2 ar
     8    8    7 ar
     9    9    1 ar
    10   10    3 1
    11   11    3 1
    12   12    4 1
    13   13    5 1
    14   14    5 1
    15   15    6 1
    16   16    6 1
    17   17    8 1
    18   18    9 1
    19   19    1 ar
    20   20    8 ar
    21   21    9 ar
    22   22   19 ar
    23   23   20 1
    24   24   21 ar
    25   25   21 1
    26   26   22 1
    27   27   24 1
    28   28   26 1
    29   29   26 1
    30   30   26 1
    31   31   27 1
    32   32   27 1
    33   33   27 1
    34   34   28 1
    35   35   31 1
    36   36   31 1
    37   19   20 ar
    38   22   24 ar
    39   28   31 1
@<TRIPOS>SUBSTRUCTURE
     1 RES1 1

@<TRIPOS>CRYSIN
  10.0600    7.2400    9.1400  90.0000 101.1300  90.0000  14 2

