# MOL2 file generated by ConQuest
# Please check atom types

@<TRIPOS>MOLECULE
OHICUD
    46    50     1
SMALL
NO_CHARGES
****
Generated from CSD

@<TRIPOS>ATOM
      1 C1         0.3513   -0.9411    9.8109 C.ar      1 RES1    0.0000
      2 C2         1.0436   -2.1108   10.2544 C.ar      1 RES1    0.0000
      3 C3         0.9363   -3.4272    9.6326 C.ar      1 RES1    0.0000
      4 C4        -0.0281   -3.7603    8.6556 C.ar      1 RES1    0.0000
      5 H1        -0.6882   -3.0968    8.3528 H         1 RES1    0.0000
      6 C5        -0.1268   -5.0323    8.1341 C.ar      1 RES1    0.0000
      7 H2        -0.8299   -5.2287    7.4593 H         1 RES1    0.0000
      8 C6         0.7331   -6.0419    8.5679 C.ar      1 RES1    0.0000
      9 H3         0.6591   -6.9519    8.2187 H         1 RES1    0.0000
     10 C7         1.6508   -5.7692    9.5387 C.ar      1 RES1    0.0000
     11 H4         2.2597   -6.4495    9.8620 H         1 RES1    0.0000
     12 C8         1.7781   -4.4806   10.0996 C.ar      1 RES1    0.0000
     13 C9         2.6964   -4.2406   11.1665 C.ar      1 RES1    0.0000
     14 H5         3.3019   -4.9887   11.4651 H         1 RES1    0.0000
     15 C10        2.7058   -3.0684   11.8198 C.ar      1 RES1    0.0000
     16 H6         3.2614   -2.8848   12.5772 H         1 RES1    0.0000
     17 C11        1.8487   -1.9875   11.4183 C.ar      1 RES1    0.0000
     18 C12        1.8042   -0.8175   12.2013 C.ar      1 RES1    0.0000
     19 H7         2.3431   -0.7699   13.0208 H         1 RES1    0.0000
     20 C13        0.9989    0.2455   11.8471 C.ar      1 RES1    0.0000
     21 C14        0.3208    0.1801   10.6165 C.ar      1 RES1    0.0000
     22 H8        -0.1488    0.9979   10.2876 H         1 RES1    0.0000
     23 C15        0.8745    1.4208   12.6745 C.1       1 RES1    0.0000
     24 C16        0.7086    2.3961   13.3433 C.1       1 RES1    0.0000
     25 C17        0.5072    3.5929   14.1307 C.ar      1 RES1    0.0000
     26 C18        1.4394    4.6259   14.0744 C.ar      1 RES1    0.0000
     27 H9         2.2210    4.5040   13.5119 H         1 RES1    0.0000
     28 C19        1.2370    5.7931   14.7916 C.ar      1 RES1    0.0000
     29 H10        1.8917    6.5001   14.7327 H         1 RES1    0.0000
     30 C20        0.1148    5.9318   15.5859 C.ar      1 RES1    0.0000
     31 H11       -0.0385    6.7372   16.0423 H         1 RES1    0.0000
     32 C21       -0.8119    4.9115   15.6498 C.ar      1 RES1    0.0000
     33 H12       -1.5941    5.0347   16.2113 H         1 RES1    0.0000
     34 C22       -0.6231    3.7432   14.9331 C.ar      1 RES1    0.0000
     35 H13       -1.2764    3.0198   14.9925 H         1 RES1    0.0000
     36 C23       -0.2502   -0.7902    8.4533 C.ar      1 RES1    0.0000
     37 C24       -1.5939   -0.4572    8.2806 C.ar      1 RES1    0.0000
     38 H14       -2.1791   -0.4112    9.0572 H         1 RES1    0.0000
     39 C25       -2.1165   -0.2778    7.0078 C.ar      1 RES1    0.0000
     40 H15       -3.0680   -0.1010    6.9038 H         1 RES1    0.0000
     41 C26       -1.3021   -0.3966    5.8972 C.ar      1 RES1    0.0000
     42 H16       -1.6751   -0.2735    5.0060 H         1 RES1    0.0000
     43 C27        0.0366   -0.7188    6.0555 C.ar      1 RES1    0.0000
     44 H17        0.6179   -0.7904    5.2573 H         1 RES1    0.0000
     45 C28        0.5583   -0.9192    7.3221 C.ar      1 RES1    0.0000
     46 H18        1.4781   -1.1452    7.4318 H         1 RES1    0.0000
@<TRIPOS>BOND
     1    1    2 ar
     2    2    3 ar
     3    3    4 ar
     4    4    5 1
     5    6    4 ar
     6    7    6 1
     7    8    6 ar
     8    9    8 1
     9   10    8 ar
    10   11   10 1
    11   12    3 ar
    12   13   12 ar
    13   14   13 1
    14   15   13 ar
    15   16   15 1
    16   17    2 ar
    17   18   17 ar
    18   19   18 1
    19   20   18 ar
    20   21    1 ar
    21   22   21 1
    22   23   20 1
    23   24   23 3
    24   25   24 1
    25   26   25 ar
    26   27   26 1
    27   28   26 ar
    28   29   28 1
    29   30   28 ar
    30   31   30 1
    31   32   30 ar
    32   33   32 1
    33   34   25 ar
    34   35   34 1
    35   36    1 1
    36   37   36 ar
    37   38   37 1
    38   39   37 ar
    39   40   39 1
    40   41   39 ar
    41   42   41 1
    42   43   41 ar
    43   44   43 1
    44   45   36 ar
    45   46   45 1
    46   10   12 ar
    47   15   17 ar
    48   20   21 ar
    49   32   34 ar
    50   43   45 ar
@<TRIPOS>SUBSTRUCTURE
     1 RES1 1

@<TRIPOS>CRYSIN
   9.7963    9.8307   11.4386 109.7100  91.7010 114.1630   2 1

