# MOL2 file generated by ConQuest
# Please check atom types

@<TRIPOS>MOLECULE
OJONOR
    45    50     1
SMALL
NO_CHARGES
****
Generated from CSD

@<TRIPOS>ATOM
      1 C1         6.0014    3.0572   14.9679 C.ar      1 RES1    0.0000
      2 H1         5.8218    2.8895   15.8652 H         1 RES1    0.0000
      3 C2         5.9995    2.0263   14.0565 C.ar      1 RES1    0.0000
      4 H2         5.8143    1.1595   14.3377 H         1 RES1    0.0000
      5 C3         6.2727    2.2729   12.7289 C.ar      1 RES1    0.0000
      6 H3         6.2642    1.5704   12.1202 H         1 RES1    0.0000
      7 C4         6.5610    3.5597   12.2889 C.ar      1 RES1    0.0000
      8 C5         6.8287    3.8105   10.8420 C.ar      1 RES1    0.0000
      9 C6         8.0530    4.2985   10.4078 C.ar      1 RES1    0.0000
     10 C7         8.3052    4.5331    8.9843 C.ar      1 RES1    0.0000
     11 C8         9.4889    4.9714    8.3506 C.ar      1 RES1    0.0000
     12 H4        10.2420    5.1759    8.8561 H         1 RES1    0.0000
     13 C9         9.5195    5.0940    6.9732 C.ar      1 RES1    0.0000
     14 H5        10.3100    5.3818    6.5760 H         1 RES1    0.0000
     15 C10        8.4273    4.8090    6.1415 C.ar      1 RES1    0.0000
     16 H6         8.4892    4.9149    5.2194 H         1 RES1    0.0000
     17 C11        3.8723    3.1268    7.7870 C.ar      1 RES1    0.0000
     18 H7         3.2500    2.9755    7.1121 H         1 RES1    0.0000
     19 C12        3.5338    2.9242    9.1392 C.ar      1 RES1    0.0000
     20 H8         2.6688    2.6481    9.3402 H         1 RES1    0.0000
     21 C13        4.4212    3.1143   10.1830 C.ar      1 RES1    0.0000
     22 H9         4.1504    2.9655   11.0598 H         1 RES1    0.0000
     23 C14        5.7427    3.5369    9.9080 C.ar      1 RES1    0.0000
     24 C15        6.2715    4.3428   14.5403 C.ar      1 RES1    0.0000
     25 H10        6.2648    5.0438   15.1508 H         1 RES1    0.0000
     26 C16        6.5496    4.5926   13.2152 C.ar      1 RES1    0.0000
     27 H11        6.7312    5.4615   12.9386 H         1 RES1    0.0000
     28 C17        9.1660    4.5736   11.3636 C.ar      1 RES1    0.0000
     29 C18        9.6971    5.8552   11.4675 C.ar      1 RES1    0.0000
     30 H12        9.3350    6.5449   10.9600 H         1 RES1    0.0000
     31 C19       10.7551    6.1171   12.3142 C.ar      1 RES1    0.0000
     32 H13       11.0948    6.9808   12.3771 H         1 RES1    0.0000
     33 C20       11.3060    5.1091   13.0631 C.ar      1 RES1    0.0000
     34 H14       12.0296    5.2828   13.6201 H         1 RES1    0.0000
     35 C21       10.7822    3.8336   12.9852 C.ar      1 RES1    0.0000
     36 H15       11.1453    3.1513   13.5034 H         1 RES1    0.0000
     37 C22        9.7203    3.5667   12.1408 C.ar      1 RES1    0.0000
     38 H16        9.3743    2.7046   12.0937 H         1 RES1    0.0000
     39 C23        7.2590    4.2442    8.1184 C.ar      1 RES1    0.0000
     40 C24        6.0179    3.7524    8.5626 C.ar      1 RES1    0.0000
     41 C25        5.1488    3.5541    7.4878 C.ar      1 RES1    0.0000
     42 C26        5.9008    3.9176    6.2055 C.3       1 RES1    0.0000
     43 H17        5.9857    3.1491    5.6196 H         1 RES1    0.0000
     44 H18        5.4531    4.6328    5.7279 H         1 RES1    0.0000
     45 C27        7.2646    4.3694    6.7243 C.ar      1 RES1    0.0000
@<TRIPOS>BOND
     1    1    2 1
     2    3    1 ar
     3    4    3 1
     4    5    3 ar
     5    6    5 1
     6    7    5 ar
     7    8    7 1
     8    9    8 ar
     9   10    9 ar
    10   11   10 ar
    11   12   11 1
    12   13   11 ar
    13   14   13 1
    14   15   13 ar
    15   16   15 1
    16   17   18 1
    17   19   17 ar
    18   20   19 1
    19   21   19 ar
    20   22   21 1
    21   23    8 ar
    22   24    1 ar
    23   25   24 1
    24   26    7 ar
    25   27   26 1
    26   28    9 1
    27   29   28 ar
    28   30   29 1
    29   31   29 ar
    30   32   31 1
    31   33   31 ar
    32   34   33 1
    33   35   33 ar
    34   36   35 1
    35   37   28 ar
    36   38   37 1
    37   39   10 ar
    38   40   23 ar
    39   41   17 ar
    40   42   41 1
    41   43   42 1
    42   44   42 1
    43   45   15 ar
    44   21   23 ar
    45   24   26 ar
    46   35   37 ar
    47   39   40 ar
    48   39   45 ar
    49   40   41 ar
    50   42   45 1
@<TRIPOS>SUBSTRUCTURE
     1 RES1 1

@<TRIPOS>CRYSIN
   8.6884    9.9953   11.1578  81.5700  74.0600  88.5410   2 1

