# MOL2 file generated by ConQuest
# Please check atom types

@<TRIPOS>MOLECULE
OJOZOD
    58    63     1
SMALL
NO_CHARGES
****
Generated from CSD

@<TRIPOS>ATOM
      1 C1         5.5821    4.2008    7.4774 C.ar      1 RES1    0.0000
      2 C2         6.8503    4.6889    7.2129 C.ar      1 RES1    0.0000
      3 C3         7.0896    5.7176    6.2908 C.ar      1 RES1    0.0000
      4 C4         6.0366    6.2923    5.6525 C.ar      1 RES1    0.0000
      5 C5         3.6581    6.4661    5.1828 C.ar      1 RES1    0.0000
      6 C6         2.3685    6.0652    5.3569 C.ar      1 RES1    0.0000
      7 C7         2.0896    4.9951    6.2297 C.ar      1 RES1    0.0000
      8 C8         3.0780    4.3309    6.9228 C.ar      1 RES1    0.0000
      9 C9         4.4481    4.7636    6.7937 C.ar      1 RES1    0.0000
     10 C10        4.7123    5.8448    5.8804 C.ar      1 RES1    0.0000
     11 C11        5.5531    3.0737    8.4686 C.ar      1 RES1    0.0000
     12 C12        6.0810    1.8334    8.0908 C.ar      1 RES1    0.0000
     13 C13        6.1772    0.7854    8.9859 C.ar      1 RES1    0.0000
     14 C14        5.7805    0.9466   10.3165 C.ar      1 RES1    0.0000
     15 C15        5.2847    2.1928   10.6992 C.ar      1 RES1    0.0000
     16 C16        5.1611    3.2371    9.7894 C.ar      1 RES1    0.0000
     17 C17        5.9173   -0.1782   11.2876 C.ar      1 RES1    0.0000
     18 C18        6.9310   -1.1271   11.1483 C.ar      1 RES1    0.0000
     19 C19        7.0672   -2.1632   12.0534 C.ar      1 RES1    0.0000
     20 C20        6.1939   -2.2838   13.1182 C.ar      1 RES1    0.0000
     21 C21        5.1859   -1.3490   13.2736 C.ar      1 RES1    0.0000
     22 C22        5.0540   -0.3099   12.3666 C.ar      1 RES1    0.0000
     23 C23        2.6194    3.1853    7.7569 C.ar      1 RES1    0.0000
     24 C24        1.6935    3.3894    8.7722 C.ar      1 RES1    0.0000
     25 C25        1.2579    2.3393    9.5595 C.ar      1 RES1    0.0000
     26 C26        1.7249    1.0494    9.3576 C.ar      1 RES1    0.0000
     27 C27        2.6167    0.8291    8.3008 C.ar      1 RES1    0.0000
     28 C28        3.0409    1.8785    7.5090 C.ar      1 RES1    0.0000
     29 C29        1.3071   -0.0717   10.2384 C.ar      1 RES1    0.0000
     30 C30       -0.0168   -0.2004   10.6767 C.ar      1 RES1    0.0000
     31 C31       -0.3770   -1.2343   11.5318 C.ar      1 RES1    0.0000
     32 C32        0.5694   -2.1374   11.9790 C.ar      1 RES1    0.0000
     33 C33        1.8766   -2.0183   11.5505 C.ar      1 RES1    0.0000
     34 C34        2.2409   -1.0043   10.6818 C.ar      1 RES1    0.0000
     35 H1         7.5897    4.3117    7.6754 H         1 RES1    0.0000
     36 H2         7.9765    6.0090    6.1146 H         1 RES1    0.0000
     37 H3         6.1913    7.0052    5.0444 H         1 RES1    0.0000
     38 H4         3.8501    7.1760    4.5806 H         1 RES1    0.0000
     39 H5         1.6631    6.5023    4.8945 H         1 RES1    0.0000
     40 H6         1.1871    4.7214    6.3447 H         1 RES1    0.0000
     41 H7         6.3805    1.7091    7.1973 H         1 RES1    0.0000
     42 H8         6.5160   -0.0525    8.6939 H         1 RES1    0.0000
     43 H9         5.0251    2.3311   11.6031 H         1 RES1    0.0000
     44 H10        4.8057    4.0699   10.0745 H         1 RES1    0.0000
     45 H11        7.5368   -1.0605   10.4205 H         1 RES1    0.0000
     46 H12        7.7668   -2.7963   11.9421 H         1 RES1    0.0000
     47 H13        6.2851   -3.0004   13.7365 H         1 RES1    0.0000
     48 H14        4.5823   -1.4192   14.0040 H         1 RES1    0.0000
     49 H15        4.3573    0.3254   12.4861 H         1 RES1    0.0000
     50 H16        1.3555    4.2636    8.9276 H         1 RES1    0.0000
     51 H17        0.6272    2.5049   10.2511 H         1 RES1    0.0000
     52 H18        2.9333   -0.0496    8.1267 H         1 RES1    0.0000
     53 H19        3.6299    1.7077    6.7835 H         1 RES1    0.0000
     54 H20       -0.6732    0.4223   10.3866 H         1 RES1    0.0000
     55 H21       -1.2812   -1.3209   11.8118 H         1 RES1    0.0000
     56 H22        0.3221   -2.8333   12.5753 H         1 RES1    0.0000
     57 H23        2.5306   -2.6373   11.8546 H         1 RES1    0.0000
     58 H24        3.1404   -0.9430   10.3831 H         1 RES1    0.0000
@<TRIPOS>BOND
     1    1    2 ar
     2    2    3 ar
     3    3    4 ar
     4    4   10 ar
     5    5    6 ar
     6    6    7 ar
     7    7    8 ar
     8    8    9 ar
     9    9    1 ar
    10   10    5 ar
    11   11    1 1
    12   12   11 ar
    13   13   12 ar
    14   14   13 ar
    15   15   14 ar
    16   16   11 ar
    17   17   14 1
    18   18   17 ar
    19   19   18 ar
    20   20   19 ar
    21   21   20 ar
    22   22   17 ar
    23   23    8 1
    24   24   23 ar
    25   25   24 ar
    26   26   25 ar
    27   27   26 ar
    28   28   23 ar
    29   29   26 1
    30   30   29 ar
    31   31   30 ar
    32   32   31 ar
    33   33   32 ar
    34   34   29 ar
    35   35    2 1
    36   36    3 1
    37   37    4 1
    38   38    5 1
    39   39    6 1
    40   40    7 1
    41   41   12 1
    42   42   13 1
    43   43   15 1
    44   44   16 1
    45   45   18 1
    46   46   19 1
    47   47   20 1
    48   48   21 1
    49   49   22 1
    50   50   24 1
    51   51   25 1
    52   52   27 1
    53   53   28 1
    54   54   30 1
    55   55   31 1
    56   56   32 1
    57   57   33 1
    58   58   34 1
    59    9   10 ar
    60   15   16 ar
    61   21   22 ar
    62   27   28 ar
    63   33   34 ar
@<TRIPOS>SUBSTRUCTURE
     1 RES1 1

@<TRIPOS>CRYSIN
  17.0397    7.3957   17.8518  90.0000  92.3120  90.0000 231 1

