# MOL2 file generated by ConQuest
# Please check atom types

@<TRIPOS>MOLECULE
OKARIC
    34    39     1
SMALL
NO_CHARGES
****
Generated from CSD

@<TRIPOS>ATOM
      1 C1        14.0691    2.7630    0.4023 C.ar      1 RES1    0.0000
      2 C2        14.2281    2.1289    1.6439 C.ar      1 RES1    0.0000
      3 C3        15.5228    1.8074    2.0211 C.ar      1 RES1    0.0000
      4 H1        15.7062    1.3357    2.8697 H         1 RES1    0.0000
      5 C4        16.6367    2.1309    1.1719 C.ar      1 RES1    0.0000
      6 H2        17.5425    1.8909    1.4807 H         1 RES1    0.0000
      7 C5        16.4480    2.7595   -0.0476 C.ar      1 RES1    0.0000
      8 C6        12.8411    2.0062    2.1653 C.ar      1 RES1    0.0000
      9 C7        12.3481    1.4844    3.3468 C.ar      1 RES1    0.0000
     10 H3        12.9826    1.0911    4.0144 H         1 RES1    0.0000
     11 C8        10.9710    1.5151    3.5820 C.ar      1 RES1    0.0000
     12 H4        10.5968    1.1260    4.4439 H         1 RES1    0.0000
     13 C9        10.1045    2.0602    2.6456 C.ar      1 RES1    0.0000
     14 H5         9.1177    2.0734    2.8160 H         1 RES1    0.0000
     15 C10       18.6069    3.2371   -1.4463 C.ar      1 RES1    0.0000
     16 H6        19.2350    2.8344   -0.7620 H         1 RES1    0.0000
     17 C11       17.2482    3.2538   -1.1981 C.ar      1 RES1    0.0000
     18 C1F       15.1254    3.0612   -0.4023 C.ar      1 RES1    0.0000
     19 C2F       14.9664    3.6953   -1.6439 C.ar      1 RES1    0.0000
     20 C3F       13.6717    4.0168   -2.0211 C.ar      1 RES1    0.0000
     21 H1F       13.4883    4.4885   -2.8697 H         1 RES1    0.0000
     22 C4F       12.5578    3.6933   -1.1719 C.ar      1 RES1    0.0000
     23 H2F       11.6520    3.9333   -1.4807 H         1 RES1    0.0000
     24 C5F       12.7465    3.0647    0.0476 C.ar      1 RES1    0.0000
     25 C6F       16.3534    3.8180   -2.1653 C.ar      1 RES1    0.0000
     26 C7F       16.8464    4.3398   -3.3468 C.ar      1 RES1    0.0000
     27 H3F       16.2119    4.7331   -4.0144 H         1 RES1    0.0000
     28 C8F       18.2235    4.3091   -3.5820 C.ar      1 RES1    0.0000
     29 H4F       18.5977    4.6982   -4.4439 H         1 RES1    0.0000
     30 C9F       19.0900    3.7640   -2.6456 C.ar      1 RES1    0.0000
     31 H5F       20.0768    3.7508   -2.8160 H         1 RES1    0.0000
     32 C10F      10.5876    2.5871    1.4463 C.ar      1 RES1    0.0000
     33 H6F        9.9595    2.9898    0.7620 H         1 RES1    0.0000
     34 C11F      11.9463    2.5704    1.1981 C.ar      1 RES1    0.0000
@<TRIPOS>BOND
     1    1    2 ar
     2    2    3 ar
     3    3    4 1
     4    5    3 ar
     5    6    5 1
     6    7    5 ar
     7    8    2 1
     8    9    8 ar
     9   10    9 1
    10   11    9 ar
    11   12   11 1
    12   13   11 ar
    13   14   13 1
    14   15   16 1
    15   17    7 1
    16   18    1 ar
    17   19   18 ar
    18   20   19 ar
    19   21   20 1
    20   22   20 ar
    21   23   22 1
    22   24    1 ar
    23   25   17 ar
    24   26   25 ar
    25   27   26 1
    26   28   26 ar
    27   29   28 1
    28   30   15 ar
    29   31   30 1
    30   32   13 ar
    31   33   32 1
    32   34    8 ar
    33    7   18 ar
    34   15   17 ar
    35   19   25 1
    36   22   24 ar
    37   24   34 1
    38   28   30 ar
    39   32   34 ar
@<TRIPOS>SUBSTRUCTURE
     1 RES1 1

@<TRIPOS>CRYSIN
  19.4630    3.8828   17.5840  90.0000  99.9710  90.0000  15 1

