# MOL2 file generated by ConQuest
# Please check atom types

@<TRIPOS>MOLECULE
OKUDOP
    48    52     1
SMALL
NO_CHARGES
****
Generated from CSD

@<TRIPOS>ATOM
      1 C1         5.9075    2.3247   15.4590 C.ar      1 RES1    0.0000
      2 C2         4.0553    6.1211   20.6751 C.ar      1 RES1    0.0000
      3 C3         2.8157    1.9678   18.4448 C.ar      1 RES1    0.0000
      4 C4         1.7566    1.7927   19.4671 C.ar      1 RES1    0.0000
      5 C5         4.5684    3.2303   17.3758 C.ar      1 RES1    0.0000
      6 H1         5.0861    4.0252   17.3236 H         1 RES1    0.0000
      7 C6         3.5745    3.1443   18.3398 C.ar      1 RES1    0.0000
      8 C7         4.8379    2.1942   16.4788 C.ar      1 RES1    0.0000
      9 C8         3.2974    4.3606   19.1727 C.ar      1 RES1    0.0000
     10 C9         2.8093    6.7771   20.5342 C.ar      1 RES1    0.0000
     11 C10        4.0724    1.0405   16.5899 C.ar      1 RES1    0.0000
     12 H2         4.2233    0.3169   15.9944 H         1 RES1    0.0000
     13 C11        3.0988    0.9354   17.5548 C.ar      1 RES1    0.0000
     14 H3         2.6006    0.1285   17.6153 H         1 RES1    0.0000
     15 C12        4.2743    4.9015   19.9592 C.ar      1 RES1    0.0000
     16 H4         5.1128    4.4611   20.0313 H         1 RES1    0.0000
     17 C13        1.9636    2.1487   20.7994 C.ar      1 RES1    0.0000
     18 H5         2.8058    2.4975   21.0659 H         1 RES1    0.0000
     19 C14        0.5155    1.2543   19.1278 C.ar      1 RES1    0.0000
     20 H6         0.3553    0.9842   18.2323 H         1 RES1    0.0000
     21 C15        5.0480    6.6944   21.4871 C.ar      1 RES1    0.0000
     22 H7         5.8802    6.2505   21.6001 H         1 RES1    0.0000
     23 C16        7.1232    2.9202   15.7601 C.ar      1 RES1    0.0000
     24 H8         7.2617    3.2799   16.6298 H         1 RES1    0.0000
     25 C17        2.0486    5.0121   19.0879 C.ar      1 RES1    0.0000
     26 H9         1.3539    4.6210   18.5731 H         1 RES1    0.0000
     27 C18        5.7363    1.8304   14.1631 C.ar      1 RES1    0.0000
     28 H10        4.9113    1.4258   13.9222 H         1 RES1    0.0000
     29 C19        7.9451    2.4966   13.5614 C.ar      1 RES1    0.0000
     30 H11        8.6425    2.5461   12.9183 H         1 RES1    0.0000
     31 C20        1.8190    6.1903   19.7308 C.ar      1 RES1    0.0000
     32 H12        0.9778    6.6207   19.6353 H         1 RES1    0.0000
     33 C21        6.7425    1.9209   13.2326 C.ar      1 RES1    0.0000
     34 H13        6.6048    1.5828   12.3565 H         1 RES1    0.0000
     35 C22        8.1340    3.0016   14.8293 C.ar      1 RES1    0.0000
     36 H14        8.9613    3.4065   15.0611 H         1 RES1    0.0000
     37 C23        3.5975    8.5501   21.9562 C.ar      1 RES1    0.0000
     38 H15        3.4577    9.3819   22.3921 H         1 RES1    0.0000
     39 C24       -0.4863    1.1049   20.0666 C.ar      1 RES1    0.0000
     40 H16       -1.3248    0.7376   19.8134 H         1 RES1    0.0000
     41 C25        4.8240    7.8847   22.1146 C.ar      1 RES1    0.0000
     42 H17        5.5008    8.2654   22.6623 H         1 RES1    0.0000
     43 C26        2.6114    8.0261   21.1914 C.ar      1 RES1    0.0000
     44 H18        1.7887    8.4901   21.0935 H         1 RES1    0.0000
     45 C27        0.9578    2.0014   21.7394 C.ar      1 RES1    0.0000
     46 H19        1.1126    2.2539   22.6408 H         1 RES1    0.0000
     47 C28       -0.2667    1.4899   21.3710 C.ar      1 RES1    0.0000
     48 H20       -0.9589    1.4030   22.0145 H         1 RES1    0.0000
@<TRIPOS>BOND
     1    1    8 1
     2    2   10 ar
     3    3    4 1
     4    4   17 ar
     5    5    6 1
     6    7    3 ar
     7    8    5 ar
     8    9    7 1
     9   10   31 ar
    10   11    8 ar
    11   12   11 1
    12   13    3 ar
    13   14   13 1
    14   15    2 ar
    15   16   15 1
    16   17   18 1
    17   19    4 ar
    18   20   19 1
    19   21    2 ar
    20   22   21 1
    21   23    1 ar
    22   24   23 1
    23   25    9 ar
    24   26   25 1
    25   27    1 ar
    26   28   27 1
    27   29   30 1
    28   31   25 ar
    29   32   31 1
    30   33   27 ar
    31   34   33 1
    32   35   23 ar
    33   36   35 1
    34   37   38 1
    35   39   19 ar
    36   40   39 1
    37   41   21 ar
    38   42   41 1
    39   43   10 ar
    40   44   43 1
    41   45   17 ar
    42   46   45 1
    43   47   39 ar
    44   48   47 1
    45    5    7 ar
    46    9   15 ar
    47   11   13 ar
    48   29   33 ar
    49   29   35 ar
    50   37   41 ar
    51   37   43 ar
    52   45   47 ar
@<TRIPOS>SUBSTRUCTURE
     1 RES1 1

@<TRIPOS>CRYSIN
   6.5699    9.5180   30.7090  90.0000  91.4370  90.0000 231 1

