# MOL2 file generated by ConQuest
# Please check atom types

@<TRIPOS>MOLECULE
OLAGEO
    48    52     1
SMALL
NO_CHARGES
****
Generated from CSD

@<TRIPOS>ATOM
      1 C1         9.7622    4.3098    3.1842 C.2       1 RES1    0.0000
      2 C2        11.0968    4.2349    3.2613 C.2       1 RES1    0.0000
      3 C3        11.5654    3.0018    2.5853 C.2       1 RES1    0.0000
      4 C4        10.5023    2.3235    2.1180 C.2       1 RES1    0.0000
      5 C5         9.2848    3.1089    2.4696 C.2       1 RES1    0.0000
      6 C6         8.8960    5.3220    3.8890 C.3       1 RES1    0.0000
      7 H1         9.3743    5.6776    4.6667 H         1 RES1    0.0000
      8 H2         8.0662    4.8928    4.1853 H         1 RES1    0.0000
      9 H3         8.6842    6.0549    3.2734 H         1 RES1    0.0000
     10 C7        12.0222    5.1932    3.9578 C.3       1 RES1    0.0000
     11 H4        11.5102    5.9615    4.2850 H         1 RES1    0.0000
     12 H5        12.7086    5.5014    3.3280 H         1 RES1    0.0000
     13 H6        12.4535    4.7410    4.7127 H         1 RES1    0.0000
     14 C8        13.0154    2.6311    2.4640 C.3       1 RES1    0.0000
     15 H7        13.1017    1.8174    1.9253 H         1 RES1    0.0000
     16 H8        13.3889    2.4727    3.3571 H         1 RES1    0.0000
     17 H9        13.5052    3.3620    2.0316 H         1 RES1    0.0000
     18 C9        10.4872    1.0773    1.2944 C.3       1 RES1    0.0000
     19 H10       11.4079    0.7815    1.1328 H         1 RES1    0.0000
     20 H11       10.0455    1.2574    0.4381 H         1 RES1    0.0000
     21 H12        9.9984    0.3753    1.7721 H         1 RES1    0.0000
     22 C10        8.0407    2.6968    2.1828 C.2       1 RES1    0.0000
     23 H13        7.9629    1.7957    1.8915 H         1 RES1    0.0000
     24 C11        6.7724    3.4547    2.2582 C.ar      1 RES1    0.0000
     25 C12        5.6046    2.8848    2.8149 C.ar      1 RES1    0.0000
     26 C13        5.6189    1.6314    3.5247 C.ar      1 RES1    0.0000
     27 H14        6.4442    1.1765    3.6438 H         1 RES1    0.0000
     28 C14        4.4869    1.0865    4.0265 C.ar      1 RES1    0.0000
     29 H15        4.5348    0.2570    4.4880 H         1 RES1    0.0000
     30 C15        3.2173    1.7332    3.8767 C.ar      1 RES1    0.0000
     31 C16        3.1686    2.9795    3.1983 C.ar      1 RES1    0.0000
     32 C17        4.3655    3.5638    2.6765 C.ar      1 RES1    0.0000
     33 C18        4.3004    4.8159    2.0069 C.ar      1 RES1    0.0000
     34 C19        5.4802    5.3759    1.5092 C.ar      1 RES1    0.0000
     35 H16        5.4549    6.2231    1.0802 H         1 RES1    0.0000
     36 C20        6.6844    4.7048    1.6365 C.ar      1 RES1    0.0000
     37 H17        7.4731    5.1044    1.2917 H         1 RES1    0.0000
     38 C21        2.0246    1.1739    4.3684 C.ar      1 RES1    0.0000
     39 H18        2.0494    0.3438    4.8302 H         1 RES1    0.0000
     40 C22        0.8205    1.8174    4.1870 C.ar      1 RES1    0.0000
     41 H19        0.0238    1.4217    4.5172 H         1 RES1    0.0000
     42 C23        0.7582    3.0347    3.5292 C.ar      1 RES1    0.0000
     43 H20       -0.0810    3.4678    3.4182 H         1 RES1    0.0000
     44 C24        1.9216    3.6328    3.0258 C.ar      1 RES1    0.0000
     45 C25        1.8978    4.8934    2.3424 C.ar      1 RES1    0.0000
     46 H21        1.0693    5.3430    2.2271 H         1 RES1    0.0000
     47 C26        3.0250    5.4574    1.8585 C.ar      1 RES1    0.0000
     48 H22        2.9743    6.2941    1.4111 H         1 RES1    0.0000
@<TRIPOS>BOND
     1    1    2 2
     2    2    3 1
     3    3    4 2
     4    4    5 1
     5    5    1 1
     6    6    1 1
     7    7    6 1
     8    8    6 1
     9    9    6 1
    10   10    2 1
    11   11   10 1
    12   12   10 1
    13   13   10 1
    14   14    3 1
    15   15   14 1
    16   16   14 1
    17   17   14 1
    18   18    4 1
    19   19   18 1
    20   20   18 1
    21   21   18 1
    22   22    5 2
    23   23   22 1
    24   24   22 1
    25   25   24 ar
    26   26   25 ar
    27   27   26 1
    28   28   26 ar
    29   29   28 1
    30   30   28 ar
    31   31   30 ar
    32   32   25 ar
    33   33   32 ar
    34   34   33 ar
    35   35   34 1
    36   36   24 ar
    37   37   36 1
    38   38   30 ar
    39   39   38 1
    40   40   38 ar
    41   41   40 1
    42   42   40 ar
    43   43   42 1
    44   44   31 ar
    45   45   44 ar
    46   46   45 1
    47   47   33 ar
    48   48   47 1
    49   31   32 ar
    50   34   36 ar
    51   42   44 ar
    52   45   47 ar
@<TRIPOS>SUBSTRUCTURE
     1 RES1 1

@<TRIPOS>CRYSIN
  29.3956    6.5728    9.5187  90.0000  99.0190  90.0000  14 1

