# MOL2 file generated by ConQuest
# Please check atom types

@<TRIPOS>MOLECULE
OLIDUI
    74    81     1
SMALL
NO_CHARGES
****
Generated from CSD

@<TRIPOS>ATOM
      1 C1        20.7546    6.0768    6.8256 C.ar      1 RES1    0.0000
      2 C2        21.2559    7.3196    7.1284 C.ar      1 RES1    0.0000
      3 C3        22.3158    7.5014    8.0484 C.ar      1 RES1    0.0000
      4 C4        22.8330    6.4414    8.7058 C.ar      1 RES1    0.0000
      5 C5        23.3554    1.6070    9.2772 C.ar      1 RES1    0.0000
      6 C6        23.1246    0.3459    8.8394 C.ar      1 RES1    0.0000
      7 C7        22.2215    0.1094    7.7723 C.ar      1 RES1    0.0000
      8 C8        21.5716    1.1428    7.1624 C.ar      1 RES1    0.0000
      9 C9        21.1571    3.5808    6.9519 C.ar      1 RES1    0.0000
     10 C10       22.9962    4.0227    9.0353 C.ar      1 RES1    0.0000
     11 C11       21.3998    4.9099    7.3866 C.ar      1 RES1    0.0000
     12 C12       22.4068    5.1138    8.3943 C.ar      1 RES1    0.0000
     13 C13       21.7931    2.4805    7.5864 C.ar      1 RES1    0.0000
     14 C14       22.7098    2.7173    8.6610 C.ar      1 RES1    0.0000
     15 C15       19.4827    6.0447    6.0430 C.ar      1 RES1    0.0000
     16 C16       18.3507    5.3836    6.5378 C.ar      1 RES1    0.0000
     17 C17       17.1319    5.4631    5.8810 C.ar      1 RES1    0.0000
     18 C18       16.9914    6.2034    4.7004 C.ar      1 RES1    0.0000
     19 C19       18.1149    6.8583    4.2130 C.ar      1 RES1    0.0000
     20 C20       19.3419    6.7853    4.8719 C.ar      1 RES1    0.0000
     21 C21       15.6569    6.2655    3.9908 C.3       1 RES1    0.0000
     22 C22       20.3755    3.3375    5.7814 C.1       1 RES1    0.0000
     23 C23       20.8419    4.6210    2.2588 C.ar      1 RES1    0.0000
     24 C24       21.1128    5.4775    1.2179 C.ar      1 RES1    0.0000
     25 C25       20.1495    5.8042    0.2297 C.ar      1 RES1    0.0000
     26 C26       18.9249    5.2321    0.2750 C.ar      1 RES1    0.0000
     27 C27       15.5405    2.4512    2.4923 C.ar      1 RES1    0.0000
     28 C28       15.1243    1.7371    3.5741 C.ar      1 RES1    0.0000
     29 C29       16.0105    1.5109    4.6618 C.ar      1 RES1    0.0000
     30 C30       17.2781    2.0057    4.6416 C.ar      1 RES1    0.0000
     31 C31       19.0574    3.3226    3.5076 C.ar      1 RES1    0.0000
     32 C32       17.2826    3.8010    1.3819 C.ar      1 RES1    0.0000
     33 C33       19.5141    4.0718    2.3869 C.ar      1 RES1    0.0000
     34 C34       18.5631    4.3515    1.3406 C.ar      1 RES1    0.0000
     35 C35       17.7521    2.7717    3.5310 C.ar      1 RES1    0.0000
     36 C36       16.8571    3.0012    2.4424 C.ar      1 RES1    0.0000
     37 C37       21.9822    4.2896    3.1647 C.ar      1 RES1    0.0000
     38 C38       22.4292    2.9810    3.3491 C.ar      1 RES1    0.0000
     39 C39       23.5043    2.7084    4.1857 C.ar      1 RES1    0.0000
     40 C40       24.1633    3.7241    4.8798 C.ar      1 RES1    0.0000
     41 C41       23.7312    5.0266    4.6720 C.ar      1 RES1    0.0000
     42 C42       22.6642    5.3089    3.8274 C.ar      1 RES1    0.0000
     43 C43       25.2873    3.4210    5.8445 C.3       1 RES1    0.0000
     44 C44       19.8283    3.2435    4.7091 C.1       1 RES1    0.0000
     45 H1        20.8583    8.1223    6.6830 H         1 RES1    0.0000
     46 H2        22.6843    8.4165    8.2116 H         1 RES1    0.0000
     47 H3        23.5215    6.5848    9.4167 H         1 RES1    0.0000
     48 H4        23.9838    1.7593   10.0415 H         1 RES1    0.0000
     49 H5        23.5979   -0.4243    9.2698 H         1 RES1    0.0000
     50 H6        22.0569   -0.8279    7.4621 H         1 RES1    0.0000
     51 H7        20.9358    0.9565    6.4129 H         1 RES1    0.0000
     52 H8        23.6402    4.1868    9.7833 H         1 RES1    0.0000
     53 H9        18.4231    4.8462    7.3790 H         1 RES1    0.0000
     54 H10       16.3391    4.9837    6.2570 H         1 RES1    0.0000
     55 H11       18.0425    7.3935    3.3719 H         1 RES1    0.0000
     56 H12       20.1330    7.2722    4.4984 H         1 RES1    0.0000
     57 H13       22.0231    5.8855    1.1546 H         1 RES1    0.0000
     58 H14       20.3758    6.4547   -0.4972 H         1 RES1    0.0000
     59 H15       18.2634    5.4287   -0.4482 H         1 RES1    0.0000
     60 H16       14.9166    2.5916    1.7245 H         1 RES1    0.0000
     61 H17       14.1951    1.3720    3.6034 H         1 RES1    0.0000
     62 H18       15.6984    0.9831    5.4512 H         1 RES1    0.0000
     63 H19       17.8870    1.8303    5.4155 H         1 RES1    0.0000
     64 H20       16.6522    3.9858    0.6293 H         1 RES1    0.0000
     65 H21       21.9722    2.2309    2.8718 H         1 RES1    0.0000
     66 H22       23.8121    1.7637    4.2950 H         1 RES1    0.0000
     67 H23       24.1982    5.7791    5.1380 H         1 RES1    0.0000
     68 H24       22.3819    6.2581    3.6925 H         1 RES1    0.0000
     69 H25       14.9086    6.7075    4.6646 H         1 RES1    0.0000
     70 H26       15.7514    6.8834    3.0884 H         1 RES1    0.0000
     71 H27       15.3451    5.2483    3.7118 H         1 RES1    0.0000
     72 H28       25.4770    2.3388    5.8548 H         1 RES1    0.0000
     73 H29       26.1943    3.9518    5.5224 H         1 RES1    0.0000
     74 H30       25.0017    3.7566    6.8507 H         1 RES1    0.0000
@<TRIPOS>BOND
     1    1    2 ar
     2    2    3 ar
     3    3    4 ar
     4    4   12 ar
     5    5    6 ar
     6    6    7 ar
     7    7    8 ar
     8    8   13 ar
     9    9   11 ar
    10   10   12 ar
    11   11    1 ar
    12   12   11 ar
    13   13    9 ar
    14   14    5 ar
    15   15    1 1
    16   16   15 ar
    17   17   16 ar
    18   18   17 ar
    19   19   18 ar
    20   20   15 ar
    21   21   18 1
    22   22    9 1
    23   23   24 ar
    24   24   25 ar
    25   25   26 ar
    26   26   34 ar
    27   27   28 ar
    28   28   29 ar
    29   29   30 ar
    30   30   35 ar
    31   31   33 ar
    32   32   34 ar
    33   33   23 ar
    34   34   33 ar
    35   35   31 ar
    36   36   27 ar
    37   37   23 1
    38   38   37 ar
    39   39   38 ar
    40   40   39 ar
    41   41   40 ar
    42   42   37 ar
    43   43   40 1
    44   44   22 3
    45   45    2 1
    46   46    3 1
    47   47    4 1
    48   48    5 1
    49   49    6 1
    50   50    7 1
    51   51    8 1
    52   52   10 1
    53   53   16 1
    54   54   17 1
    55   55   19 1
    56   56   20 1
    57   57   24 1
    58   58   25 1
    59   59   26 1
    60   60   27 1
    61   61   28 1
    62   62   29 1
    63   63   30 1
    64   64   32 1
    65   65   38 1
    66   66   39 1
    67   67   41 1
    68   68   42 1
    69   69   21 1
    70   70   21 1
    71   71   21 1
    72   72   43 1
    73   73   43 1
    74   74   43 1
    75   10   14 ar
    76   13   14 ar
    77   19   20 ar
    78   31   44 1
    79   32   36 ar
    80   35   36 ar
    81   41   42 ar
@<TRIPOS>SUBSTRUCTURE
     1 RES1 1

@<TRIPOS>CRYSIN
  26.9050   14.7840   15.6600  90.0000 108.6100  90.0000  15 1

