# MOL2 file generated by ConQuest
# Please check atom types

@<TRIPOS>MOLECULE
OMNAPH01
    42    43     1
SMALL
NO_CHARGES
****
Generated from CSD

@<TRIPOS>ATOM
      1 C1         6.9168    1.5649    2.1423 C.ar      1 RES1    0.0000
      2 C2         7.6105    0.3856    2.0698 C.ar      1 RES1    0.0000
      3 C3         7.5856    2.8105    1.9080 C.ar      1 RES1    0.0000
      4 C4         5.4780    1.5581    2.6399 C.3       1 RES1    0.0000
      5 C5         6.9301   -0.9522    2.2888 C.3       1 RES1    0.0000
      6 H1         5.3618    0.8656    3.3581 H         1 RES1    0.0000
      7 H2         5.2141    2.4957    3.0604 H         1 RES1    0.0000
      8 H3         4.7777    1.3490    1.9004 H         1 RES1    0.0000
      9 H4         5.9742   -0.7082    2.3583 H         1 RES1    0.0000
     10 H5         7.2188   -1.4502    3.0681 H         1 RES1    0.0000
     11 H6         7.0031   -1.5626    1.5646 H         1 RES1    0.0000
     12 C2L        8.9845    0.3856    1.7462 C.ar      1 RES1    0.0000
     13 C1K        6.9168    4.0561    1.6737 C.ar      1 RES1    0.0000
     14 C3L        9.0094    2.8105    1.9080 C.ar      1 RES1    0.0000
     15 C1L        9.6782    1.5649    1.6737 C.ar      1 RES1    0.0000
     16 C5L        9.6649   -0.9522    1.5272 C.3       1 RES1    0.0000
     17 C2K        7.6105    5.2354    1.7462 C.ar      1 RES1    0.0000
     18 C4K        5.4780    4.0629    1.1761 C.3       1 RES1    0.0000
     19 C1G        9.6782    4.0561    2.1423 C.ar      1 RES1    0.0000
     20 C4L       11.1170    1.5581    1.1761 C.3       1 RES1    0.0000
     21 H4L       10.6208   -0.7082    1.4577 H         1 RES1    0.0000
     22 H5L        9.3762   -1.4502    0.7479 H         1 RES1    0.0000
     23 H6L        9.5919   -1.5626    2.2514 H         1 RES1    0.0000
     24 C2G        8.9845    5.2354    2.0698 C.ar      1 RES1    0.0000
     25 C5K        6.9301    6.5732    1.5272 C.3       1 RES1    0.0000
     26 H1K        5.3618    4.7554    0.4579 H         1 RES1    0.0000
     27 H2K        5.2141    3.1253    0.7556 H         1 RES1    0.0000
     28 H3K        4.7777    4.2720    1.9156 H         1 RES1    0.0000
     29 C4G       11.1170    4.0629    2.6399 C.3       1 RES1    0.0000
     30 H1L       11.2332    0.8656    0.4579 H         1 RES1    0.0000
     31 H2L       11.3809    2.4957    0.7556 H         1 RES1    0.0000
     32 H3L       11.8173    1.3490    1.9156 H         1 RES1    0.0000
     33 C5G        9.6649    6.5732    2.2888 C.3       1 RES1    0.0000
     34 H4K        5.9742    6.3292    1.4577 H         1 RES1    0.0000
     35 H5K        7.2188    7.0712    0.7479 H         1 RES1    0.0000
     36 H6K        7.0031    7.1836    2.2514 H         1 RES1    0.0000
     37 H1G       11.2332    4.7554    3.3581 H         1 RES1    0.0000
     38 H2G       11.3809    3.1253    3.0604 H         1 RES1    0.0000
     39 H3G       11.8173    4.2720    1.9004 H         1 RES1    0.0000
     40 H4G       10.6208    6.3292    2.3583 H         1 RES1    0.0000
     41 H5G        9.3762    7.0712    3.0681 H         1 RES1    0.0000
     42 H6G        9.5919    7.1836    1.5646 H         1 RES1    0.0000
@<TRIPOS>BOND
     1    1    2 ar
     2    2    5 1
     3    3    1 ar
     4    4    1 1
     5    5    9 1
     6    6    4 1
     7    7    4 1
     8    8    4 1
     9   10    5 1
    10   11    5 1
    11   12    2 ar
    12   13    3 ar
    13   14    3 ar
    14   15   12 ar
    15   16   12 1
    16   17   13 ar
    17   18   13 1
    18   19   14 ar
    19   20   15 1
    20   21   16 1
    21   22   16 1
    22   23   16 1
    23   24   17 ar
    24   25   17 1
    25   26   18 1
    26   27   18 1
    27   28   18 1
    28   29   19 1
    29   30   20 1
    30   31   20 1
    31   32   20 1
    32   33   24 1
    33   34   25 1
    34   35   25 1
    35   36   25 1
    36   37   29 1
    37   38   29 1
    38   39   29 1
    39   40   33 1
    40   41   33 1
    41   42   33 1
    42   14   15 ar
    43   19   24 ar
@<TRIPOS>SUBSTRUCTURE
     1 RES1 1

@<TRIPOS>CRYSIN
  16.5950   11.2420    7.6320  90.0000  90.0000  90.0000  68 1

