# MOL2 file generated by ConQuest
# Please check atom types

@<TRIPOS>MOLECULE
OMUGEK
   188   202     2
SMALL
NO_CHARGES
****
Generated from CSD

@<TRIPOS>ATOM
      1 C1        10.0493   14.5828   11.1900 C.2       1 RES1    0.0000
      2 C2        10.6088   13.5424   11.8388 C.2       1 RES1    0.0000
      3 C3         6.8506   13.6078    7.5689 C.ar      1 RES1    0.0000
      4 C4         9.6126   12.3430   15.8717 C.ar      1 RES1    0.0000
      5 C5         8.5802   12.5395   14.9182 C.ar      1 RES1    0.0000
      6 C6         7.1675   12.8930    8.7552 C.ar      1 RES1    0.0000
      7 C7        10.2299   13.1336   13.2283 C.ar      1 RES1    0.0000
      8 C8         9.0068   15.4791   11.8114 C.2       1 RES1    0.0000
      9 C9         7.4456   13.6180    9.9166 C.ar      1 RES1    0.0000
     10 H1         7.6532   13.1413   10.7117 H         1 RES1    0.0000
     11 C10        7.8397   15.7399   11.1963 C.2       1 RES1    0.0000
     12 C11        9.3019   11.9480   17.2021 C.ar      1 RES1    0.0000
     13 C12        7.9541   11.7380   17.5917 C.ar      1 RES1    0.0000
     14 C13        8.9112   12.9297   13.6227 C.ar      1 RES1    0.0000
     15 H2         8.2160   13.0615   12.9871 H         1 RES1    0.0000
     16 C14       10.9552   12.5565   15.4879 C.ar      1 RES1    0.0000
     17 C15        6.7911   15.0300    7.6032 C.ar      1 RES1    0.0000
     18 C16        6.5908   12.8960    6.3605 C.ar      1 RES1    0.0000
     19 C17        7.0765   15.6968    8.7906 C.ar      1 RES1    0.0000
     20 H3         7.0302   16.6446    8.8112 H         1 RES1    0.0000
     21 C18       10.4833   14.9789    9.7852 C.3       1 RES1    0.0000
     22 H4        11.2349   14.3942    9.5133 H         1 RES1    0.0000
     23 H5         9.7319   14.8059    9.1649 H         1 RES1    0.0000
     24 C19        7.4313   15.0051    9.9562 C.ar      1 RES1    0.0000
     25 C20       11.2338   12.9366   14.1813 C.ar      1 RES1    0.0000
     26 H6        12.1393   13.0680   13.9268 H         1 RES1    0.0000
     27 C21        7.2096   11.4587    8.7029 C.ar      1 RES1    0.0000
     28 H7         7.4140   10.9690    9.4922 H         1 RES1    0.0000
     29 C22        7.2296   12.3269   15.3448 C.ar      1 RES1    0.0000
     30 H8         6.5210   12.4595   14.7240 H         1 RES1    0.0000
     31 C23       10.3437   11.7933   18.1529 C.ar      1 RES1    0.0000
     32 C24        6.6482   11.4807    6.3426 C.ar      1 RES1    0.0000
     33 C25       11.6580   12.6482   11.1895 C.3       1 RES1    0.0000
     34 H9        12.1767   12.1926   11.8995 H         1 RES1    0.0000
     35 H10       12.2857   13.2112   10.6695 H         1 RES1    0.0000
     36 C26        6.9371   11.9415   16.6071 C.ar      1 RES1    0.0000
     37 H11        6.0282   11.8021   16.8462 H         1 RES1    0.0000
     38 C27        9.4089   16.1939   13.1001 C.3       1 RES1    0.0000
     39 H12        8.5982   16.3371   13.6523 H         1 RES1    0.0000
     40 H13       10.0199   15.6065   13.6100 H         1 RES1    0.0000
     41 C28       11.9846   12.3851   16.4709 C.ar      1 RES1    0.0000
     42 H14       12.8908   12.5311   16.2286 H         1 RES1    0.0000
     43 C29       10.0096   11.4364   19.4584 C.ar      1 RES1    0.0000
     44 H15       10.6981   11.3318   20.1036 H         1 RES1    0.0000
     45 C30        7.6798   11.3767   18.9025 C.ar      1 RES1    0.0000
     46 H16        6.7797   11.2261   19.1691 H         1 RES1    0.0000
     47 C31        6.2959   13.6158    5.1690 C.ar      1 RES1    0.0000
     48 C32        6.9641   10.7922    7.5542 C.ar      1 RES1    0.0000
     49 H17        7.0025    9.8429    7.5494 H         1 RES1    0.0000
     50 C33        8.6982   11.2322   19.8264 C.ar      1 RES1    0.0000
     51 H18        8.4925   10.9901   20.7213 H         1 RES1    0.0000
     52 C34       10.0909   17.5323   12.8815 C.3       1 RES1    0.0000
     53 H19        9.5660   18.0619   12.2321 H         1 RES1    0.0000
     54 H20       10.9893   17.3801   12.4961 H         1 RES1    0.0000
     55 C35        6.8568   16.7927   11.6609 C.3       1 RES1    0.0000
     56 H21        6.6837   17.4175   10.9123 H         1 RES1    0.0000
     57 H22        7.2709   17.3118   12.3958 H         1 RES1    0.0000
     58 C36        6.4731   15.7145    6.3806 C.ar      1 RES1    0.0000
     59 H23        6.4186   16.6625    6.3827 H         1 RES1    0.0000
     60 C37       11.6883   12.0192   17.7342 C.ar      1 RES1    0.0000
     61 H24       12.3931   11.9095   18.3614 H         1 RES1    0.0000
     62 C38       11.1126   16.8052    8.1750 C.3       1 RES1    0.0000
     63 H25       11.7863   16.2199    7.7711 H         1 RES1    0.0000
     64 H26       11.4139   17.7365    8.1196 H         1 RES1    0.0000
     65 H27       10.2655   16.7065    7.6919 H         1 RES1    0.0000
     66 C39       10.9153   16.4243    9.6257 C.3       1 RES1    0.0000
     67 H28       10.2297   17.0140   10.0254 H         1 RES1    0.0000
     68 H29       11.7636   16.5665   10.1151 H         1 RES1    0.0000
     69 C40        6.2502   15.0469    5.2302 C.ar      1 RES1    0.0000
     70 H30        6.0575   15.5381    4.4399 H         1 RES1    0.0000
     71 C41       11.0514   11.5951   10.2624 C.3       1 RES1    0.0000
     72 H31       10.4655   12.0478    9.6030 H         1 RES1    0.0000
     73 H32       11.7815   11.1528    9.7614 H         1 RES1    0.0000
     74 C42        6.4047   10.8090    5.1352 C.ar      1 RES1    0.0000
     75 H33        6.4251    9.8592    5.1104 H         1 RES1    0.0000
     76 C43        6.0827   12.8954    3.9927 C.ar      1 RES1    0.0000
     77 H34        5.8981   13.3626    3.1887 H         1 RES1    0.0000
     78 C44        5.5230   16.2318   12.1508 C.3       1 RES1    0.0000
     79 H35        4.9075   16.9831   12.3430 H         1 RES1    0.0000
     80 H36        5.1189   15.6846   11.4297 H         1 RES1    0.0000
     81 C45       10.2308   18.3249   14.1686 C.3       1 RES1    0.0000
     82 H37        9.3416   18.5029   14.5392 H         1 RES1    0.0000
     83 H38       10.6819   19.1749   13.9796 H         1 RES1    0.0000
     84 H39       10.7583   17.8097   14.8137 H         1 RES1    0.0000
     85 C46        6.1349   11.5155    3.9806 C.ar      1 RES1    0.0000
     86 H40        5.9826   11.0471    3.1676 H         1 RES1    0.0000
     87 C47       10.2513   10.5438   10.9846 C.3       1 RES1    0.0000
     88 H41       10.8169   10.1033   11.6514 H         1 RES1    0.0000
     89 H42        9.9288    9.8787   10.3421 H         1 RES1    0.0000
     90 H43        9.4863   10.9641   11.4297 H         1 RES1    0.0000
     91 C48        5.6643   15.3798   13.3983 C.3       1 RES1    0.0000
     92 H44        6.2087   14.5911   13.1930 H         1 RES1    0.0000
     93 H45        4.7773   15.0939   13.6998 H         1 RES1    0.0000
     94 H46        6.0981   15.9043   14.1063 H         1 RES1    0.0000
     95 C49        9.3754   12.3339   55.6575 C.ar      2 RES2    0.0000
     96 C50        8.7130   13.3715   53.0981 C.ar      2 RES2    0.0000
     97 C51        9.3082   13.7298   55.4443 C.ar      2 RES2    0.0000
     98 C52        7.3000   13.4631   51.0382 C.2       2 RES2    0.0000
     99 C53        7.7413   10.0040   47.2793 C.ar      2 RES2    0.0000
    100 C54        8.3555   13.9235   51.7540 C.2       2 RES2    0.0000
    101 C55        8.9909   14.2159   54.1756 C.ar      2 RES2    0.0000
    102 H47        8.9626   15.1557   54.0389 H         2 RES2    0.0000
    103 C56        6.3446   10.2499   47.3326 C.ar      2 RES2    0.0000
    104 C57        6.3003   12.4876   51.6009 C.2       2 RES2    0.0000
    105 C58        6.5318   10.8839   49.6845 C.ar      2 RES2    0.0000
    106 C59        5.8894   11.3839   50.9421 C.2       2 RES2    0.0000
    107 C60        9.9307   12.6979   58.0253 C.ar      2 RES2    0.0000
    108 C61        9.6823   11.8130   56.9441 C.ar      2 RES2    0.0000
    109 C62        8.5214   10.1811   48.4497 C.ar      2 RES2    0.0000
    110 C63        9.7546    9.3968   46.0001 C.ar      2 RES2    0.0000
    111 C64        8.7962   11.9936   53.3236 C.ar      2 RES2    0.0000
    112 H48        8.6340   11.4018   52.5977 H         2 RES2    0.0000
    113 C65        7.8947   10.6181   49.6259 C.ar      2 RES2    0.0000
    114 H49        8.4193   10.7363   50.4068 H         2 RES2    0.0000
    115 C66        9.7062   10.4133   57.1606 C.ar      2 RES2    0.0000
    116 C67        8.3549    9.5906   46.0582 C.ar      2 RES2    0.0000
    117 C68        5.6275   12.9291   52.8923 C.3       2 RES2    0.0000
    118 H50        6.2640   13.4814   53.4107 H         2 RES2    0.0000
    119 H51        5.4133   12.1275   53.4318 H         2 RES2    0.0000
    120 C69        9.1083   11.4558   54.5742 C.ar      2 RES2    0.0000
    121 C70        5.7713   10.6761   48.5321 C.ar      2 RES2    0.0000
    122 H52        4.8343   10.8290   48.5643 H         2 RES2    0.0000
    123 C71        6.9736   13.9456   49.6355 C.3       2 RES2    0.0000
    124 H53        7.1115   13.1933   49.0077 H         2 RES2    0.0000
    125 H54        7.6174   14.6578   49.3931 H         2 RES2    0.0000
    126 C72        9.5586   14.5965   56.5577 C.ar      2 RES2    0.0000
    127 H55        9.5156   15.5381   56.4304 H         2 RES2    0.0000
    128 C73        9.9707    9.9269   58.4424 C.ar      2 RES2    0.0000
    129 H56        9.9776    8.9903   58.6002 H         2 RES2    0.0000
    130 C74        9.8538   14.1047   57.7814 C.ar      2 RES2    0.0000
    131 H57       10.0133   14.7083   58.4946 H         2 RES2    0.0000
    132 C75        7.5694    9.4241   44.8899 C.ar      2 RES2    0.0000
    133 C76        5.5853   10.0755   46.1300 C.ar      2 RES2    0.0000
    134 H58        4.6504   10.2465   46.1411 H         2 RES2    0.0000
    135 C77        9.3144   14.9964   51.2646 C.3       2 RES2    0.0000
    136 H59        8.8861   15.4926   50.5229 H         2 RES2    0.0000
    137 H60        9.4782   15.6374   52.0011 H         2 RES2    0.0000
    138 C78        9.9333    9.9401   48.3637 C.ar      2 RES2    0.0000
    139 H61       10.4688   10.0366   49.1397 H         2 RES2    0.0000
    140 C79        9.1571   10.0445   54.8250 C.ar      2 RES2    0.0000
    141 H62        8.9935    9.4410   54.1075 H         2 RES2    0.0000
    142 C80       10.2038   12.1607   59.2807 C.ar      2 RES2    0.0000
    143 H63       10.3810   12.7426   60.0098 H         2 RES2    0.0000
    144 C81        5.5654   14.4848   49.4380 C.3       2 RES2    0.0000
    145 H64        5.4475   15.3054   49.9791 H         2 RES2    0.0000
    146 H65        4.9075   13.8133   49.7521 H         2 RES2    0.0000
    147 C82       10.3450    9.0394   44.7859 C.ar      2 RES2    0.0000
    148 H66       11.2854    8.9089   44.7368 H         2 RES2    0.0000
    149 C83        8.2083    9.0560   43.7026 C.ar      2 RES2    0.0000
    150 H67        7.6922    8.9301   42.9154 H         2 RES2    0.0000
    151 C84       10.2219   10.7986   59.4798 C.ar      2 RES2    0.0000
    152 H68       10.4102   10.4548   60.3424 H         2 RES2    0.0000
    153 C85        4.3490   13.7284   52.6700 C.3       2 RES2    0.0000
    154 H69        4.5707   14.5732   52.2017 H         2 RES2    0.0000
    155 H70        3.7379   13.2112   52.0856 H         2 RES2    0.0000
    156 C86        4.7155   10.5366   51.4109 C.3       2 RES2    0.0000
    157 H71        4.0779   10.4320   50.6602 H         2 RES2    0.0000
    158 H72        4.2471   11.0161   52.1384 H         2 RES2    0.0000
    159 C87        9.4312    9.5515   56.0551 C.ar      2 RES2    0.0000
    160 H73        9.4408    8.6111   56.1876 H         2 RES2    0.0000
    161 C88       10.5163    9.5788   47.2038 C.ar      2 RES2    0.0000
    162 H74       11.4561    9.4410   47.1811 H         2 RES2    0.0000
    163 C89        9.5686    8.8734   43.6535 C.ar      2 RES2    0.0000
    164 H75        9.9808    8.6307   42.8310 H         2 RES2    0.0000
    165 C90        6.1687    9.6731   44.9791 C.ar      2 RES2    0.0000
    166 H76        5.6297    9.5533   44.2089 H         2 RES2    0.0000
    167 C91       10.6424   14.4520   50.7863 C.3       2 RES2    0.0000
    168 H77       11.2740   15.2046   50.6707 H         2 RES2    0.0000
    169 H78       11.0105   13.8524   51.4837 H         2 RES2    0.0000
    170 C92        3.6415   14.0481   53.9803 C.3       2 RES2    0.0000
    171 H79        3.4842   13.2177   54.4771 H         2 RES2    0.0000
    172 H80        2.7847   14.4837   53.7908 H         2 RES2    0.0000
    173 H81        4.2015   14.6481   54.5141 H         2 RES2    0.0000
    174 C93       10.5503   13.6953   49.4908 C.3       2 RES2    0.0000
    175 H82        9.9190   12.9525   49.5885 H         2 RES2    0.0000
    176 H83       11.4334   13.3430   49.2559 H         2 RES2    0.0000
    177 H84       10.2378   14.2966   48.7807 H         2 RES2    0.0000
    178 C94        5.1174    9.1530   51.9119 C.3       2 RES2    0.0000
    179 H85        4.3040    8.6665   52.2017 H         2 RES2    0.0000
    180 H86        5.5239    8.6453   51.1670 H         2 RES2    0.0000
    181 C95        5.3081   14.8036   47.9730 C.3       2 RES2    0.0000
    182 H87        6.0396   15.3559   47.6246 H         2 RES2    0.0000
    183 H88        4.4618   15.2908   47.8885 H         2 RES2    0.0000
    184 H89        5.2572   13.9695   47.4609 H         2 RES2    0.0000
    185 C96        6.0893    9.2002   53.0559 C.3       2 RES2    0.0000
    186 H90        6.8821    9.7095   52.7877 H         2 RES2    0.0000
    187 H91        6.3535    8.2873   53.2998 H         2 RES2    0.0000
    188 H92        5.6654    9.6330   53.8277 H         2 RES2    0.0000
@<TRIPOS>BOND
     1    1    2 2
     2    2    7 1
     3    3    6 ar
     4    4    5 ar
     5    5   14 ar
     6    6    9 ar
     7    7   14 ar
     8    8    1 1
     9    9   10 1
    10   11    8 2
    11   12    4 ar
    12   13   12 ar
    13   14   15 1
    14   16    4 ar
    15   17    3 ar
    16   18    3 ar
    17   19   17 ar
    18   20   19 1
    19   21    1 1
    20   22   21 1
    21   23   21 1
    22   24    9 ar
    23   25    7 ar
    24   26   25 1
    25   27    6 ar
    26   28   27 1
    27   29    5 ar
    28   30   29 1
    29   31   12 ar
    30   32   18 ar
    31   33    2 1
    32   34   33 1
    33   35   33 1
    34   36   13 ar
    35   37   36 1
    36   38    8 1
    37   39   38 1
    38   40   38 1
    39   41   16 ar
    40   42   41 1
    41   43   31 ar
    42   44   43 1
    43   45   13 ar
    44   46   45 1
    45   47   18 ar
    46   48   27 ar
    47   49   48 1
    48   50   43 ar
    49   51   50 1
    50   52   38 1
    51   53   52 1
    52   54   52 1
    53   55   11 1
    54   56   55 1
    55   57   55 1
    56   58   17 ar
    57   59   58 1
    58   60   31 ar
    59   61   60 1
    60   62   63 1
    61   64   62 1
    62   65   62 1
    63   66   21 1
    64   67   66 1
    65   68   66 1
    66   69   47 ar
    67   70   69 1
    68   71   33 1
    69   72   71 1
    70   73   71 1
    71   74   32 ar
    72   75   74 1
    73   76   47 ar
    74   77   76 1
    75   78   55 1
    76   79   78 1
    77   80   78 1
    78   81   52 1
    79   82   81 1
    80   83   81 1
    81   84   81 1
    82   85   74 ar
    83   86   85 1
    84   87   71 1
    85   88   87 1
    86   89   87 1
    87   90   87 1
    88   91   78 1
    89   92   91 1
    90   93   91 1
    91   94   91 1
    92   95   97 ar
    93   96  100 1
    94   97  101 ar
    95   98  100 2
    96   99  103 ar
    97  100  135 1
    98  101   96 ar
    99  102  101 1
   100  103  121 ar
   101  104   98 1
   102  105  106 1
   103  106  104 2
   104  107  108 ar
   105  108   95 ar
   106  109   99 ar
   107  110  116 ar
   108  111   96 ar
   109  112  111 1
   110  113  105 ar
   111  114  113 1
   112  115  108 ar
   113  116   99 ar
   114  117  104 1
   115  118  117 1
   116  119  117 1
   117  120   95 ar
   118  121  105 ar
   119  122  121 1
   120  123   98 1
   121  124  123 1
   122  125  123 1
   123  126   97 ar
   124  127  126 1
   125  128  115 ar
   126  129  128 1
   127  130  107 ar
   128  131  130 1
   129  132  116 ar
   130  133  103 ar
   131  134  133 1
   132  135  136 1
   133  137  135 1
   134  138  109 ar
   135  139  138 1
   136  140  120 ar
   137  141  140 1
   138  142  107 ar
   139  143  142 1
   140  144  123 1
   141  145  144 1
   142  146  144 1
   143  147  110 ar
   144  148  147 1
   145  149  132 ar
   146  150  149 1
   147  151  128 ar
   148  152  151 1
   149  153  117 1
   150  154  153 1
   151  155  153 1
   152  156  106 1
   153  157  156 1
   154  158  156 1
   155  159  115 ar
   156  160  159 1
   157  161  110 ar
   158  162  161 1
   159  163  147 ar
   160  164  163 1
   161  165  132 ar
   162  166  165 1
   163  167  135 1
   164  168  167 1
   165  169  167 1
   166  170  153 1
   167  171  170 1
   168  172  170 1
   169  173  170 1
   170  174  167 1
   171  175  174 1
   172  176  174 1
   173  177  174 1
   174  178  156 1
   175  179  178 1
   176  180  178 1
   177  181  144 1
   178  182  181 1
   179  183  181 1
   180  184  181 1
   181  185  178 1
   182  186  185 1
   183  187  185 1
   184  188  185 1
   185   11   24 1
   186   16   25 ar
   187   19   24 ar
   188   29   36 ar
   189   32   48 ar
   190   41   60 ar
   191   45   50 ar
   192   58   69 ar
   193   62   66 1
   194   76   85 ar
   195  109  113 ar
   196  111  120 ar
   197  126  130 ar
   198  133  165 ar
   199  138  161 ar
   200  140  159 ar
   201  142  151 ar
   202  149  163 ar
@<TRIPOS>SUBSTRUCTURE
     1 RES1 1
     2 RES2 95

@<TRIPOS>CRYSIN
  16.2660   16.2720   52.7930  90.0000  90.0000  90.0000  61 1

