# MOL2 file generated by ConQuest
# Please check atom types

@<TRIPOS>MOLECULE
ONADUE
    98   109     1
SMALL
NO_CHARGES
****
Generated from CSD

@<TRIPOS>ATOM
      1 C1         3.1461   19.2974    5.9772 C.ar      1 RES1    0.0000
      2 C2         2.2545   19.8124    1.0075 C.ar      1 RES1    0.0000
      3 C3         6.5005   19.4934    3.4122 C.ar      1 RES1    0.0000
      4 C4         6.7852   22.2128    4.0878 C.ar      1 RES1    0.0000
      5 C5         1.7609   19.3375    6.0324 C.ar      1 RES1    0.0000
      6 H1         1.2524   18.9332    5.3382 H         1 RES1    0.0000
      7 C6         2.4032   18.4329    1.3087 C.ar      1 RES1    0.0000
      8 C7         2.9237   18.0626    2.5459 C.ar      1 RES1    0.0000
      9 H2         3.0269   17.1388    2.7440 H         1 RES1    0.0000
     10 C8         3.8211   18.6123    4.8417 C.2       1 RES1    0.0000
     11 C9         4.8205   17.7196    5.0028 C.2       1 RES1    0.0000
     12 C10        5.5932   17.2105    3.8299 C.2       1 RES1    0.0000
     13 C11        2.6282   20.7824    1.9723 C.ar      1 RES1    0.0000
     14 C12        6.3016   18.0544    3.0473 C.2       1 RES1    0.0000
     15 C13        1.7278   20.2159   -0.2480 C.ar      1 RES1    0.0000
     16 C14        3.2982   19.0072    3.5025 C.ar      1 RES1    0.0000
     17 C15        3.1248   20.3599    3.1990 C.ar      1 RES1    0.0000
     18 H3         3.3536   21.0117    3.8510 H         1 RES1    0.0000
     19 C16        6.2850   21.8417    2.8137 C.ar      1 RES1    0.0000
     20 C17        7.0170   19.8694    4.6529 C.ar      1 RES1    0.0000
     21 H4         7.2661   19.1948    5.2727 H         1 RES1    0.0000
     22 C18        6.1748   20.4879    2.5000 C.ar      1 RES1    0.0000
     23 H5         5.8679   20.2392    1.6371 H         1 RES1    0.0000
     24 C19        5.5364   15.7196    3.6843 C.ar      1 RES1    0.0000
     25 C20        6.9007   23.5907    4.4343 C.ar      1 RES1    0.0000
     26 C21        1.3431   19.2416   -1.2042 C.ar      1 RES1    0.0000
     27 C22        6.8733   17.6806    1.7206 C.ar      1 RES1    0.0000
     28 C23        7.1757   21.2073    5.0054 C.ar      1 RES1    0.0000
     29 C24        5.2096   17.1086    6.3053 C.ar      1 RES1    0.0000
     30 C25        1.9904   17.4693    0.3285 C.ar      1 RES1    0.0000
     31 H6         2.0738   16.5420    0.5207 H         1 RES1    0.0000
     32 C26        1.5886   21.5966   -0.5456 C.ar      1 RES1    0.0000
     33 C27        3.8689   19.9240    6.9890 C.ar      1 RES1    0.0000
     34 H7         4.8176   19.9265    6.9603 H         1 RES1    0.0000
     35 C28        1.8363   20.5561    8.0877 C.ar      1 RES1    0.0000
     36 H8         1.3903   20.9769    8.8128 H         1 RES1    0.0000
     37 C29        1.1086   19.9555    7.0817 C.ar      1 RES1    0.0000
     38 H9         0.1602   19.9673    7.1102 H         1 RES1    0.0000
     39 C30        1.4861   17.8580   -0.8590 C.ar      1 RES1    0.0000
     40 H10        1.2174   17.1960   -1.4853 H         1 RES1    0.0000
     41 C31        3.2118   20.5453    8.0373 C.ar      1 RES1    0.0000
     42 H11        3.7124   20.9667    8.7266 H         1 RES1    0.0000
     43 C32        4.3804   15.0364    4.0707 C.ar      1 RES1    0.0000
     44 H12        3.6118   15.5324    4.3249 H         1 RES1    0.0000
     45 C33        7.4429   23.9604    5.6908 C.ar      1 RES1    0.0000
     46 C34        1.9897   22.5469    0.4407 C.ar      1 RES1    0.0000
     47 H13        1.9098   23.4744    0.2472 H         1 RES1    0.0000
     48 C35        5.8778   22.8760    1.9100 C.ar      1 RES1    0.0000
     49 H14        5.5457   22.6406    1.0508 H         1 RES1    0.0000
     50 C36        2.4764   22.1705    1.6374 C.ar      1 RES1    0.0000
     51 H15        2.7239   22.8347    2.2702 H         1 RES1    0.0000
     52 C37        6.1013   17.0272    0.7629 C.ar      1 RES1    0.0000
     53 H16        5.2099   16.7750    0.9703 H         1 RES1    0.0000
     54 C38        7.7318   21.6175    6.2624 C.ar      1 RES1    0.0000
     55 H17        8.0131   20.9565    6.8835 H         1 RES1    0.0000
     56 C39        6.4828   24.5897    3.5204 C.ar      1 RES1    0.0000
     57 C40        0.8421   19.6649   -2.4399 C.ar      1 RES1    0.0000
     58 H18        0.5857   19.0211   -3.0906 H         1 RES1    0.0000
     59 C41        6.5360   16.7237    6.5138 C.ar      1 RES1    0.0000
     60 H19        7.1769   16.8915    5.8346 H         1 RES1    0.0000
     61 C42        8.1656   18.0609    1.3745 C.ar      1 RES1    0.0000
     62 H20        8.6995   18.5326    2.0023 H         1 RES1    0.0000
     63 C43        4.3313   13.6550    4.0904 C.ar      1 RES1    0.0000
     64 H21        3.5334   13.2128    4.3530 H         1 RES1    0.0000
     65 C44        5.9571   24.1781    2.2556 C.ar      1 RES1    0.0000
     66 H22        5.6568   24.8376    1.6427 H         1 RES1    0.0000
     67 C45        0.7178   21.0133   -2.7204 C.ar      1 RES1    0.0000
     68 H23        0.3787   21.2876   -3.5645 H         1 RES1    0.0000
     69 C46        7.8660   22.9203    6.5835 C.ar      1 RES1    0.0000
     70 H24        8.2505   23.1556    7.4211 H         1 RES1    0.0000
     71 C47        4.2892   16.8143    7.3024 C.ar      1 RES1    0.0000
     72 H25        3.3727   17.0244    7.1757 H         1 RES1    0.0000
     73 C48        6.6206   16.7421   -0.4881 C.ar      1 RES1    0.0000
     74 H26        6.0823   16.2988   -1.1332 H         1 RES1    0.0000
     75 C49        1.0792   21.9663   -1.7901 C.ar      1 RES1    0.0000
     76 H27        0.9804   22.8878   -2.0004 H         1 RES1    0.0000
     77 C50        6.6047   25.9306    3.8872 C.ar      1 RES1    0.0000
     78 H28        6.3269   26.6095    3.2835 H         1 RES1    0.0000
     79 C51        7.9167   17.1002   -0.8037 C.ar      1 RES1    0.0000
     80 H29        8.2764   16.8915   -1.6577 H         1 RES1    0.0000
     81 C52        6.6443   14.9630    3.3215 C.ar      1 RES1    0.0000
     82 H30        7.4459   15.3975    3.0550 H         1 RES1    0.0000
     83 C53        5.4340   12.9250    3.7300 C.ar      1 RES1    0.0000
     84 H31        5.4037   11.9763    3.7443 H         1 RES1    0.0000
     85 C54        7.5416   25.3183    6.0024 C.ar      1 RES1    0.0000
     86 H32        7.9049   25.5815    6.8405 H         1 RES1    0.0000
     87 C55        8.6834   17.7617    0.1272 C.ar      1 RES1    0.0000
     88 H33        9.5736   18.0156   -0.0880 H         1 RES1    0.0000
     89 C56        6.9367   16.1110    7.6728 C.ar      1 RES1    0.0000
     90 H34        7.8451   15.8512    7.7826 H         1 RES1    0.0000
     91 C57        6.5863   13.5766    3.3462 C.ar      1 RES1    0.0000
     92 H35        7.3500   13.0697    3.0962 H         1 RES1    0.0000
     93 C58        7.1197   26.2811    5.1105 C.ar      1 RES1    0.0000
     94 H36        7.1865   27.2001    5.3457 H         1 RES1    0.0000
     95 C59        6.0374   15.8733    8.6656 C.ar      1 RES1    0.0000
     96 H37        6.3233   15.4752    9.4796 H         1 RES1    0.0000
     97 C60        4.7088   16.2101    8.4903 C.ar      1 RES1    0.0000
     98 H38        4.0790   16.0311    9.1780 H         1 RES1    0.0000
@<TRIPOS>BOND
     1    1    5 ar
     2    2    7 ar
     3    3   14 1
     4    4   19 ar
     5    5    6 1
     6    7    8 ar
     7    8    9 1
     8   10    1 1
     9   11   10 2
    10   12   11 1
    11   13    2 ar
    12   14   12 2
    13   15    2 ar
    14   16    8 ar
    15   17   13 ar
    16   18   17 1
    17   19   22 ar
    18   20    3 ar
    19   21   20 1
    20   22    3 ar
    21   23   22 1
    22   24   12 1
    23   25    4 ar
    24   26   15 ar
    25   27   14 1
    26   28    4 ar
    27   29   11 1
    28   30    7 ar
    29   31   30 1
    30   32   15 ar
    31   33    1 ar
    32   34   33 1
    33   35   36 1
    34   37    5 ar
    35   38   37 1
    36   39   26 ar
    37   40   39 1
    38   41   33 ar
    39   42   41 1
    40   43   24 ar
    41   44   43 1
    42   45   25 ar
    43   46   32 ar
    44   47   46 1
    45   48   19 ar
    46   49   48 1
    47   50   13 ar
    48   51   50 1
    49   52   27 ar
    50   53   52 1
    51   54   28 ar
    52   55   54 1
    53   56   25 ar
    54   57   26 ar
    55   58   57 1
    56   59   29 ar
    57   60   59 1
    58   61   27 ar
    59   62   61 1
    60   63   43 ar
    61   64   63 1
    62   65   48 ar
    63   66   65 1
    64   67   57 ar
    65   68   67 1
    66   69   45 ar
    67   70   69 1
    68   71   29 ar
    69   72   71 1
    70   73   52 ar
    71   74   73 1
    72   75   32 ar
    73   76   75 1
    74   77   56 ar
    75   78   77 1
    76   79   73 ar
    77   80   79 1
    78   81   24 ar
    79   82   81 1
    80   83   63 ar
    81   84   83 1
    82   85   45 ar
    83   86   85 1
    84   87   61 ar
    85   88   87 1
    86   89   59 ar
    87   90   89 1
    88   91   81 ar
    89   92   91 1
    90   93   77 ar
    91   94   93 1
    92   95   89 ar
    93   96   95 1
    94   97   71 ar
    95   98   97 1
    96   10   16 1
    97   16   17 ar
    98   20   28 ar
    99   30   39 ar
   100   35   37 ar
   101   35   41 ar
   102   46   50 ar
   103   54   69 ar
   104   56   65 ar
   105   67   75 ar
   106   79   87 ar
   107   83   91 ar
   108   85   93 ar
   109   95   97 ar
@<TRIPOS>SUBSTRUCTURE
     1 RES1 1

@<TRIPOS>CRYSIN
  21.3322   20.4374   19.9075  90.0000 109.7990  90.0000  15 1

