# MOL2 file generated by ConQuest
# Please check atom types

@<TRIPOS>MOLECULE
OPOPOZ
    94   107     1
SMALL
NO_CHARGES
****
Generated from CSD

@<TRIPOS>ATOM
      1 C1        11.8441    3.8691   12.5223 C.ar      1 RES1    0.0000
      2 C2        12.2006    4.9984   13.2440 C.ar      1 RES1    0.0000
      3 C3        12.4649    6.2325   12.5486 C.ar      1 RES1    0.0000
      4 C4        12.4649    6.2325   11.0928 C.ar      1 RES1    0.0000
      5 C5        12.2181    5.0047   10.3812 C.ar      1 RES1    0.0000
      6 C6        11.8491    3.8778   11.0732 C.ar      1 RES1    0.0000
      7 C7        11.5226    2.5167   10.6156 C.ar      1 RES1    0.0000
      8 C8        11.3605    1.8523    9.3836 C.ar      1 RES1    0.0000
      9 H1        11.4951    2.3197    8.5701 H         1 RES1    0.0000
     10 C9        11.0078    0.5285    9.3654 C.ar      1 RES1    0.0000
     11 H2        10.9392    0.0947    8.5223 H         1 RES1    0.0000
     12 C10       10.7385   -0.2318   10.5309 C.ar      1 RES1    0.0000
     13 C11       10.3907   -1.6005   10.5826 C.ar      1 RES1    0.0000
     14 H3        10.2748   -2.0791    9.7705 H         1 RES1    0.0000
     15 C12       10.2150   -2.2649   11.7882 C.ar      1 RES1    0.0000
     16 H4         9.9794   -3.1848   11.7839 H         1 RES1    0.0000
     17 C13       10.3795   -1.6030   13.0039 C.ar      1 RES1    0.0000
     18 H5        10.2461   -2.0704   13.8212 H         1 RES1    0.0000
     19 C14       10.7447   -0.2318   13.0235 C.ar      1 RES1    0.0000
     20 C15       10.9616    0.5036   14.2172 C.ar      1 RES1    0.0000
     21 H6        10.8607    0.0648   15.0551 H         1 RES1    0.0000
     22 C16       11.3156    1.8436   14.2000 C.ar      1 RES1    0.0000
     23 H7        11.4378    2.3122   15.0168 H         1 RES1    0.0000
     24 C17       11.4939    2.5154   12.9661 C.ar      1 RES1    0.0000
     25 C18       11.2857    1.7476   11.7959 C.ar      1 RES1    0.0000
     26 C19       10.9043    0.4188   11.7963 C.ar      1 RES1    0.0000
     27 C20       12.3951    4.7865   14.6758 C.ar      1 RES1    0.0000
     28 C21       11.3555    4.8900   15.6122 C.ar      1 RES1    0.0000
     29 H8        10.4992    5.1904   15.3277 H         1 RES1    0.0000
     30 C22       11.5612    4.5572   16.9561 C.ar      1 RES1    0.0000
     31 H9        10.8494    4.6170   17.5850 H         1 RES1    0.0000
     32 C23       12.8538    4.1246   17.3679 C.ar      1 RES1    0.0000
     33 H10       13.0158    3.8978   18.2784 H         1 RES1    0.0000
     34 C24       13.8460    4.0411   16.4626 C.ar      1 RES1    0.0000
     35 H11       14.7011    3.7332   16.7385 H         1 RES1    0.0000
     36 C25       13.6541    4.3901   15.1369 C.ar      1 RES1    0.0000
     37 H12       14.3870    4.3602   14.5338 H         1 RES1    0.0000
     38 C26       12.4761    4.8314    8.8838 C.ar      1 RES1    0.0000
     39 C27       13.7612    4.4550    8.5290 C.ar      1 RES1    0.0000
     40 H13       14.4344    4.3939    9.1966 H         1 RES1    0.0000
     41 C28       14.0716    4.1683    7.2090 C.ar      1 RES1    0.0000
     42 H14       14.9516    3.9152    6.9537 H         1 RES1    0.0000
     43 C29       13.0408    4.2630    6.2645 C.ar      1 RES1    0.0000
     44 H15       13.2427    4.0810    5.3563 H         1 RES1    0.0000
     45 C30       11.7993    4.5946    6.5801 C.ar      1 RES1    0.0000
     46 H16       11.1349    4.6569    5.9015 H         1 RES1    0.0000
     47 C31       11.4677    4.8538    7.9259 C.ar      1 RES1    0.0000
     48 H17       10.5690    5.0408    8.1732 H         1 RES1    0.0000
     49 C1A       13.0857    8.5958   12.5223 C.ar      1 RES1    0.0000
     50 C2A       12.7292    7.4665   13.2440 C.ar      1 RES1    0.0000
     51 C5A       12.7117    7.4602   10.3812 C.ar      1 RES1    0.0000
     52 C6A       13.0807    8.5871   11.0732 C.ar      1 RES1    0.0000
     53 C7A       13.4072    9.9482   10.6156 C.ar      1 RES1    0.0000
     54 C8A       13.5693   10.6126    9.3836 C.ar      1 RES1    0.0000
     55 H1A       13.4347   10.1452    8.5701 H         1 RES1    0.0000
     56 C9A       13.9220   11.9364    9.3654 C.ar      1 RES1    0.0000
     57 H2A       13.9906   12.3702    8.5223 H         1 RES1    0.0000
     58 C10A      14.1913   12.6967   10.5309 C.ar      1 RES1    0.0000
     59 C11A      14.5391   14.0654   10.5826 C.ar      1 RES1    0.0000
     60 H3A       14.6550   14.5440    9.7705 H         1 RES1    0.0000
     61 C12A      14.7148   14.7298   11.7882 C.ar      1 RES1    0.0000
     62 H4A       14.9504   15.6497   11.7839 H         1 RES1    0.0000
     63 C13A      14.5503   14.0679   13.0039 C.ar      1 RES1    0.0000
     64 H5A       14.6837   14.5353   13.8212 H         1 RES1    0.0000
     65 C14A      14.1851   12.6967   13.0235 C.ar      1 RES1    0.0000
     66 C15A      13.9682   11.9613   14.2172 C.ar      1 RES1    0.0000
     67 H6A       14.0691   12.4001   15.0551 H         1 RES1    0.0000
     68 C16A      13.6142   10.6213   14.2000 C.ar      1 RES1    0.0000
     69 H7A       13.4920   10.1527   15.0168 H         1 RES1    0.0000
     70 C17A      13.4359    9.9495   12.9661 C.ar      1 RES1    0.0000
     71 C18A      13.6441   10.7173   11.7959 C.ar      1 RES1    0.0000
     72 C19A      14.0255   12.0461   11.7963 C.ar      1 RES1    0.0000
     73 C20A      12.5347    7.6784   14.6758 C.ar      1 RES1    0.0000
     74 C21A      13.5743    7.5749   15.6122 C.ar      1 RES1    0.0000
     75 H8A       14.4306    7.2745   15.3277 H         1 RES1    0.0000
     76 C22A      13.3686    7.9077   16.9561 C.ar      1 RES1    0.0000
     77 H9A       14.0804    7.8479   17.5850 H         1 RES1    0.0000
     78 C23A      12.0760    8.3403   17.3679 C.ar      1 RES1    0.0000
     79 H10A      11.9140    8.5671   18.2784 H         1 RES1    0.0000
     80 C24A      11.0838    8.4238   16.4626 C.ar      1 RES1    0.0000
     81 H11A      10.2287    8.7317   16.7385 H         1 RES1    0.0000
     82 C25A      11.2757    8.0748   15.1369 C.ar      1 RES1    0.0000
     83 H12A      10.5428    8.1047   14.5338 H         1 RES1    0.0000
     84 C26A      12.4537    7.6335    8.8838 C.ar      1 RES1    0.0000
     85 C27A      11.1686    8.0099    8.5290 C.ar      1 RES1    0.0000
     86 H13A      10.4954    8.0710    9.1966 H         1 RES1    0.0000
     87 C28A      10.8582    8.2966    7.2090 C.ar      1 RES1    0.0000
     88 H14A       9.9782    8.5497    6.9537 H         1 RES1    0.0000
     89 C29A      11.8890    8.2019    6.2645 C.ar      1 RES1    0.0000
     90 H15A      11.6871    8.3839    5.3563 H         1 RES1    0.0000
     91 C30A      13.1305    7.8703    6.5801 C.ar      1 RES1    0.0000
     92 H16A      13.7949    7.8080    5.9015 H         1 RES1    0.0000
     93 C31A      13.4621    7.6111    7.9259 C.ar      1 RES1    0.0000
     94 H17A      14.3608    7.4241    8.1732 H         1 RES1    0.0000
@<TRIPOS>BOND
     1    1    2 ar
     2    2    3 ar
     3    3    4 ar
     4    4    5 ar
     5    5    6 ar
     6    6    1 ar
     7    7    6 1
     8    8    7 ar
     9    9    8 1
    10   10    8 ar
    11   11   10 1
    12   12   10 ar
    13   13   12 ar
    14   14   13 1
    15   15   13 ar
    16   16   15 1
    17   17   15 ar
    18   18   17 1
    19   19   17 ar
    20   20   19 ar
    21   21   20 1
    22   22   20 ar
    23   23   22 1
    24   24    1 1
    25   25    7 ar
    26   26   12 ar
    27   27    2 1
    28   28   27 ar
    29   29   28 1
    30   30   28 ar
    31   31   30 1
    32   32   30 ar
    33   33   32 1
    34   34   32 ar
    35   35   34 1
    36   36   27 ar
    37   37   36 1
    38   38    5 1
    39   39   38 ar
    40   40   39 1
    41   41   39 ar
    42   42   41 1
    43   43   41 ar
    44   44   43 1
    45   45   43 ar
    46   46   45 1
    47   47   38 ar
    48   48   47 1
    49   49   50 ar
    50   50    3 ar
    51   51    4 ar
    52   52   49 ar
    53   53   52 1
    54   54   53 ar
    55   55   54 1
    56   56   54 ar
    57   57   56 1
    58   58   56 ar
    59   59   58 ar
    60   60   59 1
    61   61   59 ar
    62   62   61 1
    63   63   61 ar
    64   64   63 1
    65   65   63 ar
    66   66   65 ar
    67   67   66 1
    68   68   66 ar
    69   69   68 1
    70   70   49 1
    71   71   53 ar
    72   72   58 ar
    73   73   50 1
    74   74   73 ar
    75   75   74 1
    76   76   74 ar
    77   77   76 1
    78   78   76 ar
    79   79   78 1
    80   80   78 ar
    81   81   80 1
    82   82   73 ar
    83   83   82 1
    84   84   51 1
    85   85   84 ar
    86   86   85 1
    87   87   85 ar
    88   88   87 1
    89   89   87 ar
    90   90   89 1
    91   91   89 ar
    92   92   91 1
    93   93   84 ar
    94   94   93 1
    95   19   26 ar
    96   22   24 ar
    97   24   25 ar
    98   25   26 ar
    99   34   36 ar
   100   45   47 ar
   101   51   52 ar
   102   65   72 ar
   103   68   70 ar
   104   70   71 ar
   105   71   72 ar
   106   80   82 ar
   107   91   93 ar
@<TRIPOS>SUBSTRUCTURE
     1 RES1 1

@<TRIPOS>CRYSIN
  12.4649   12.4649   47.8243  90.0000  90.0000  90.0000 110 1

