# MOL2 file generated by ConQuest
# Please check atom types

@<TRIPOS>MOLECULE
OQUHAL
    64    70     1
SMALL
NO_CHARGES
****
Generated from CSD

@<TRIPOS>ATOM
      1 C1         4.0354   10.8805    3.4964 C.ar      1 RES1    0.0000
      2 C2         5.1803   11.0634    4.2480 C.ar      1 RES1    0.0000
      3 H1         6.0535   10.8729    3.8444 H         1 RES1    0.0000
      4 C3         5.0978   11.5860    5.5217 C.ar      1 RES1    0.0000
      5 H2         5.9074   11.6911    6.0531 H         1 RES1    0.0000
      6 C4         3.8700   11.9431    6.0352 C.ar      1 RES1    0.0000
      7 H3         3.8053   12.2873    6.9497 H         1 RES1    0.0000
      8 C5         2.7177   11.7589    5.2872 C.ar      1 RES1    0.0000
      9 H4         1.8712   12.0054    5.6739 H         1 RES1    0.0000
     10 C6         2.7771   11.2019    4.0105 C.ar      1 RES1    0.0000
     11 C7         1.5435   10.9893    3.1990 C.ar      1 RES1    0.0000
     12 C8         0.6192   12.0066    3.1000 C.ar      1 RES1    0.0000
     13 H5         0.7463   12.8343    3.5718 H         1 RES1    0.0000
     14 C9        -0.5037   11.9294    2.2421 C.ar      1 RES1    0.0000
     15 C10       -1.4206   13.0035    2.0941 C.ar      1 RES1    0.0000
     16 H6        -1.2490   13.8188    2.6495 H         1 RES1    0.0000
     17 C11       -2.4487   12.9146    1.2023 C.ar      1 RES1    0.0000
     18 H7        -3.0495   13.6863    1.0734 H         1 RES1    0.0000
     19 C12       -2.6318   11.7575    0.4415 C.ar      1 RES1    0.0000
     20 H8        -3.3481   11.7173   -0.2109 H         1 RES1    0.0000
     21 C13       -1.7812   10.6939    0.5638 C.ar      1 RES1    0.0000
     22 H9        -1.8728    9.8822    0.0362 H         1 RES1    0.0000
     23 C14       -0.6889   10.7543    1.4711 C.ar      1 RES1    0.0000
     24 C15        0.2361    9.6983    1.6189 C.ar      1 RES1    0.0000
     25 H10        0.0848    8.8607    1.1054 H         1 RES1    0.0000
     26 C16        1.3238    9.7807    2.4570 C.ar      1 RES1    0.0000
     27 C17        2.2890    8.6478    2.5085 C.ar      1 RES1    0.0000
     28 C18        2.9532    8.3122    1.3297 C.ar      1 RES1    0.0000
     29 H11        2.7353    8.8022    0.4771 H         1 RES1    0.0000
     30 C19        3.9558    7.3613    1.3099 C.ar      1 RES1    0.0000
     31 H12        4.4321    7.1813    0.4664 H         1 RES1    0.0000
     32 C20        4.3167    6.7256    2.4785 C.ar      1 RES1    0.0000
     33 H13        5.0292    6.0504    2.4451 H         1 RES1    0.0000
     34 C21        3.6379    7.0159    3.6504 C.ar      1 RES1    0.0000
     35 H14        3.8414    6.5435    4.4557 H         1 RES1    0.0000
     36 C22        2.6084    7.9512    3.6855 C.ar      1 RES1    0.0000
     37 C23        1.8660    8.1802    4.9647 C.ar      1 RES1    0.0000
     38 C24        2.5304    8.6902    6.0503 C.ar      1 RES1    0.0000
     39 H15        3.4690    8.9070    5.9657 H         1 RES1    0.0000
     40 C25        1.8828    8.9911    7.2694 C.ar      1 RES1    0.0000
     41 C26        2.5551    9.5667    8.3727 C.ar      1 RES1    0.0000
     42 H16        3.5177    9.7806    8.2937 H         1 RES1    0.0000
     43 C27        1.8754    9.8485    9.5286 C.ar      1 RES1    0.0000
     44 H17        2.3473   10.2536   10.2808 H         1 RES1    0.0000
     45 C28        0.5084    9.5541    9.6427 C.ar      1 RES1    0.0000
     46 H18        0.0691    9.7189   10.4683 H         1 RES1    0.0000
     47 C29       -0.1722    9.0128    8.5961 C.ar      1 RES1    0.0000
     48 H19       -1.1171    8.7899    8.6707 H         1 RES1    0.0000
     49 C30        0.4924    8.7295    7.3725 C.ar      1 RES1    0.0000
     50 C31       -0.1744    8.1716    6.2599 C.ar      1 RES1    0.0000
     51 H20       -1.1029    7.9348    6.3385 H         1 RES1    0.0000
     52 C32        0.4693    7.8818    5.0835 C.ar      1 RES1    0.0000
     53 C33       -0.2853    7.1983    3.9971 C.ar      1 RES1    0.0000
     54 C34        0.2113    6.0477    3.3973 C.ar      1 RES1    0.0000
     55 H21        1.0668    5.7346    3.6506 H         1 RES1    0.0000
     56 C35       -0.5182    5.3613    2.4502 C.ar      1 RES1    0.0000
     57 H22       -0.1540    4.5575    2.0511 H         1 RES1    0.0000
     58 C36       -1.7670    5.8216    2.0755 C.ar      1 RES1    0.0000
     59 H23       -2.3033    5.3140    1.4206 H         1 RES1    0.0000
     60 C37       -2.2744    6.9707    2.6506 C.ar      1 RES1    0.0000
     61 H24       -3.1532    7.3031    2.3620 H         1 RES1    0.0000
     62 C38       -1.5427    7.6540    3.6054 C.ar      1 RES1    0.0000
     63 H25       -1.9168    8.4833    3.9999 H         1 RES1    0.0000
     64 H26        4.1258   10.5401    2.5750 H         1 RES1    0.0000
@<TRIPOS>BOND
     1    1    2 ar
     2    2    3 1
     3    4    2 ar
     4    5    4 1
     5    6    4 ar
     6    7    6 1
     7    8    6 ar
     8    9    8 1
     9   10    1 ar
    10   11   10 1
    11   12   11 ar
    12   13   12 1
    13   14   12 ar
    14   15   14 ar
    15   16   15 1
    16   17   15 ar
    17   18   17 1
    18   19   17 ar
    19   20   19 1
    20   21   19 ar
    21   22   21 1
    22   23   14 ar
    23   24   23 ar
    24   25   24 1
    25   26   11 ar
    26   27   26 1
    27   28   27 ar
    28   29   28 1
    29   30   28 ar
    30   31   30 1
    31   32   30 ar
    32   33   32 1
    33   34   32 ar
    34   35   34 1
    35   36   27 ar
    36   37   36 1
    37   38   37 ar
    38   39   38 1
    39   40   38 ar
    40   41   40 ar
    41   42   41 1
    42   43   41 ar
    43   44   43 1
    44   45   43 ar
    45   46   45 1
    46   47   45 ar
    47   48   47 1
    48   49   40 ar
    49   50   49 ar
    50   51   50 1
    51   52   37 ar
    52   53   52 1
    53   54   53 ar
    54   55   54 1
    55   56   54 ar
    56   57   56 1
    57   58   56 ar
    58   59   58 1
    59   60   58 ar
    60   61   60 1
    61   62   53 ar
    62   63   62 1
    63   64    1 1
    64    8   10 ar
    65   21   23 ar
    66   24   26 ar
    67   34   36 ar
    68   47   49 ar
    69   50   52 ar
    70   60   62 ar
@<TRIPOS>SUBSTRUCTURE
     1 RES1 1

@<TRIPOS>CRYSIN
  15.7112   15.4073   21.2986  90.0000  90.0000  90.0000  61 1

