# MOL2 file generated by ConQuest
# Please check atom types

@<TRIPOS>MOLECULE
OQUHEP
   116   128     1
SMALL
NO_CHARGES
****
Generated from CSD

@<TRIPOS>ATOM
      1 C1         1.3932    1.6264    0.4210 C.ar      1 RES1    0.0000
      2 C2         0.2354    2.2359   -0.0295 C.ar      1 RES1    0.0000
      3 H1        -0.6038    1.6631   -0.1031 H         1 RES1    0.0000
      4 C3         0.2293    3.5729   -0.3335 C.ar      1 RES1    0.0000
      5 H2        -0.5868    4.0338   -0.6305 H         1 RES1    0.0000
      6 C4         1.3764    4.3151   -0.1817 C.ar      1 RES1    0.0000
      7 H3         1.3724    5.2767   -0.3452 H         1 RES1    0.0000
      8 C5         2.5404    3.7164    0.2613 C.ar      1 RES1    0.0000
      9 H4         3.3846    4.2873    0.3476 H         1 RES1    0.0000
     10 C6         2.5652    2.3605    0.5680 C.ar      1 RES1    0.0000
     11 C7         3.8508    1.7156    0.9559 C.ar      1 RES1    0.0000
     12 C8         4.9563    1.9555    0.1702 C.ar      1 RES1    0.0000
     13 H5         4.8671    2.5745   -0.6185 H         1 RES1    0.0000
     14 C9         6.2019    1.3215    0.3846 C.ar      1 RES1    0.0000
     15 C10        7.3322    1.5394   -0.4459 C.ar      1 RES1    0.0000
     16 H6         7.2257    2.1951   -1.2131 H         1 RES1    0.0000
     17 C11        8.4992    0.8736   -0.2158 C.ar      1 RES1    0.0000
     18 H7         9.2974    1.0426   -0.7936 H         1 RES1    0.0000
     19 C12        8.6011   -0.0466    0.8336 C.ar      1 RES1    0.0000
     20 H8         9.4555   -0.5195    0.9830 H         1 RES1    0.0000
     21 C13        7.5332   -0.2835    1.6504 C.ar      1 RES1    0.0000
     22 H9         7.5693   -0.9220    2.3831 H         1 RES1    0.0000
     23 C14        6.3061    0.3954    1.4514 C.ar      1 RES1    0.0000
     24 C15        5.1748    0.1764    2.2627 C.ar      1 RES1    0.0000
     25 H10        5.2368   -0.4663    3.0280 H         1 RES1    0.0000
     26 C16        3.9627    0.7991    2.0541 C.ar      1 RES1    0.0000
     27 C17        2.8188    0.4060    2.9309 C.ar      1 RES1    0.0000
     28 C18        2.5373   -0.9631    2.9781 C.ar      1 RES1    0.0000
     29 H11        3.0969   -1.5639    2.4046 H         1 RES1    0.0000
     30 C19        1.4944   -1.4708    3.7352 C.ar      1 RES1    0.0000
     31 H12        1.3247   -2.3653    3.7065 H         1 RES1    0.0000
     32 C20        0.7105   -0.6138    4.4775 C.ar      1 RES1    0.0000
     33 H13       -0.0707   -0.9752    5.0778 H         1 RES1    0.0000
     34 C21        0.9733    0.7355    4.4511 C.ar      1 RES1    0.0000
     35 H14        0.4084    1.3688    5.0083 H         1 RES1    0.0000
     36 C22        2.0213    1.2800    3.6878 C.ar      1 RES1    0.0000
     37 C23        2.1461    2.7660    3.6921 C.ar      1 RES1    0.0000
     38 C24        1.0040    3.4947    3.4137 C.ar      1 RES1    0.0000
     39 H15        0.1700    3.0054    3.1814 H         1 RES1    0.0000
     40 C25        0.9848    4.9063    3.3967 C.ar      1 RES1    0.0000
     41 C26       -0.2183    5.6542    3.2186 C.ar      1 RES1    0.0000
     42 H16       -1.0143    5.0834    2.9704 H         1 RES1    0.0000
     43 C27       -0.1850    7.0205    3.2857 C.ar      1 RES1    0.0000
     44 H17       -1.0196    7.5285    3.1982 H         1 RES1    0.0000
     45 C28        1.0210    7.7072    3.5113 C.ar      1 RES1    0.0000
     46 H18        0.9915    8.7342    3.5123 H         1 RES1    0.0000
     47 C29        2.1831    7.0255    3.6578 C.ar      1 RES1    0.0000
     48 H19        3.0554    7.5179    3.7904 H         1 RES1    0.0000
     49 C30        2.1901    5.6063    3.6233 C.ar      1 RES1    0.0000
     50 C31        3.3471    4.8504    3.8959 C.ar      1 RES1    0.0000
     51 H20        4.1963    5.3512    4.0949 H         1 RES1    0.0000
     52 C32        3.3512    3.4800    3.9877 C.ar      1 RES1    0.0000
     53 C33        4.6376    2.8341    4.3866 C.ar      1 RES1    0.0000
     54 C34        5.7587    3.1667    3.6137 C.ar      1 RES1    0.0000
     55 H21        5.6199    3.7926    2.8338 H         1 RES1    0.0000
     56 C35        7.0048    2.6353    3.8705 C.ar      1 RES1    0.0000
     57 H22        7.7702    2.8653    3.2845 H         1 RES1    0.0000
     58 C36        7.1753    1.7713    4.9294 C.ar      1 RES1    0.0000
     59 H23        8.0677    1.3865    5.1377 H         1 RES1    0.0000
     60 C37        6.0905    1.4584    5.7270 C.ar      1 RES1    0.0000
     61 H24        6.1975    0.8777    6.5355 H         1 RES1    0.0000
     62 C38        4.8027    1.9702    5.4839 C.ar      1 RES1    0.0000
     63 C39        3.7200    1.4795    6.3899 C.ar      1 RES1    0.0000
     64 C40        3.6115    0.1156    6.5345 C.ar      1 RES1    0.0000
     65 H25        4.2252   -0.4681    6.0104 H         1 RES1    0.0000
     66 C41        2.6419   -0.5020    7.3434 C.ar      1 RES1    0.0000
     67 C42        2.5406   -1.9108    7.4710 C.ar      1 RES1    0.0000
     68 H26        3.2111   -2.4859    6.9478 H         1 RES1    0.0000
     69 C43        1.5689   -2.4656    8.2461 C.ar      1 RES1    0.0000
     70 H27        1.4929   -3.4415    8.3384 H         1 RES1    0.0000
     71 C44        0.6553   -1.6585    8.9382 C.ar      1 RES1    0.0000
     72 H28       -0.0179   -2.0550    9.5059 H         1 RES1    0.0000
     73 C45        0.7205   -0.2959    8.8370 C.ar      1 RES1    0.0000
     74 H29        0.0926    0.3067    9.2830 H         1 RES1    0.0000
     75 C46        1.7118    0.3149    8.0322 C.ar      1 RES1    0.0000
     76 C47        1.8360    1.7128    7.8903 C.ar      1 RES1    0.0000
     77 H30        1.2499    2.2802    8.3959 H         1 RES1    0.0000
     78 C48        2.8113    2.3137    7.1257 C.ar      1 RES1    0.0000
     79 C49        2.8524    3.8020    7.1147 C.ar      1 RES1    0.0000
     80 C50        1.6795    4.4955    6.7855 C.ar      1 RES1    0.0000
     81 H31        0.8684    3.9540    6.5475 H         1 RES1    0.0000
     82 C51        1.6312    5.8746    6.7603 C.ar      1 RES1    0.0000
     83 H32        0.8057    6.3459    6.5307 H         1 RES1    0.0000
     84 C52        2.7733    6.6033    7.0329 C.ar      1 RES1    0.0000
     85 H33        2.7646    7.6189    6.9958 H         1 RES1    0.0000
     86 C53        3.9358    5.9386    7.3866 C.ar      1 RES1    0.0000
     87 H34        4.7760    6.4717    7.6191 H         1 RES1    0.0000
     88 C54        3.9862    4.5506    7.4834 C.ar      1 RES1    0.0000
     89 C55        5.2124    3.9350    8.0785 C.ar      1 RES1    0.0000
     90 C56        6.4292    4.1119    7.4765 C.ar      1 RES1    0.0000
     91 H35        6.4745    4.6472    6.6098 H         1 RES1    0.0000
     92 C57        7.6241    3.5653    8.0018 C.ar      1 RES1    0.0000
     93 C58        8.8825    3.7483    7.3842 C.ar      1 RES1    0.0000
     94 H36        8.9138    4.3174    6.5522 H         1 RES1    0.0000
     95 C59       10.0023    3.1736    7.9025 C.ar      1 RES1    0.0000
     96 H37       10.8804    3.3157    7.4705 H         1 RES1    0.0000
     97 C60        9.9282    2.3853    9.0607 C.ar      1 RES1    0.0000
     98 H38       10.7515    1.9699    9.4172 H         1 RES1    0.0000
     99 C61        8.7350    2.2085    9.6958 C.ar      1 RES1    0.0000
    100 H39        8.6802    1.6844   10.5224 H         1 RES1    0.0000
    101 C62        7.5481    2.7875    9.1799 C.ar      1 RES1    0.0000
    102 C63        6.2928    2.6323    9.8058 C.ar      1 RES1    0.0000
    103 H40        6.2319    2.1348   10.6543 H         1 RES1    0.0000
    104 C64        5.1391    3.2064    9.3158 C.ar      1 RES1    0.0000
    105 C65        3.8896    3.1128   10.1113 C.ar      1 RES1    0.0000
    106 C66        3.5021    1.8967   10.6658 C.ar      1 RES1    0.0000
    107 H41        4.0497    1.0426   10.4433 H         1 RES1    0.0000
    108 C67        2.3663    1.8174   11.4543 C.ar      1 RES1    0.0000
    109 H42        2.0686    0.9380   11.7859 H         1 RES1    0.0000
    110 C68        1.6129    2.9378   11.6970 C.ar      1 RES1    0.0000
    111 H43        0.7760    2.9114   12.2726 H         1 RES1    0.0000
    112 C69        1.9800    4.1536   11.1558 C.ar      1 RES1    0.0000
    113 H44        1.4240    4.9682   11.3136 H         1 RES1    0.0000
    114 C70        3.1133    4.2437   10.3724 C.ar      1 RES1    0.0000
    115 H45        3.3855    5.1508   10.0262 H         1 RES1    0.0000
    116 H46        1.3972    0.6596    0.6185 H         1 RES1    0.0000
@<TRIPOS>BOND
     1    1    2 ar
     2    2    3 1
     3    4    2 ar
     4    5    4 1
     5    6    4 ar
     6    7    6 1
     7    8    6 ar
     8    9    8 1
     9   10    1 ar
    10   11   10 1
    11   12   11 ar
    12   13   12 1
    13   14   12 ar
    14   15   14 ar
    15   16   15 1
    16   17   15 ar
    17   18   17 1
    18   19   17 ar
    19   20   19 1
    20   21   19 ar
    21   22   21 1
    22   23   14 ar
    23   24   23 ar
    24   25   24 1
    25   26   11 ar
    26   27   26 1
    27   28   27 ar
    28   29   28 1
    29   30   28 ar
    30   31   30 1
    31   32   30 ar
    32   33   32 1
    33   34   32 ar
    34   35   34 1
    35   36   27 ar
    36   37   36 1
    37   38   37 ar
    38   39   38 1
    39   40   38 ar
    40   41   40 ar
    41   42   41 1
    42   43   41 ar
    43   44   43 1
    44   45   43 ar
    45   46   45 1
    46   47   45 ar
    47   48   47 1
    48   49   40 ar
    49   50   49 ar
    50   51   50 1
    51   52   37 ar
    52   53   52 1
    53   54   53 ar
    54   55   54 1
    55   56   54 ar
    56   57   56 1
    57   58   56 ar
    58   59   58 1
    59   60   58 ar
    60   61   60 1
    61   62   53 ar
    62   63   62 1
    63   64   63 ar
    64   65   64 1
    65   66   64 ar
    66   67   66 ar
    67   68   67 1
    68   69   67 ar
    69   70   69 1
    70   71   69 ar
    71   72   71 1
    72   73   71 ar
    73   74   73 1
    74   75   66 ar
    75   76   75 ar
    76   77   76 1
    77   78   63 ar
    78   79   78 1
    79   80   79 ar
    80   81   80 1
    81   82   80 ar
    82   83   82 1
    83   84   82 ar
    84   85   84 1
    85   86   84 ar
    86   87   86 1
    87   88   79 ar
    88   89   88 1
    89   90   89 ar
    90   91   90 1
    91   92   90 ar
    92   93   92 ar
    93   94   93 1
    94   95   93 ar
    95   96   95 1
    96   97   95 ar
    97   98   97 1
    98   99   97 ar
    99  100   99 1
   100  101   92 ar
   101  102  101 ar
   102  103  102 1
   103  104   89 ar
   104  105  104 1
   105  106  105 ar
   106  107  106 1
   107  108  106 ar
   108  109  108 1
   109  110  108 ar
   110  111  110 1
   111  112  110 ar
   112  113  112 1
   113  114  105 ar
   114  115  114 1
   115  116    1 1
   116    8   10 ar
   117   21   23 ar
   118   24   26 ar
   119   34   36 ar
   120   47   49 ar
   121   50   52 ar
   122   60   62 ar
   123   73   75 ar
   124   76   78 ar
   125   86   88 ar
   126   99  101 ar
   127  102  104 ar
   128  112  114 ar
@<TRIPOS>SUBSTRUCTURE
     1 RES1 1

@<TRIPOS>CRYSIN
  22.5254   17.7308   24.2495  90.0000  98.6360  90.0000  15 1

