# MOL2 file generated by ConQuest
# Please check atom types

@<TRIPOS>MOLECULE
OSIKAD
   104   112     1
SMALL
NO_CHARGES
****
Generated from CSD

@<TRIPOS>ATOM
      1 C1         6.4500    2.6815    4.2976 C.ar      1 RES1    0.0000
      2 C2         8.1997    2.9044    6.5179 C.ar      1 RES1    0.0000
      3 C3         9.2032    2.9985    7.6053 C.ar      1 RES1    0.0000
      4 C4        12.9539    2.4429    7.8363 C.ar      1 RES1    0.0000
      5 C5         8.6353    3.1480    5.2267 C.ar      1 RES1    0.0000
      6 H1         9.5128    3.5435    5.1541 H         1 RES1    0.0000
      7 C6         6.8482    2.5461    6.7077 C.ar      1 RES1    0.0000
      8 H2         6.5080    2.3425    7.6169 H         1 RES1    0.0000
      9 C7         8.3403    3.1013    2.7313 C.ar      1 RES1    0.0000
     10 C8         7.4061    3.2811    1.7115 C.ar      1 RES1    0.0000
     11 C9         4.0745    2.3728    3.3801 C.3       1 RES1    0.0000
     12 H3         4.0138    1.4752    3.8221 H         1 RES1    0.0000
     13 H4         3.6533    3.0468    4.0046 H         1 RES1    0.0000
     14 C10       11.2713    3.1707    9.5281 C.ar      1 RES1    0.0000
     15 C11       13.8943    2.3335    8.8703 C.ar      1 RES1    0.0000
     16 C12        7.8331    2.9526    4.0839 C.ar      1 RES1    0.0000
     17 C13       13.4310    2.2853    6.4740 C.ar      1 RES1    0.0000
     18 C14       10.1373    3.4937    1.0537 C.ar      1 RES1    0.0000
     19 C15       14.7616    1.8169    6.2313 C.ar      1 RES1    0.0000
     20 C16        7.8292    3.6712    0.4095 C.ar      1 RES1    0.0000
     21 H5         7.1218    3.8548   -0.2245 H         1 RES1    0.0000
     22 C17        8.9445    3.5373    8.8808 C.ar      1 RES1    0.0000
     23 H6         8.0675    3.8993    9.0790 H         1 RES1    0.0000
     24 C18       12.0972    2.7069    2.9505 C.ar      1 RES1    0.0000
     25 C19       11.5749    2.7348    8.2049 C.ar      1 RES1    0.0000
     26 C20       10.7443    2.5993    3.2234 C.ar      1 RES1    0.0000
     27 H7        10.4969    2.1276    4.0570 H         1 RES1    0.0000
     28 C21       12.2962    3.1328   10.5390 C.ar      1 RES1    0.0000
     29 C22        5.5339    2.7036    3.1823 C.ar      1 RES1    0.0000
     30 C23        9.7406    3.0776    2.3585 C.ar      1 RES1    0.0000
     31 C24       13.0538    2.3858    4.0367 C.ar      1 RES1    0.0000
     32 C25        6.0189    3.0738    1.9654 C.ar      1 RES1    0.0000
     33 H8         5.4432    3.1802    1.2020 H         1 RES1    0.0000
     34 C26       10.4870    2.5616    7.3261 C.ar      1 RES1    0.0000
     35 H9        10.6042    2.0757    6.4862 H         1 RES1    0.0000
     36 C27       12.6678    2.6417    5.3415 C.ar      1 RES1    0.0000
     37 H10       11.8444    3.1580    5.4373 H         1 RES1    0.0000
     38 C28        6.0039    2.4709    5.6263 C.ar      1 RES1    0.0000
     39 H11        5.0745    2.2536    5.7751 H         1 RES1    0.0000
     40 C29        9.9455    3.5813    9.8155 C.ar      1 RES1    0.0000
     41 H12        9.7507    3.9289   10.6901 H         1 RES1    0.0000
     42 C30       15.2374    1.9294    8.5814 C.ar      1 RES1    0.0000
     43 H13       15.8363    1.8533    9.3559 H         1 RES1    0.0000
     44 C31        8.4047    4.8630   -2.1611 C.3       1 RES1    0.0000
     45 H14        7.7504    4.1069   -2.3348 H         1 RES1    0.0000
     46 H15        7.8911    5.5821   -1.6803 H         1 RES1    0.0000
     47 C32       14.3370    1.8405    3.8261 C.ar      1 RES1    0.0000
     48 H16       14.6204    1.6679    2.9200 H         1 RES1    0.0000
     49 C33        9.1385    3.8452    0.0757 C.ar      1 RES1    0.0000
     50 C34       15.6723    1.6397    7.3318 C.ar      1 RES1    0.0000
     51 C35       13.5259    2.6580   10.2082 C.ar      1 RES1    0.0000
     52 H17       14.2311    2.5798   10.8914 H         1 RES1    0.0000
     53 C36        3.2564    2.3235    2.0963 C.3       1 RES1    0.0000
     54 H18        3.6787    1.6605    1.4663 H         1 RES1    0.0000
     55 H19        3.2849    3.2173    1.6572 H         1 RES1    0.0000
     56 C37       15.1558    1.5898    4.8917 C.ar      1 RES1    0.0000
     57 H20       16.0735    1.2380    4.7682 H         1 RES1    0.0000
     58 C38       12.4761    3.1679    1.6717 C.ar      1 RES1    0.0000
     59 H21       13.4323    3.2395    1.4558 H         1 RES1    0.0000
     60 C39       11.5236    3.5144    0.7510 C.ar      1 RES1    0.0000
     61 H22       11.8006    3.7881   -0.1552 H         1 RES1    0.0000
     62 C40        9.5525    4.3915   -1.2746 C.3       1 RES1    0.0000
     63 H23       10.0802    3.6843   -1.7516 H         1 RES1    0.0000
     64 H24       10.1783    5.1595   -1.1118 H         1 RES1    0.0000
     65 C41        1.7991    1.9419    2.3157 C.3       1 RES1    0.0000
     66 H25        1.3915    2.5649    2.9683 H         1 RES1    0.0000
     67 H26        1.7560    1.0289    2.6956 H         1 RES1    0.0000
     68 C42        8.8733    5.4190   -3.5005 C.3       1 RES1    0.0000
     69 H27        9.5022    6.1662   -3.3396 H         1 RES1    0.0000
     70 H28        9.3602    4.7118   -3.9920 H         1 RES1    0.0000
     71 C43       17.1105    1.2291    7.0916 C.3       1 RES1    0.0000
     72 H29       17.5203    0.9341    7.9588 H         1 RES1    0.0000
     73 H30       17.1542    0.4225    6.4526 H         1 RES1    0.0000
     74 C44        1.0042    1.9867    1.0140 C.3       1 RES1    0.0000
     75 H31        1.3546    1.3129    0.3944 H         1 RES1    0.0000
     76 H32        1.0858    2.8755    0.6104 H         1 RES1    0.0000
     77 H33        0.0614    1.7992    1.2020 H         1 RES1    0.0000
     78 C45        7.7210    5.9149   -4.3591 C.3       1 RES1    0.0000
     79 H34        7.2271    6.6080   -3.8745 H         1 RES1    0.0000
     80 H35        7.1211    5.1677   -4.5626 H         1 RES1    0.0000
     81 H36        8.0717    6.2885   -5.1940 H         1 RES1    0.0000
     82 C46       12.0539    3.6621   11.9263 C.3       1 RES1    0.0000
     83 H37       11.2069    3.4100   12.2592 H         1 RES1    0.0000
     84 H38       12.6856    3.2247   12.5508 H         1 RES1    0.0000
     85 C47       17.9768    2.3529    6.5019 C.3       1 RES1    0.0000
     86 H39       17.5308    2.7206    5.6807 H         1 RES1    0.0000
     87 H40       18.8773    1.9496    6.2177 H         1 RES1    0.0000
     88 C48       12.2598    5.1847   11.9852 C.3       1 RES1    0.0000
     89 H41       13.2158    5.5005   11.7347 H         1 RES1    0.0000
     90 H42       11.5546    5.6191   11.3362 H         1 RES1    0.0000
     91 C49       18.2147    3.4975    7.4635 C.3       1 RES1    0.0000
     92 H43       18.8087    3.1876    8.2399 H         1 RES1    0.0000
     93 H44       17.3449    3.7955    7.8099 H         1 RES1    0.0000
     94 C50       18.8528    4.7088    6.8086 C.3       1 RES1    0.0000
     95 H45       18.9532    5.4234    7.4721 H         1 RES1    0.0000
     96 H46       18.2812    5.0216    6.0750 H         1 RES1    0.0000
     97 H47       19.7325    4.4627    6.4568 H         1 RES1    0.0000
     98 C51       12.0735    5.7533   13.3712 C.3       1 RES1    0.0000
     99 H48       12.6423    5.2514   14.0066 H         1 RES1    0.0000
    100 H49       11.1300    5.6295   13.6479 H         1 RES1    0.0000
    101 C52       12.4239    7.2293   13.4511 C.3       1 RES1    0.0000
    102 H50       11.8732    7.7304   12.8130 H         1 RES1    0.0000
    103 H51       13.3702    7.3523   13.2346 H         1 RES1    0.0000
    104 H52       12.2522    7.5569   14.3590 H         1 RES1    0.0000
@<TRIPOS>BOND
     1    1   16 ar
     2    2    3 1
     3    3   22 ar
     4    4   15 ar
     5    5    2 ar
     6    6    5 1
     7    7    2 ar
     8    8    7 1
     9    9   10 ar
    10   10   20 ar
    11   11   12 1
    12   13   11 1
    13   14   25 ar
    14   15   42 ar
    15   16    5 ar
    16   17    4 ar
    17   18   30 ar
    18   19   17 ar
    19   20   21 1
    20   22   23 1
    21   24   26 ar
    22   25    4 ar
    23   26   27 1
    24   28   14 ar
    25   29    1 ar
    26   30    9 ar
    27   31   24 1
    28   32   10 ar
    29   33   32 1
    30   34    3 ar
    31   35   34 1
    32   36   17 ar
    33   37   36 1
    34   38    1 ar
    35   39   38 1
    36   40   14 ar
    37   41   40 1
    38   42   43 1
    39   44   45 1
    40   46   44 1
    41   47   31 ar
    42   48   47 1
    43   49   18 ar
    44   50   19 ar
    45   51   15 ar
    46   52   51 1
    47   53   11 1
    48   54   53 1
    49   55   53 1
    50   56   19 ar
    51   57   56 1
    52   58   24 ar
    53   59   58 1
    54   60   18 ar
    55   61   60 1
    56   62   44 1
    57   63   62 1
    58   64   62 1
    59   65   53 1
    60   66   65 1
    61   67   65 1
    62   68   44 1
    63   69   68 1
    64   70   68 1
    65   71   50 1
    66   72   71 1
    67   73   71 1
    68   74   65 1
    69   75   74 1
    70   76   74 1
    71   77   74 1
    72   78   68 1
    73   79   78 1
    74   80   78 1
    75   81   78 1
    76   82   28 1
    77   83   82 1
    78   84   82 1
    79   85   71 1
    80   86   85 1
    81   87   85 1
    82   88   82 1
    83   89   88 1
    84   90   88 1
    85   91   85 1
    86   92   91 1
    87   93   91 1
    88   94   91 1
    89   95   94 1
    90   96   94 1
    91   97   94 1
    92   98   88 1
    93   99   98 1
    94  100   98 1
    95  101   98 1
    96  102  101 1
    97  103  101 1
    98  104  101 1
    99    7   38 ar
   100    9   16 ar
   101   11   29 1
   102   20   49 ar
   103   22   40 ar
   104   25   34 ar
   105   26   30 ar
   106   28   51 ar
   107   29   32 ar
   108   31   36 ar
   109   42   50 ar
   110   47   56 ar
   111   49   62 1
   112   58   60 ar
@<TRIPOS>SUBSTRUCTURE
     1 RES1 1

@<TRIPOS>CRYSIN
  46.8390    7.4131   24.6300  90.0000 121.6030  90.0000  15 1

