# MOL2 file generated by ConQuest
# Please check atom types

@<TRIPOS>MOLECULE
OSOYIF
   150   154     3
SMALL
NO_CHARGES
****
Generated from CSD

@<TRIPOS>ATOM
      1 C1         2.2712    6.4640    7.7754 C.ar      1 RES1    0.0000
      2 C2         1.6424    7.2181    8.7290 C.ar      1 RES1    0.0000
      3 H1         0.9883    7.8539    8.4630 H         1 RES1    0.0000
      4 C3         1.9417    7.0741   10.0920 C.ar      1 RES1    0.0000
      5 H2         1.4699    7.5997   10.7277 H         1 RES1    0.0000
      6 C4         2.8959    6.1967   10.5309 C.ar      1 RES1    0.0000
      7 C5         4.5024    4.3851    9.9523 C.ar      1 RES1    0.0000
      8 H3         4.7152    4.2749   10.8726 H         1 RES1    0.0000
      9 C6         5.1137    3.5935    9.0309 C.ar      1 RES1    0.0000
     10 H4         5.7493    2.9440    9.3114 H         1 RES1    0.0000
     11 C7         4.8126    3.7305    7.6662 C.ar      1 RES1    0.0000
     12 H5         5.2443    3.1760    7.0256 H         1 RES1    0.0000
     13 C8         3.9035    4.6588    7.2621 C.ar      1 RES1    0.0000
     14 H6         3.7070    4.7417    6.3361 H         1 RES1    0.0000
     15 C9         3.5582    5.3690    9.5739 C.ar      1 RES1    0.0000
     16 C10        3.2425    5.5047    8.1870 C.ar      1 RES1    0.0000
     17 C11        3.2446    6.1877   11.9830 C.ar      1 RES1    0.0000
     18 C12        4.4569    6.6767   12.3951 C.ar      1 RES1    0.0000
     19 H7         5.1032    6.9250   11.7444 H         1 RES1    0.0000
     20 C13        4.7679    6.8189   13.7588 C.ar      1 RES1    0.0000
     21 H8         5.6178    7.1618   14.0068 H         1 RES1    0.0000
     22 C14        3.8749    6.4750   14.7421 C.ar      1 RES1    0.0000
     23 C15        1.6843    5.4626   15.3098 C.ar      1 RES1    0.0000
     24 H9         1.8837    5.5497   16.2342 H         1 RES1    0.0000
     25 C16        0.4950    4.9129   14.9356 C.ar      1 RES1    0.0000
     26 H10       -0.1213    4.6199   15.5985 H         1 RES1    0.0000
     27 C17        0.1761    4.7777   13.5796 C.ar      1 RES1    0.0000
     28 H11       -0.6571    4.3996   13.3244 H         1 RES1    0.0000
     29 C18        1.0550    5.1861   12.6227 C.ar      1 RES1    0.0000
     30 H12        0.8256    5.0848   11.7070 H         1 RES1    0.0000
     31 C19        2.6261    5.9056   14.3555 C.ar      1 RES1    0.0000
     32 C20        2.3034    5.7598   12.9689 C.ar      1 RES1    0.0000
     33 C21        1.9320    6.6595    6.3235 C.ar      1 RES1    0.0000
     34 C22        2.6802    7.5433    5.5471 C.ar      1 RES1    0.0000
     35 C23        2.3306    7.7517    4.2224 C.ar      1 RES1    0.0000
     36 H13        2.8502    8.3506    3.6974 H         1 RES1    0.0000
     37 C24        1.2479    7.1136    3.6388 C.ar      1 RES1    0.0000
     38 C25        0.5192    6.2356    4.4236 C.ar      1 RES1    0.0000
     39 H14       -0.2226    5.7836    4.0387 H         1 RES1    0.0000
     40 C26        0.8399    5.9916    5.7654 C.ar      1 RES1    0.0000
     41 C27        3.8569    8.2782    6.1464 C.3       1 RES1    0.0000
     42 H15        4.5324    7.6306    6.4366 H         1 RES1    0.0000
     43 H16        3.5561    8.8049    6.9158 H         1 RES1    0.0000
     44 H17        4.2464    8.8755    5.4737 H         1 RES1    0.0000
     45 C28        0.8513    7.3963    2.2105 C.3       1 RES1    0.0000
     46 H18        0.2495    6.6911    1.8931 H         1 RES1    0.0000
     47 H19        1.6535    7.4209    1.6477 H         1 RES1    0.0000
     48 H20        0.3930    8.2617    2.1642 H         1 RES1    0.0000
     49 C29        0.0163    5.0356    6.5729 C.3       1 RES1    0.0000
     50 H21        0.5953    4.5532    7.1986 H         1 RES1    0.0000
     51 H22       -0.4225    4.3957    5.9739 H         1 RES1    0.0000
     52 H23       -0.6645    5.5323    7.0747 H         1 RES1    0.0000
     53 C30        4.2064    6.7480   16.1849 C.ar      1 RES1    0.0000
     54 C31        3.7104    7.9176   16.7897 C.ar      1 RES1    0.0000
     55 C32        4.0414    8.1791   18.1196 C.ar      1 RES1    0.0000
     56 H24        3.7024    8.9653   18.5316 H         1 RES1    0.0000
     57 C33        4.8429    7.3354   18.8558 C.ar      1 RES1    0.0000
     58 C34        5.3182    6.1892   18.2381 C.ar      1 RES1    0.0000
     59 H25        5.8771    5.5980   18.7303 H         1 RES1    0.0000
     60 C35        5.0005    5.8787   16.9159 C.ar      1 RES1    0.0000
     61 C36        2.8479    8.8797   16.0103 C.3       1 RES1    0.0000
     62 H26        1.9557    8.4947   15.8906 H         1 RES1    0.0000
     63 H27        3.2520    9.0436   15.1334 H         1 RES1    0.0000
     64 H28        2.7753    9.7250   16.5006 H         1 RES1    0.0000
     65 C37        5.2001    7.6213   20.3028 C.3       1 RES1    0.0000
     66 H29        6.0600    7.2044   20.5159 H         1 RES1    0.0000
     67 H30        4.5053    7.2537   20.8899 H         1 RES1    0.0000
     68 H31        5.2623    8.5903   20.4388 H         1 RES1    0.0000
     69 C38        5.4950    4.5874   16.3153 C.3       1 RES1    0.0000
     70 H32        4.7315    4.0052   16.1196 H         1 RES1    0.0000
     71 H33        6.0922    4.1396   16.9494 H         1 RES1    0.0000
     72 H34        5.9828    4.7784   15.4863 H         1 RES1    0.0000
     73 C39       -0.6369    1.3802    9.5704 C.ar      2 RES2    0.0000
     74 C40        0.4744    2.0119    9.0908 C.ar      2 RES2    0.0000
     75 H35        0.4153    2.4801    8.2667 H         2 RES2    0.0000
     76 C41        1.6984    1.9936    9.7730 C.ar      2 RES2    0.0000
     77 H36        2.4455    2.4491    9.4002 H         2 RES2    0.0000
     78 C42        1.8413    1.3324   10.9654 C.ar      2 RES2    0.0000
     79 C43        0.8101   -0.1873   12.6564 C.ar      2 RES2    0.0000
     80 H37        1.6258   -0.2078   13.1421 H         2 RES2    0.0000
     81 C44       -0.2458   -0.9163   13.1019 C.ar      2 RES2    0.0000
     82 H38       -0.1553   -1.4556   13.8783 H         2 RES2    0.0000
     83 C45       -1.4766   -0.8765   12.4154 C.ar      2 RES2    0.0000
     84 H39       -2.2149   -1.3802   12.7354 H         2 RES2    0.0000
     85 C46       -1.6062   -0.1168   11.2959 C.ar      2 RES2    0.0000
     86 H40       -2.4442   -0.0870   10.8493 H         2 RES2    0.0000
     87 C47        0.7226    0.6048   11.4815 C.ar      2 RES2    0.0000
     88 C48       -0.5214    0.6303   10.7810 C.ar      2 RES2    0.0000
     89 C49        3.1208    1.4347   11.7367 C.ar      2 RES2    0.0000
     90 C50        3.1469    2.1835   12.8787 C.ar      2 RES2    0.0000
     91 H41        2.3405    2.5709   13.1982 H         2 RES2    0.0000
     92 C51        4.3396    2.3934   13.5885 C.ar      2 RES2    0.0000
     93 H42        4.3190    2.9314   14.3714 H         2 RES2    0.0000
     94 C52        5.5257    1.8518   13.1937 C.ar      2 RES2    0.0000
     95 C53        6.7176    0.3711   11.5913 C.ar      2 RES2    0.0000
     96 H43        7.5232    0.4852   12.0833 H         2 RES2    0.0000
     97 C54        6.7188   -0.4106   10.4767 C.ar      2 RES2    0.0000
     98 H44        7.5190   -0.8418   10.1995 H         2 RES2    0.0000
     99 C55        5.5370   -0.5796    9.7372 C.ar      2 RES2    0.0000
    100 H45        5.5459   -1.1144    8.9515 H         2 RES2    0.0000
    101 C56        4.3817    0.0125   10.1310 C.ar      2 RES2    0.0000
    102 H46        3.5926   -0.1198    9.6176 H         2 RES2    0.0000
    103 C57        5.5351    1.0178   12.0317 C.ar      2 RES2    0.0000
    104 C58        4.3272    0.8223   11.2898 C.ar      2 RES2    0.0000
    105 C59       -1.9424    1.5052    8.8381 C.ar      2 RES2    0.0000
    106 C60       -2.7490    2.6360    9.0323 C.ar      2 RES2    0.0000
    107 C61       -3.9270    2.7623    8.2935 C.ar      2 RES2    0.0000
    108 H47       -4.4758    3.5258    8.4279 H         2 RES2    0.0000
    109 C62       -4.3189    1.8129    7.3748 C.ar      2 RES2    0.0000
    110 C63       -3.5161    0.6907    7.2100 C.ar      2 RES2    0.0000
    111 H48       -3.7791    0.0222    6.5886 H         2 RES2    0.0000
    112 C64       -2.3359    0.5181    7.9285 C.ar      2 RES2    0.0000
    113 C65       -2.3555    3.7044   10.0294 C.3       2 RES2    0.0000
    114 H49       -1.6305    4.2497    9.6550 H         2 RES2    0.0000
    115 H50       -2.0501    3.2813   10.8586 H         2 RES2    0.0000
    116 H51       -3.1285    4.2749   10.2182 H         2 RES2    0.0000
    117 C66       -5.5900    1.9827    6.5685 C.3       2 RES2    0.0000
    118 H52       -5.4939    1.5223    5.7074 H         2 RES2    0.0000
    119 H53       -5.7526    2.9363    6.4133 H         2 RES2    0.0000
    120 H54       -6.3440    1.5986    7.0630 H         2 RES2    0.0000
    121 C67       -1.5026   -0.7146    7.7207 C.3       2 RES2    0.0000
    122 H55       -1.9615   -1.3174    7.0981 H         2 RES2    0.0000
    123 H56       -1.3715   -1.1685    8.5799 H         2 RES2    0.0000
    124 H57       -0.6308   -0.4620    7.3481 H         2 RES2    0.0000
    125 C68        6.7987    2.1431   13.9407 C.ar      2 RES2    0.0000
    126 C69        7.6379    3.1874   13.5123 C.ar      2 RES2    0.0000
    127 C70        8.8190    3.4381   14.1964 C.ar      2 RES2    0.0000
    128 H58        9.3883    4.1357   13.8923 H         2 RES2    0.0000
    129 C71        9.1923    2.7014   15.3084 C.ar      2 RES2    0.0000
    130 C72        8.3386    1.7024   15.7363 C.ar      2 RES2    0.0000
    131 H59        8.5704    1.1994   16.5076 H         2 RES2    0.0000
    132 C73        7.1429    1.4072   15.0717 C.ar      2 RES2    0.0000
    133 C74        7.2405    4.0493   12.3455 C.3       2 RES2    0.0000
    134 H60        7.8680    4.7987   12.2633 H         2 RES2    0.0000
    135 H61        6.3340    4.3957   12.4876 H         2 RES2    0.0000
    136 H62        7.2610    3.5162   11.5247 H         2 RES2    0.0000
    137 C75       10.4923    2.9946   16.0266 C.3       2 RES2    0.0000
    138 H63       10.4071    3.8322   16.5287 H         2 RES2    0.0000
    139 H64       11.2168    3.0783   15.3717 H         2 RES2    0.0000
    140 H65       10.6966    2.2626   16.6455 H         2 RES2    0.0000
    141 C76        6.2364    0.3253   15.5896 C.3       2 RES2    0.0000
    142 H66        5.4604    0.7316   16.0308 H         2 RES2    0.0000
    143 H67        6.7234   -0.2291   16.2342 H         2 RES2    0.0000
    144 H68        5.9321   -0.2320   14.8435 H         2 RES2    0.0000
    145 H69       -6.2331    2.5158    7.0817 Du        3 SUP3    0.0000
    146 H70       -5.9744    1.1018    6.3759 Du        3 SUP3    0.0000
    147 H71       -5.3829    2.4395    5.7261 Du        3 SUP3    0.0000
    148 H72        4.4922    8.1612   20.7122 Du        3 SUP3    0.0000
    149 H73        6.0469    8.1119   20.3383 Du        3 SUP3    0.0000
    150 H74        5.2899    6.7762   20.7894 Du        3 SUP3    0.0000
@<TRIPOS>BOND
     1    1    2 ar
     2    2    3 1
     3    4    2 ar
     4    5    4 1
     5    6    4 ar
     6    7    8 1
     7    9    7 ar
     8   10    9 1
     9   11    9 ar
    10   12   11 1
    11   13   11 ar
    12   14   13 1
    13   15    6 ar
    14   16    1 ar
    15   17    6 1
    16   18   17 ar
    17   19   18 1
    18   20   18 ar
    19   21   20 1
    20   22   20 ar
    21   23   24 1
    22   25   23 ar
    23   26   25 1
    24   27   25 ar
    25   28   27 1
    26   29   27 ar
    27   30   29 1
    28   31   22 ar
    29   32   17 ar
    30   33    1 1
    31   34   33 ar
    32   35   34 ar
    33   36   35 1
    34   37   35 ar
    35   38   37 ar
    36   39   38 1
    37   40   33 ar
    38   41   34 1
    39   42   41 1
    40   43   41 1
    41   44   41 1
    42   45   37 1
    43   46   45 1
    44   47   45 1
    45   48   45 1
    46   49   40 1
    47   50   49 1
    48   51   49 1
    49   52   49 1
    50   53   22 1
    51   54   53 ar
    52   55   54 ar
    53   56   55 1
    54   57   55 ar
    55   58   57 ar
    56   59   58 1
    57   60   53 ar
    58   61   54 1
    59   62   61 1
    60   63   61 1
    61   64   61 1
    62   65   57 1
    63   66   65 1
    64   67   65 1
    65   68   65 1
    66   69   60 1
    67   70   69 1
    68   71   69 1
    69   72   69 1
    70   73   74 ar
    71   74   75 1
    72   76   74 ar
    73   77   76 1
    74   78   76 ar
    75   79   80 1
    76   81   79 ar
    77   82   81 1
    78   83   81 ar
    79   84   83 1
    80   85   83 ar
    81   86   85 1
    82   87   78 ar
    83   88   73 ar
    84   89   78 1
    85   90   89 ar
    86   91   90 1
    87   92   90 ar
    88   93   92 1
    89   94   92 ar
    90   95   96 1
    91   97   95 ar
    92   98   97 1
    93   99   97 ar
    94  100   99 1
    95  101   99 ar
    96  102  101 1
    97  103   94 ar
    98  104   89 ar
    99  105   73 1
   100  106  105 ar
   101  107  106 ar
   102  108  107 1
   103  109  107 ar
   104  110  109 ar
   105  111  110 1
   106  112  105 ar
   107  113  106 1
   108  114  113 1
   109  115  113 1
   110  116  113 1
   111  117  109 1
   112  118  117 1
   113  119  117 1
   114  120  117 1
   115  121  112 1
   116  122  121 1
   117  123  121 1
   118  124  121 1
   119  125   94 1
   120  126  125 ar
   121  127  126 ar
   122  128  127 1
   123  129  127 ar
   124  130  129 ar
   125  131  130 1
   126  132  125 ar
   127  133  126 1
   128  134  133 1
   129  135  133 1
   130  136  133 1
   131  137  129 1
   132  138  137 1
   133  139  137 1
   134  140  137 1
   135  141  132 1
   136  142  141 1
   137  143  141 1
   138  144  141 1
   139    7   15 ar
   140   13   16 ar
   141   15   16 ar
   142   23   31 ar
   143   29   32 ar
   144   31   32 ar
   145   38   40 ar
   146   58   60 ar
   147   79   87 ar
   148   85   88 ar
   149   87   88 ar
   150   95  103 ar
   151  101  104 ar
   152  103  104 ar
   153  110  112 ar
   154  130  132 ar
@<TRIPOS>SUBSTRUCTURE
     1 RES1 1
     2 RES2 73
     3 SUP3 145

@<TRIPOS>CRYSIN
  24.8060    9.6651   24.4230  90.0000 106.8700  90.0000  13 1

