# MOL2 file generated by ConQuest
# Please check atom types

@<TRIPOS>MOLECULE
OTOFUA
   108   126     2
SMALL
NO_CHARGES
****
Generated from CSD

@<TRIPOS>ATOM
      1 C1        11.7769    4.8312    5.1444 C.ar      1 RES1    0.0000
      2 C2        10.7868    5.3650    6.0072 C.ar      1 RES1    0.0000
      3 C3         9.6096    4.5929    5.8593 C.ar      1 RES1    0.0000
      4 C4         9.8659    3.5779    4.9104 C.ar      1 RES1    0.0000
      5 C5        11.2033    3.7479    4.4371 C.ar      1 RES1    0.0000
      6 C6        11.9462    2.7397    3.8744 C.ar      1 RES1    0.0000
      7 C7        13.3711    2.9511    3.9553 C.ar      1 RES1    0.0000
      8 H1        13.9483    2.3553    3.4910 H         1 RES1    0.0000
      9 C8        13.9312    3.9837    4.6806 C.ar      1 RES1    0.0000
     10 H2        14.8789    4.0582    4.7195 H         1 RES1    0.0000
     11 C9        13.1259    4.9504    5.3793 C.ar      1 RES1    0.0000
     12 C10       13.4617    5.8159    6.4895 C.ar      1 RES1    0.0000
     13 H3        14.3738    6.0340    6.6463 H         1 RES1    0.0000
     14 C11       12.4951    6.3345    7.3289 C.ar      1 RES1    0.0000
     15 H4        12.7646    6.8997    8.0427 H         1 RES1    0.0000
     16 C12       11.1020    6.0492    7.1599 C.ar      1 RES1    0.0000
     17 C13       10.0141    6.1174    8.1172 C.ar      1 RES1    0.0000
     18 H5        10.0894    6.7052    8.8598 H         1 RES1    0.0000
     19 C14        8.8801    5.3560    7.9771 C.ar      1 RES1    0.0000
     20 H6         8.2009    5.4263    8.6386 H         1 RES1    0.0000
     21 C15        8.6752    4.4617    6.8809 C.ar      1 RES1    0.0000
     22 C16        7.8915    3.2601    6.7908 C.ar      1 RES1    0.0000
     23 H7         7.1438    3.1601    7.3689 H         1 RES1    0.0000
     24 C17        8.1808    2.2474    5.9014 C.ar      1 RES1    0.0000
     25 H8         7.6464    1.4612    5.9092 H         1 RES1    0.0000
     26 C18        9.2657    2.3416    4.9606 C.ar      1 RES1    0.0000
     27 C19        9.9507    1.2757    4.2358 C.ar      1 RES1    0.0000
     28 C20       11.2006    1.5092    3.5614 C.ar      1 RES1    0.0000
     29 C21       11.7583    0.4635    2.7427 C.ar      1 RES1    0.0000
     30 C22       12.7874    0.6771    1.7345 C.ar      1 RES1    0.0000
     31 C23       13.0263    1.9412    1.0548 C.ar      1 RES1    0.0000
     32 C24       12.0814    2.9797    1.0017 C.ar      1 RES1    0.0000
     33 H9        11.2362    2.8657    1.4198 H         1 RES1    0.0000
     34 C25       12.3636    4.1569    0.3535 C.ar      1 RES1    0.0000
     35 H10       11.7030    4.8402    0.3191 H         1 RES1    0.0000
     36 C26       13.6055    4.3702   -0.2568 C.ar      1 RES1    0.0000
     37 H11       13.8160    5.2156   -0.6382 H         1 RES1    0.0000
     38 C27       14.5073    3.3546   -0.2980 C.ar      1 RES1    0.0000
     39 H12       15.3382    3.4829   -0.7393 H         1 RES1    0.0000
     40 C28       14.2255    2.1101    0.3057 C.ar      1 RES1    0.0000
     41 C29       15.0788    1.0007    0.0834 C.ar      1 RES1    0.0000
     42 H13       15.9107    1.1223   -0.3591 H         1 RES1    0.0000
     43 C30       14.7135   -0.2107    0.4959 C.ar      1 RES1    0.0000
     44 H14       15.2341   -0.9602    0.2335 H         1 RES1    0.0000
     45 C31       13.5602   -0.4254    1.3219 C.ar      1 RES1    0.0000
     46 C32       13.1793   -1.7358    1.7088 C.ar      1 RES1    0.0000
     47 H15       13.7241   -2.4727    1.4587 H         1 RES1    0.0000
     48 C33       12.0546   -1.9546    2.4281 C.ar      1 RES1    0.0000
     49 H16       11.7593   -2.8441    2.5805 H         1 RES1    0.0000
     50 C34       11.3093   -0.8559    2.9607 C.ar      1 RES1    0.0000
     51 C35       10.1460   -1.0746    3.7312 C.ar      1 RES1    0.0000
     52 H17        9.8447   -1.9650    3.8701 H         1 RES1    0.0000
     53 C36        9.4453   -0.0497    4.2771 C.ar      1 RES1    0.0000
     54 H18        8.6084   -0.2215    4.6906 H         1 RES1    0.0000
     55 C37       18.9370    4.8348    3.6397 C.ar      2 RES2    0.0000
     56 C38       19.5306    5.3524    4.8107 C.ar      2 RES2    0.0000
     57 C39       20.6272    4.5287    5.1420 C.ar      2 RES2    0.0000
     58 C40       20.7134    3.4979    4.1748 C.ar      2 RES2    0.0000
     59 C41       19.6744    3.7155    3.2156 C.ar      2 RES2    0.0000
     60 C42       19.1557    2.7227    2.4231 C.ar      2 RES2    0.0000
     61 C43       17.8303    3.0115    1.9313 C.ar      2 RES2    0.0000
     62 H19       17.4468    2.4282    1.2863 H         2 RES2    0.0000
     63 C44       17.0958    4.0998    2.3583 C.ar      2 RES2    0.0000
     64 H20       16.2212    4.2311    2.0079 H         2 RES2    0.0000
     65 C45       17.6065    5.0380    3.3117 C.ar      2 RES2    0.0000
     66 C46       16.9281    5.9724    4.1870 C.ar      2 RES2    0.0000
     67 H21       16.0524    6.2595    3.9569 H         2 RES2    0.0000
     68 C47       17.5013    6.4602    5.3377 C.ar      2 RES2    0.0000
     69 H22       17.0049    7.0631    5.8791 H         2 RES2    0.0000
     70 C48       18.8310    6.0865    5.7479 C.ar      2 RES2    0.0000
     71 C49       19.4551    6.1191    7.0510 C.ar      2 RES2    0.0000
     72 H23       19.1207    6.7200    7.7069 H         2 RES2    0.0000
     73 C50       20.5193    5.3061    7.3712 C.ar      2 RES2    0.0000
     74 H24       20.8901    5.3641    8.2450 H         2 RES2    0.0000
     75 C51       21.0948    4.3729    6.4406 C.ar      2 RES2    0.0000
     76 C52       21.8017    3.1358    6.6618 C.ar      2 RES2    0.0000
     77 H25       22.2604    3.0156    7.4857 H         2 RES2    0.0000
     78 C53       21.8394    2.1257    5.7346 C.ar      2 RES2    0.0000
     79 H26       22.2979    1.3208    5.9458 H         2 RES2    0.0000
     80 C54       21.2020    2.2530    4.4483 C.ar      2 RES2    0.0000
     81 C55       20.8166    1.1995    3.5099 C.ar      2 RES2    0.0000
     82 C56       19.9169    1.4576    2.4193 C.ar      2 RES2    0.0000
     83 C57       19.6868    0.4107    1.4387 C.ar      2 RES2    0.0000
     84 C58       19.1122    0.6278    0.1178 C.ar      2 RES2    0.0000
     85 C59       19.1680    1.8761   -0.6104 C.ar      2 RES2    0.0000
     86 C60       20.0775    2.9177   -0.3113 C.ar      2 RES2    0.0000
     87 H27       20.6893    2.8050    0.4069 H         2 RES2    0.0000
     88 C61       20.1003    4.0786   -1.0262 C.ar      2 RES2    0.0000
     89 H28       20.7345    4.7497   -0.8060 H         2 RES2    0.0000
     90 C62       19.1988    4.2986   -2.0824 C.ar      2 RES2    0.0000
     91 H29       19.1707    5.1359   -2.5293 H         2 RES2    0.0000
     92 C63       18.3700    3.2857   -2.4493 C.ar      2 RES2    0.0000
     93 H30       17.7745    3.4167   -3.1764 H         2 RES2    0.0000
     94 C64       18.3720    2.0541   -1.7822 C.ar      2 RES2    0.0000
     95 C65       17.6723    0.9359   -2.3114 C.ar      2 RES2    0.0000
     96 H31       17.1027    1.0480   -3.0630 H         2 RES2    0.0000
     97 C66       17.8082   -0.2552   -1.7677 C.ar      2 RES2    0.0000
     98 H32       17.4065   -1.0007   -2.2002 H         2 RES2    0.0000
     99 C67       18.5326   -0.4775   -0.5559 C.ar      2 RES2    0.0000
    100 C68       18.7432   -1.7813   -0.0645 C.ar      2 RES2    0.0000
    101 H33       18.3313   -2.5173   -0.5025 H         2 RES2    0.0000
    102 C69       19.5151   -2.0056    1.0095 C.ar      2 RES2    0.0000
    103 H34       19.7309   -2.8982    1.2552 H         2 RES2    0.0000
    104 C70       20.0207   -0.9083    1.7967 C.ar      2 RES2    0.0000
    105 C71       20.7967   -1.1437    2.9407 C.ar      2 RES2    0.0000
    106 H35       21.0135   -2.0392    3.1730 H         2 RES2    0.0000
    107 C72       21.2469   -0.1364    3.7245 C.ar      2 RES2    0.0000
    108 H36       21.8591   -0.3255    4.4260 H         2 RES2    0.0000
@<TRIPOS>BOND
     1    1    2 ar
     2    2    3 ar
     3    3    4 ar
     4    4    5 ar
     5    5    1 ar
     6    6    5 ar
     7    7    6 ar
     8    8    7 1
     9    9    7 ar
    10   10    9 1
    11   11    1 ar
    12   12   11 ar
    13   13   12 1
    14   14   12 ar
    15   15   14 1
    16   16    2 ar
    17   17   16 ar
    18   18   17 1
    19   19   17 ar
    20   20   19 1
    21   21    3 ar
    22   22   21 ar
    23   23   22 1
    24   24   22 ar
    25   25   24 1
    26   26    4 ar
    27   27   26 ar
    28   28    6 ar
    29   29   28 ar
    30   30   29 ar
    31   31   30 ar
    32   32   31 ar
    33   33   32 1
    34   34   32 ar
    35   35   34 1
    36   36   34 ar
    37   37   36 1
    38   38   36 ar
    39   39   38 1
    40   40   31 ar
    41   41   40 ar
    42   42   41 1
    43   43   41 ar
    44   44   43 1
    45   45   30 ar
    46   46   45 ar
    47   47   46 1
    48   48   46 ar
    49   49   48 1
    50   50   29 ar
    51   51   50 ar
    52   52   51 1
    53   53   27 ar
    54   54   53 1
    55   55   56 ar
    56   56   57 ar
    57   57   58 ar
    58   58   59 ar
    59   59   55 ar
    60   60   59 ar
    61   61   60 ar
    62   62   61 1
    63   63   61 ar
    64   64   63 1
    65   65   55 ar
    66   66   65 ar
    67   67   66 1
    68   68   66 ar
    69   69   68 1
    70   70   56 ar
    71   71   70 ar
    72   72   71 1
    73   73   71 ar
    74   74   73 1
    75   75   57 ar
    76   76   75 ar
    77   77   76 1
    78   78   76 ar
    79   79   78 1
    80   80   58 ar
    81   81   80 ar
    82   82   60 ar
    83   83   82 ar
    84   84   83 ar
    85   85   84 ar
    86   86   85 ar
    87   87   86 1
    88   88   86 ar
    89   89   88 1
    90   90   88 ar
    91   91   90 1
    92   92   90 ar
    93   93   92 1
    94   94   85 ar
    95   95   94 ar
    96   96   95 1
    97   97   95 ar
    98   98   97 1
    99   99   84 ar
   100  100   99 ar
   101  101  100 1
   102  102  100 ar
   103  103  102 1
   104  104   83 ar
   105  105  104 ar
   106  106  105 1
   107  107   81 ar
   108  108  107 1
   109    9   11 ar
   110   14   16 ar
   111   19   21 ar
   112   24   26 ar
   113   27   28 ar
   114   38   40 ar
   115   43   45 ar
   116   48   50 ar
   117   51   53 ar
   118   63   65 ar
   119   68   70 ar
   120   73   75 ar
   121   78   80 ar
   122   81   82 ar
   123   92   94 ar
   124   97   99 ar
   125  102  104 ar
   126  105  107 ar
@<TRIPOS>SUBSTRUCTURE
     1 RES1 1
     2 RES2 55

@<TRIPOS>CRYSIN
  28.6190   13.5049   11.3279  90.0000 101.0500  90.0000   9 1

