# MOL2 file generated by ConQuest
# Please check atom types

@<TRIPOS>MOLECULE
OTUREC
    60    67     1
SMALL
NO_CHARGES
****
Generated from CSD

@<TRIPOS>ATOM
      1 C1         5.6713    8.8187    3.8219 C.3       1 RES1    0.0000
      2 C2         4.2285    8.7055    4.4128 C.3       1 RES1    0.0000
      3 H1         3.6572    9.4566    4.0524 H         1 RES1    0.0000
      4 H2         4.2904    8.7719    5.4184 H         1 RES1    0.0000
      5 C3         3.4677    7.2831    2.5109 C.3       1 RES1    0.0000
      6 H3         2.8952    8.0242    2.1661 H         1 RES1    0.0000
      7 H4         3.0388    6.4163    2.2012 H         1 RES1    0.0000
      8 C4         3.5404    7.3525    4.0446 C.3       1 RES1    0.0000
      9 C5         4.8777    7.3858    1.8973 C.3       1 RES1    0.0000
     10 H5         4.8000    7.3343    0.8911 H         1 RES1    0.0000
     11 C6         5.8416    6.2788    3.9157 C.3       1 RES1    0.0000
     12 H6         6.4087    5.5152    4.2476 H         1 RES1    0.0000
     13 C7         5.7279    6.2120    2.3920 C.3       1 RES1    0.0000
     14 H7         6.6562    6.2442    1.9761 H         1 RES1    0.0000
     15 H8         5.3220    5.3432    2.1231 H         1 RES1    0.0000
     16 C8         6.4864    7.6017    4.3165 C.3       1 RES1    0.0000
     17 H9         6.5930    7.6426    5.3326 H         1 RES1    0.0000
     18 H10        7.4054    7.6852    3.9223 H         1 RES1    0.0000
     19 C9         5.5484    8.7160    2.2945 C.3       1 RES1    0.0000
     20 H11        5.0043    9.4873    1.9293 H         1 RES1    0.0000
     21 H12        6.4551    8.7702    1.8721 H         1 RES1    0.0000
     22 C10        4.4529    6.2035    4.5348 C.3       1 RES1    0.0000
     23 H13        4.5302    6.2425    5.5563 H         1 RES1    0.0000
     24 H14        4.0362    5.3279    4.3139 H         1 RES1    0.0000
     25 C11        6.4617   10.0713    4.3438 C.3       1 RES1    0.0000
     26 H15        2.1746    7.6648    5.6305 H         1 RES1    0.0000
     27 H16        2.1899    6.1727    5.0828 H         1 RES1    0.0000
     28 H17        6.0384   10.3457    5.2233 H         1 RES1    0.0000
     29 H18        7.3880    9.7342    4.5481 H         1 RES1    0.0000
     30 C12        2.1750    7.1202    4.7885 C.3       1 RES1    0.0000
     31 C13        6.6776   11.3679    3.5073 C.3       1 RES1    0.0000
     32 H19        0.1120    6.9204    4.7562 H         1 RES1    0.0000
     33 H20        0.7345    6.8131    3.2719 H         1 RES1    0.0000
     34 H21        7.3912   11.8923    3.9705 H         1 RES1    0.0000
     35 H22        7.0662   11.1514    2.6240 H         1 RES1    0.0000
     36 C14        0.7849    7.3192    4.1145 C.3       1 RES1    0.0000
     37 C15        4.7222   12.1238    2.1309 C.ar      1 RES1    0.0000
     38 H23        0.4566    8.6714    1.7940 H         1 RES1    0.0000
     39 H24        5.2075   11.8957    1.3309 H         1 RES1    0.0000
     40 C16        0.5565    9.2861    2.5631 C.ar      1 RES1    0.0000
     41 C17        3.3247   12.1292    2.0894 C.ar      1 RES1    0.0000
     42 C18        1.0371   10.5796    2.3226 C.ar      1 RES1    0.0000
     43 C19        2.6263   12.1449    3.3221 C.ar      1 RES1    0.0000
     44 C20        1.4520   11.3438    3.4419 C.ar      1 RES1    0.0000
     45 C21        3.3065   12.5372    4.5042 C.ar      1 RES1    0.0000
     46 C22        1.0266   10.9695    4.7417 C.ar      1 RES1    0.0000
     47 C23        4.6983   12.5421    4.4858 C.ar      1 RES1    0.0000
     48 H25        0.4369    9.3646    5.8321 H         1 RES1    0.0000
     49 H26        5.1670   12.6281    5.3391 H         1 RES1    0.0000
     50 C24        0.5514    9.6755    4.9196 C.ar      1 RES1    0.0000
     51 C25        2.6108   11.7313    0.9027 C.ar      1 RES1    0.0000
     52 H27        2.9547   12.9875    6.5502 H         1 RES1    0.0000
     53 H28        3.0223   11.8923    0.0234 H         1 RES1    0.0000
     54 C26        2.5624   12.5378    5.7494 C.ar      1 RES1    0.0000
     55 C27        1.4997   10.9795    1.0168 C.ar      1 RES1    0.0000
     56 H29        1.0214   11.6487    6.7272 H         1 RES1    0.0000
     57 H30        1.0783   10.5774    0.2329 H         1 RES1    0.0000
     58 C28        1.4603   11.7749    5.8615 C.ar      1 RES1    0.0000
     59 C29        5.3917   12.1265    3.3448 C.ar      1 RES1    0.0000
     60 C30        0.5191    8.7792    3.8508 C.ar      1 RES1    0.0000
@<TRIPOS>BOND
     1    1    2 1
     2    2    3 1
     3    4    2 1
     4    5    6 1
     5    7    5 1
     6    8    2 1
     7    9    5 1
     8   10    9 1
     9   11   12 1
    10   13    9 1
    11   14   13 1
    12   15   13 1
    13   16    1 1
    14   17   16 1
    15   18   16 1
    16   19    1 1
    17   20   19 1
    18   21   19 1
    19   22    8 1
    20   23   22 1
    21   24   22 1
    22   25    1 1
    23   26   30 1
    24   27   30 1
    25   28   25 1
    26   29   25 1
    27   30    8 1
    28   31   25 1
    29   32   36 1
    30   33   36 1
    31   34   31 1
    32   35   31 1
    33   36   30 1
    34   37   39 1
    35   38   40 1
    36   40   42 ar
    37   41   37 ar
    38   42   44 ar
    39   43   41 ar
    40   44   43 ar
    41   45   43 ar
    42   46   44 ar
    43   47   45 ar
    44   48   50 1
    45   49   47 1
    46   50   46 ar
    47   51   41 ar
    48   52   54 1
    49   53   51 1
    50   54   45 ar
    51   55   42 ar
    52   56   58 1
    53   57   55 1
    54   58   46 ar
    55   59   31 1
    56   60   36 1
    57    5    8 1
    58    9   19 1
    59   11   13 1
    60   11   16 1
    61   11   22 1
    62   37   59 ar
    63   40   60 ar
    64   47   59 ar
    65   50   60 ar
    66   51   55 ar
    67   54   58 ar
@<TRIPOS>SUBSTRUCTURE
     1 RES1 1

@<TRIPOS>CRYSIN
   9.5369   17.0328   13.0190  90.0000  92.2000  90.0000 231 1

