# MOL2 file generated by ConQuest
# Please check atom types

@<TRIPOS>MOLECULE
OVALEN
    32    41     1
SMALL
NO_CHARGES
****
Generated from CSD

@<TRIPOS>ATOM
      1 C1         0.2821   -0.0940    3.0890 C.ar      1 RES1    0.0000
      2 C2         1.0506    0.5969    4.1447 C.ar      1 RES1    0.0000
      3 C3         2.0196    1.5040    3.8710 C.ar      1 RES1    0.0000
      4 C4         2.3537    1.9223    2.5513 C.ar      1 RES1    0.0000
      5 C5         3.3447    2.8670    2.2678 C.ar      1 RES1    0.0000
      6 C6         3.6178    3.2430    0.9580 C.ar      1 RES1    0.0000
      7 C7         2.9130    2.6837   -0.1173 C.ar      1 RES1    0.0000
      8 C8         3.1602    3.0315   -1.4761 C.ar      1 RES1    0.0000
      9 C9         2.4644    2.4957   -2.5122 C.ar      1 RES1    0.0000
     10 C10        1.4306    1.5228   -2.2874 C.ar      1 RES1    0.0000
     11 C11       -0.7179   -0.9494    3.3333 C.ar      1 RES1    0.0000
     12 C12       -0.1418   -0.1927    0.6745 C.ar      1 RES1    0.0000
     13 C13        0.6046    0.3901    1.7400 C.ar      1 RES1    0.0000
     14 C14        1.6294    1.3583    1.4761 C.ar      1 RES1    0.0000
     15 C15        1.9077    1.7343    0.1466 C.ar      1 RES1    0.0000
     16 C16        1.1639    1.1562   -0.9286 C.ar      1 RES1    0.0000
     17 C11B       0.7179    0.9494   -3.3333 C.ar      1 RES1    0.0000
     18 C10B      -1.4306   -1.5228    2.2874 C.ar      1 RES1    0.0000
     19 C12B       0.1418    0.1927   -0.6745 C.ar      1 RES1    0.0000
     20 C16B      -1.1639   -1.1562    0.9286 C.ar      1 RES1    0.0000
     21 C1B       -0.2821    0.0940   -3.0890 C.ar      1 RES1    0.0000
     22 C9B       -2.4644   -2.4957    2.5122 C.ar      1 RES1    0.0000
     23 C13B      -0.6046   -0.3901   -1.7400 C.ar      1 RES1    0.0000
     24 C15B      -1.9077   -1.7343   -0.1466 C.ar      1 RES1    0.0000
     25 C2B       -1.0506   -0.5969   -4.1447 C.ar      1 RES1    0.0000
     26 C8B       -3.1602   -3.0315    1.4761 C.ar      1 RES1    0.0000
     27 C14B      -1.6294   -1.3583   -1.4761 C.ar      1 RES1    0.0000
     28 C7B       -2.9130   -2.6837    0.1173 C.ar      1 RES1    0.0000
     29 C3B       -2.0196   -1.5040   -3.8710 C.ar      1 RES1    0.0000
     30 C4B       -2.3537   -1.9223   -2.5513 C.ar      1 RES1    0.0000
     31 C6B       -3.6178   -3.2430   -0.9580 C.ar      1 RES1    0.0000
     32 C5B       -3.3447   -2.8670   -2.2678 C.ar      1 RES1    0.0000
@<TRIPOS>BOND
     1    1    2 ar
     2    2    3 ar
     3    3    4 ar
     4    4    5 ar
     5    5    6 ar
     6    6    7 ar
     7    7    8 ar
     8    8    9 ar
     9    9   10 ar
    10   10   16 ar
    11   11    1 ar
    12   12   13 ar
    13   13    1 ar
    14   14    4 ar
    15   15    7 ar
    16   16   15 ar
    17   17   10 ar
    18   18   11 ar
    19   19   12 ar
    20   20   12 ar
    21   21   17 ar
    22   22   18 ar
    23   23   19 ar
    24   24   20 ar
    25   25   21 ar
    26   26   22 ar
    27   27   23 ar
    28   28   24 ar
    29   29   25 ar
    30   30   27 ar
    31   31   28 ar
    32   32   30 ar
    33   13   14 ar
    34   14   15 ar
    35   16   19 ar
    36   18   20 ar
    37   21   23 ar
    38   24   27 ar
    39   26   28 ar
    40   29   30 ar
    41   31   32 ar
@<TRIPOS>SUBSTRUCTURE
     1 RES1 1

@<TRIPOS>CRYSIN
  19.4700    4.7000   10.1200  90.0000 105.0000  90.0000  14 2

