# MOL2 file generated by ConQuest
# Please check atom types

@<TRIPOS>MOLECULE
OVEQOX
    52    58     1
SMALL
NO_CHARGES
****
Generated from CSD

@<TRIPOS>ATOM
      1 C1         5.2205    1.0686    1.7971 C.ar      1 RES1    0.0000
      2 C2         6.2382    1.4118    2.7180 C.ar      1 RES1    0.0000
      3 H1         6.0614    2.0374    3.3837 H         1 RES1    0.0000
      4 C3         7.4781    0.8372    2.6454 C.ar      1 RES1    0.0000
      5 H2         8.1314    1.0767    3.2609 H         1 RES1    0.0000
      6 C4         7.7731   -0.1011    1.6611 C.ar      1 RES1    0.0000
      7 H3         8.6187   -0.4864    1.6222 H         1 RES1    0.0000
      8 C5         6.8260   -0.4528    0.7594 C.ar      1 RES1    0.0000
      9 H4         7.0309   -1.0834    0.1063 H         1 RES1    0.0000
     10 C6         5.5370    0.1168    0.7875 C.ar      1 RES1    0.0000
     11 C7         4.5480   -0.2364   -0.1437 C.ar      1 RES1    0.0000
     12 H5         4.7495   -0.8489   -0.8139 H         1 RES1    0.0000
     13 C8         3.3077    0.2975   -0.0847 C.ar      1 RES1    0.0000
     14 H6         2.6709    0.0472   -0.7149 H         1 RES1    0.0000
     15 C9         2.9629    1.2340    0.9225 C.ar      1 RES1    0.0000
     16 C10        3.9017    1.6307    1.8422 C.ar      1 RES1    0.0000
     17 C11        3.5643    2.6620    2.8708 C.ar      1 RES1    0.0000
     18 C12        4.1614    3.9161    2.8082 C.ar      1 RES1    0.0000
     19 H7         4.7495    4.1099    2.1134 H         1 RES1    0.0000
     20 C13        3.8941    4.8758    3.7591 C.ar      1 RES1    0.0000
     21 H8         4.3006    5.7107    3.7027 H         1 RES1    0.0000
     22 C14        3.0317    4.6028    4.7878 C.ar      1 RES1    0.0000
     23 H9         2.8560    5.2512    5.4312 H         1 RES1    0.0000
     24 C15        2.4279    3.3754    4.8701 C.ar      1 RES1    0.0000
     25 H10        1.8499    3.1963    5.5760 H         1 RES1    0.0000
     26 C16        2.6675    2.3944    3.9142 C.ar      1 RES1    0.0000
     27 C17        1.9999    1.0715    4.0315 C.ar      1 RES1    0.0000
     28 C18        2.2820    0.2524    5.1188 C.ar      1 RES1    0.0000
     29 H11        2.8682    0.5525    5.7758 H         1 RES1    0.0000
     30 C19        1.7110   -0.9920    5.2394 C.ar      1 RES1    0.0000
     31 H12        1.9127   -1.5294    5.9701 H         1 RES1    0.0000
     32 C20        0.8448   -1.4354    4.2780 C.ar      1 RES1    0.0000
     33 H13        0.4699   -2.2840    4.3479 H         1 RES1    0.0000
     34 C21        0.5265   -0.6313    3.2096 C.ar      1 RES1    0.0000
     35 H14       -0.0734   -0.9379    2.5699 H         1 RES1    0.0000
     36 C22        1.0867    0.6324    3.0706 C.ar      1 RES1    0.0000
     37 C23        0.6847    1.5065    1.9292 C.ar      1 RES1    0.0000
     38 C24       -0.6484    2.0419    1.8741 C.ar      1 RES1    0.0000
     39 C25       -1.6118    1.8129    2.8787 C.ar      1 RES1    0.0000
     40 H15       -1.3922    1.2788    3.6073 H         1 RES1    0.0000
     41 C26       -2.8609    2.3608    2.8017 C.ar      1 RES1    0.0000
     42 H16       -3.4779    2.1991    3.4790 H         1 RES1    0.0000
     43 C27       -3.2185    3.1579    1.7205 C.ar      1 RES1    0.0000
     44 H17       -4.0700    3.5278    1.6754 H         1 RES1    0.0000
     45 C28       -2.3253    3.3946    0.7359 C.ar      1 RES1    0.0000
     46 H18       -2.5765    3.9253    0.0147 H         1 RES1    0.0000
     47 C29       -1.0137    2.8535    0.7754 C.ar      1 RES1    0.0000
     48 C30       -0.0746    3.0936   -0.2425 C.ar      1 RES1    0.0000
     49 H19       -0.3179    3.6140   -0.9733 H         1 RES1    0.0000
     50 C31        1.1803    2.5811   -0.1793 C.ar      1 RES1    0.0000
     51 H20        1.7835    2.7543   -0.8652 H         1 RES1    0.0000
     52 C32        1.5805    1.7856    0.9218 C.ar      1 RES1    0.0000
@<TRIPOS>BOND
     1    1    2 ar
     2    2    3 1
     3    4    2 ar
     4    5    4 1
     5    6    4 ar
     6    7    6 1
     7    8    6 ar
     8    9    8 1
     9   10    1 ar
    10   11   10 ar
    11   12   11 1
    12   13   11 ar
    13   14   13 1
    14   15   13 ar
    15   16    1 ar
    16   17   16 1
    17   18   17 ar
    18   19   18 1
    19   20   18 ar
    20   21   20 1
    21   22   20 ar
    22   23   22 1
    23   24   22 ar
    24   25   24 1
    25   26   17 ar
    26   27   26 1
    27   28   27 ar
    28   29   28 1
    29   30   28 ar
    30   31   30 1
    31   32   30 ar
    32   33   32 1
    33   34   32 ar
    34   35   34 1
    35   36   27 ar
    36   37   36 1
    37   38   37 ar
    38   39   38 ar
    39   40   39 1
    40   41   39 ar
    41   42   41 1
    42   43   41 ar
    43   44   43 1
    44   45   43 ar
    45   46   45 1
    46   47   38 ar
    47   48   47 ar
    48   49   48 1
    49   50   48 ar
    50   51   50 1
    51   52   15 1
    52    8   10 ar
    53   15   16 ar
    54   24   26 ar
    55   34   36 ar
    56   37   52 ar
    57   45   47 ar
    58   50   52 ar
@<TRIPOS>SUBSTRUCTURE
     1 RES1 1

@<TRIPOS>CRYSIN
  17.4680   13.4750   18.3300  90.0000  90.0000  90.0000  61 1

