# MOL2 file generated by ConQuest
# Please check atom types

@<TRIPOS>MOLECULE
OVILOW
    62    71     1
SMALL
NO_CHARGES
****
Generated from CSD

@<TRIPOS>ATOM
      1 C1         4.5301    3.3744    6.9967 C.2       1 RES1    0.0000
      2 C2         4.7274    3.1593    8.3366 C.2       1 RES1    0.0000
      3 C3         5.7366    3.0586    9.3900 C.ar      1 RES1    0.0000
      4 C4         7.1117    3.0792    9.4498 C.ar      1 RES1    0.0000
      5 H1         7.6290    3.1470    8.6558 H         1 RES1    0.0000
      6 C5         7.7424    2.9970   10.7124 C.ar      1 RES1    0.0000
      7 H2         8.6919    2.9983   10.7505 H         1 RES1    0.0000
      8 C6         7.0323    2.9154   11.8899 C.ar      1 RES1    0.0000
      9 H3         7.4941    2.8634   12.7184 H         1 RES1    0.0000
     10 C7         5.6149    2.9072   11.8699 C.ar      1 RES1    0.0000
     11 C8         5.0043    2.9702   10.6055 C.ar      1 RES1    0.0000
     12 C9         4.7495    2.8141   12.9849 C.ar      1 RES1    0.0000
     13 H4         5.1142    2.7531   13.8594 H         1 RES1    0.0000
     14 C10        3.3835    2.8106   12.8132 C.ar      1 RES1    0.0000
     15 H5         2.8268    2.7442   13.5797 H         1 RES1    0.0000
     16 C11        2.7790    2.9024   11.5378 C.ar      1 RES1    0.0000
     17 H6         1.8335    2.9113   11.4505 H         1 RES1    0.0000
     18 C12        3.5883    2.9792   10.4247 C.ar      1 RES1    0.0000
     19 C13        3.3818    3.0949    8.9856 C.2       1 RES1    0.0000
     20 C14        2.3868    3.2826    8.0676 C.2       1 RES1    0.0000
     21 C15        0.9374    3.3306    8.2991 C.ar      1 RES1    0.0000
     22 C16        0.1440    4.2869    7.6669 C.ar      1 RES1    0.0000
     23 H7         0.5469    4.9246    7.0903 H         1 RES1    0.0000
     24 C17       -1.2267    4.3170    7.8718 C.ar      1 RES1    0.0000
     25 H8        -1.7553    4.9739    7.4348 H         1 RES1    0.0000
     26 C18       -1.8266    3.3943    8.7094 C.ar      1 RES1    0.0000
     27 H9        -2.7674    3.4093    8.8391 H         1 RES1    0.0000
     28 C19       -1.0509    2.4483    9.3585 C.ar      1 RES1    0.0000
     29 H10       -1.4578    1.8228    9.9457 H         1 RES1    0.0000
     30 C20        0.3226    2.4126    9.1515 C.ar      1 RES1    0.0000
     31 H11        0.8483    1.7578    9.5943 H         1 RES1    0.0000
     32 C1B        3.0794    3.4758    6.7842 C.2       1 RES1    0.0000
     33 C2B        2.8822    3.6909    5.4443 C.2       1 RES1    0.0000
     34 C3B        1.8729    3.7916    4.3909 C.ar      1 RES1    0.0000
     35 C4B        0.4978    3.7710    4.3311 C.ar      1 RES1    0.0000
     36 H1B       -0.0195    3.7032    5.1251 H         1 RES1    0.0000
     37 C5B       -0.1328    3.8532    3.0685 C.ar      1 RES1    0.0000
     38 H2B       -1.0824    3.8519    3.0304 H         1 RES1    0.0000
     39 C6B        0.5773    3.9348    1.8910 C.ar      1 RES1    0.0000
     40 H3B        0.1154    3.9868    1.0625 H         1 RES1    0.0000
     41 C7B        1.9947    3.9430    1.9110 C.ar      1 RES1    0.0000
     42 C8B        2.6053    3.8800    3.1754 C.ar      1 RES1    0.0000
     43 C9B        2.8601    4.0361    0.7960 C.ar      1 RES1    0.0000
     44 H4B        2.4953    4.0971   -0.0786 H         1 RES1    0.0000
     45 C10B       4.2260    4.0396    0.9677 C.ar      1 RES1    0.0000
     46 H5B        4.7827    4.1060    0.2012 H         1 RES1    0.0000
     47 C11B       4.8305    3.9478    2.2431 C.ar      1 RES1    0.0000
     48 H6B        5.7760    3.9389    2.3303 H         1 RES1    0.0000
     49 C12B       4.0212    3.8710    3.3562 C.ar      1 RES1    0.0000
     50 C13B       4.2277    3.7553    4.7953 C.2       1 RES1    0.0000
     51 C14B       5.2227    3.5676    5.7133 C.2       1 RES1    0.0000
     52 C15B       6.6721    3.5196    5.4818 C.ar      1 RES1    0.0000
     53 C16B       7.4656    2.5633    6.1140 C.ar      1 RES1    0.0000
     54 H7B        7.0626    1.9256    6.6906 H         1 RES1    0.0000
     55 C17B       8.8362    2.5332    5.9091 C.ar      1 RES1    0.0000
     56 H8B        9.3649    1.8763    6.3461 H         1 RES1    0.0000
     57 C18B       9.4362    3.4559    5.0715 C.ar      1 RES1    0.0000
     58 H9B       10.3769    3.4409    4.9418 H         1 RES1    0.0000
     59 C19B       8.6604    4.4019    4.4224 C.ar      1 RES1    0.0000
     60 H10B       9.0673    5.0274    3.8352 H         1 RES1    0.0000
     61 C20B       7.2869    4.4376    4.6294 C.ar      1 RES1    0.0000
     62 H11B       6.7612    5.0924    4.1866 H         1 RES1    0.0000
@<TRIPOS>BOND
     1    1    2 2
     2    2    3 1
     3    3    4 ar
     4    4    5 1
     5    6    4 ar
     6    7    6 1
     7    8    6 ar
     8    9    8 1
     9   10    8 ar
    10   11    3 ar
    11   12   10 ar
    12   13   12 1
    13   14   12 ar
    14   15   14 1
    15   16   14 ar
    16   17   16 1
    17   18   11 ar
    18   19    2 1
    19   20   19 2
    20   21   20 1
    21   22   21 ar
    22   23   22 1
    23   24   22 ar
    24   25   24 1
    25   26   24 ar
    26   27   26 1
    27   28   26 ar
    28   29   28 1
    29   30   21 ar
    30   31   30 1
    31   32    1 1
    32   33   32 2
    33   34   33 1
    34   35   34 ar
    35   36   35 1
    36   37   35 ar
    37   38   37 1
    38   39   37 ar
    39   40   39 1
    40   41   39 ar
    41   42   34 ar
    42   43   41 ar
    43   44   43 1
    44   45   43 ar
    45   46   45 1
    46   47   45 ar
    47   48   47 1
    48   49   42 ar
    49   50   33 1
    50   51    1 1
    51   52   51 1
    52   53   52 ar
    53   54   53 1
    54   55   53 ar
    55   56   55 1
    56   57   55 ar
    57   58   57 1
    58   59   57 ar
    59   60   59 1
    60   61   52 ar
    61   62   61 1
    62   10   11 ar
    63   16   18 ar
    64   18   19 1
    65   20   32 1
    66   28   30 ar
    67   41   42 ar
    68   47   49 ar
    69   49   50 1
    70   50   51 2
    71   59   61 ar
@<TRIPOS>SUBSTRUCTURE
     1 RES1 1

@<TRIPOS>CRYSIN
  12.8411    6.8502   14.7405  90.0000 110.7880  90.0000 231 1

