# MOL2 file generated by ConQuest
# Please check atom types

@<TRIPOS>MOLECULE
OXIYOK
    56    60     1
SMALL
NO_CHARGES
****
Generated from CSD

@<TRIPOS>ATOM
      1 C1         3.3989    3.8652   11.7108 C.ar      1 RES1    0.0000
      2 C2         2.9536    5.0606   12.1811 C.ar      1 RES1    0.0000
      3 C3         2.5127    2.7195   11.6236 C.ar      1 RES1    0.0000
      4 C4         1.1440    2.8633   11.9942 C.ar      1 RES1    0.0000
      5 C5         0.3002    1.7413   11.8589 C.ar      1 RES1    0.0000
      6 H1        -0.6167    1.8344   12.0923 H         1 RES1    0.0000
      7 C6         0.7385    0.5181   11.4067 C.ar      1 RES1    0.0000
      8 C7         2.1018    0.3940   11.0895 C.ar      1 RES1    0.0000
      9 H2         2.4364   -0.4467   10.8003 H         1 RES1    0.0000
     10 C8         2.9535    1.4549   11.1869 C.ar      1 RES1    0.0000
     11 H3         3.8667    1.3380   10.9551 H         1 RES1    0.0000
     12 C9        -0.2127   -0.6370   11.2427 C.3       1 RES1    0.0000
     13 H4        -0.9592   -0.5356   11.8687 H         1 RES1    0.0000
     14 H5         0.2586   -1.4756   11.4272 H         1 RES1    0.0000
     15 H6        -0.5551   -0.6494   10.3244 H         1 RES1    0.0000
     16 C10        4.8075    3.6988   11.2158 C.ar      1 RES1    0.0000
     17 C11        5.1681    4.1796    9.9618 C.ar      1 RES1    0.0000
     18 H7         4.5346    4.6687    9.4491 H         1 RES1    0.0000
     19 C12        6.4346    3.9583    9.4448 C.ar      1 RES1    0.0000
     20 H8         6.6518    4.2964    8.5852 H         1 RES1    0.0000
     21 C13        7.3876    3.2531   10.1568 C.ar      1 RES1    0.0000
     22 C14        7.0373    2.7898   11.4210 C.ar      1 RES1    0.0000
     23 H9         7.6775    2.3131   11.9375 H         1 RES1    0.0000
     24 C15        5.7658    3.0132   11.9445 C.ar      1 RES1    0.0000
     25 H10        5.5529    2.6906   12.8128 H         1 RES1    0.0000
     26 C16        8.7457    2.9749    9.5549 C.3       1 RES1    0.0000
     27 H11        8.7290    3.1879    8.5986 H         1 RES1    0.0000
     28 H12        8.9680    2.0278    9.6746 H         1 RES1    0.0000
     29 H13        9.4199    3.5271   10.0014 H         1 RES1    0.0000
     30 C17        1.5756    5.2219   12.5987 C.ar      1 RES1    0.0000
     31 C18        0.6657    4.1444   12.4854 C.ar      1 RES1    0.0000
     32 C19       -0.6798    4.3554   12.8386 C.ar      1 RES1    0.0000
     33 H14       -1.2925    3.6326   12.7612 H         1 RES1    0.0000
     34 C20       -1.1440    5.5693   13.2931 C.ar      1 RES1    0.0000
     35 C21       -0.2254    6.6158   13.4397 C.ar      1 RES1    0.0000
     36 H15       -0.5194    7.4523   13.7818 H         1 RES1    0.0000
     37 C22        1.0943    6.4514   13.0970 C.ar      1 RES1    0.0000
     38 H16        1.6954    7.1804   13.1969 H         1 RES1    0.0000
     39 C23       -2.6200    5.7772   13.5522 C.3       1 RES1    0.0000
     40 H17       -2.7697    6.6882   13.8793 H         1 RES1    0.0000
     41 H18       -2.9266    5.1340   14.2252 H         1 RES1    0.0000
     42 H19       -3.1204    5.6417   12.7211 H         1 RES1    0.0000
     43 C24        3.8699    6.2487   12.2622 C.ar      1 RES1    0.0000
     44 C25        4.5997    6.5155   13.4125 C.ar      1 RES1    0.0000
     45 H20        4.5182    5.9416   14.1659 H         1 RES1    0.0000
     46 C26        5.4472    7.6147   13.4722 C.ar      1 RES1    0.0000
     47 H21        5.9224    7.7936   14.2749 H         1 RES1    0.0000
     48 C27        5.6160    8.4564   12.3832 C.ar      1 RES1    0.0000
     49 C28        4.8787    8.1886   11.2402 C.ar      1 RES1    0.0000
     50 H22        4.9711    8.7552   10.4830 H         1 RES1    0.0000
     51 C29        4.0093    7.1080   11.1766 C.ar      1 RES1    0.0000
     52 H23        3.5047    6.9539   10.3856 H         1 RES1    0.0000
     53 C30        6.5740    9.6217   12.4518 C.3       1 RES1    0.0000
     54 H24        7.4327    9.3177   12.8147 H         1 RES1    0.0000
     55 H25        6.2027   10.3166   13.0345 H         1 RES1    0.0000
     56 H26        6.7095    9.9868   11.5533 H         1 RES1    0.0000
@<TRIPOS>BOND
     1    1    2 ar
     2    2   30 ar
     3    3    1 ar
     4    4    3 ar
     5    5    4 ar
     6    6    5 1
     7    7    5 ar
     8    8    7 ar
     9    9    8 1
    10   10    3 ar
    11   11   10 1
    12   12    7 1
    13   13   12 1
    14   14   12 1
    15   15   12 1
    16   16    1 1
    17   17   16 ar
    18   18   17 1
    19   19   17 ar
    20   20   19 1
    21   21   19 ar
    22   22   21 ar
    23   23   22 1
    24   24   16 ar
    25   25   24 1
    26   26   21 1
    27   27   26 1
    28   28   26 1
    29   29   26 1
    30   30   31 ar
    31   31    4 ar
    32   32   31 ar
    33   33   32 1
    34   34   32 ar
    35   35   34 ar
    36   36   35 1
    37   37   30 ar
    38   38   37 1
    39   39   34 1
    40   40   39 1
    41   41   39 1
    42   42   39 1
    43   43    2 1
    44   44   43 ar
    45   45   44 1
    46   46   44 ar
    47   47   46 1
    48   48   46 ar
    49   49   48 ar
    50   50   49 1
    51   51   43 ar
    52   52   51 1
    53   53   48 1
    54   54   53 1
    55   55   53 1
    56   56   53 1
    57    8   10 ar
    58   22   24 ar
    59   35   37 ar
    60   49   51 ar
@<TRIPOS>SUBSTRUCTURE
     1 RES1 1

@<TRIPOS>CRYSIN
  10.9572   10.3404   19.7800  90.0000 104.9310  90.0000 231 1

