# MOL2 file generated by ConQuest
# Please check atom types

@<TRIPOS>MOLECULE
OXOVEE
    54    60     1
SMALL
NO_CHARGES
****
Generated from CSD

@<TRIPOS>ATOM
      1 C1         5.8350    3.9406   17.0494 C.ar      1 RES1    0.0000
      2 C2         5.5069    3.1820   18.2228 C.ar      1 RES1    0.0000
      3 C3         4.2292    3.2765   18.8335 C.ar      1 RES1    0.0000
      4 H1         3.5699    3.8390   18.4446 H         1 RES1    0.0000
      5 C4         3.9268    2.5776   19.9668 C.ar      1 RES1    0.0000
      6 H2         3.0653    2.6722   20.3580 H         1 RES1    0.0000
      7 C5         4.8662    1.7190   20.5669 C.ar      1 RES1    0.0000
      8 C6         6.0983    1.5858   19.9712 C.ar      1 RES1    0.0000
      9 H3         6.7346    0.9978   20.3606 H         1 RES1    0.0000
     10 C7         6.4512    2.2961   18.7957 C.ar      1 RES1    0.0000
     11 C8         7.7126    2.1103   18.1311 C.ar      1 RES1    0.0000
     12 C9         8.6018    1.0674   18.5335 C.ar      1 RES1    0.0000
     13 H4         8.3592    0.5043   19.2602 H         1 RES1    0.0000
     14 C10        9.7810    0.8636   17.9046 C.ar      1 RES1    0.0000
     15 H5        10.3508    0.1603   18.1935 H         1 RES1    0.0000
     16 C11       10.1813    1.6847   16.8184 C.ar      1 RES1    0.0000
     17 C12       11.3951    1.4418   16.1530 C.ar      1 RES1    0.0000
     18 H6        11.9690    0.7451   16.4510 H         1 RES1    0.0000
     19 C13       11.7513    2.2119   15.0742 C.ar      1 RES1    0.0000
     20 H7        12.5749    2.0494   14.6283 H         1 RES1    0.0000
     21 C14       10.9123    3.2303   14.6301 C.ar      1 RES1    0.0000
     22 H8        11.1772    3.7553   13.8853 H         1 RES1    0.0000
     23 C15        9.6948    3.4999   15.2487 C.ar      1 RES1    0.0000
     24 C16        8.8093    4.5662   14.7863 C.ar      1 RES1    0.0000
     25 C17        9.1730    5.3841   13.7001 C.ar      1 RES1    0.0000
     26 H9         9.9626    5.1786   13.2121 H         1 RES1    0.0000
     27 C18        8.4214    6.4715   13.3234 C.ar      1 RES1    0.0000
     28 H10        8.6692    6.9884   12.5648 H         1 RES1    0.0000
     29 C19        7.2952    6.8041   14.0655 C.ar      1 RES1    0.0000
     30 H11        6.7981    7.5845   13.8516 H         1 RES1    0.0000
     31 C20        6.9006    6.0020   15.1122 C.ar      1 RES1    0.0000
     32 H12        6.1336    6.2487   15.6148 H         1 RES1    0.0000
     33 C21        7.5947    4.8265   15.4628 C.ar      1 RES1    0.0000
     34 C22        7.1303    3.9200   16.5349 C.ar      1 RES1    0.0000
     35 C23        8.0591    2.9379   17.0432 C.ar      1 RES1    0.0000
     36 C24        9.3189    2.7265   16.3788 C.ar      1 RES1    0.0000
     37 C25        4.5113    0.9592   21.8151 C.3       1 RES1    0.0000
     38 H13        3.6801    1.3173   22.1911 H         1 RES1    0.0000
     39 H14        5.2327    1.0532   22.4707 H         1 RES1    0.0000
     40 H15        4.3892    0.0114   21.5982 H         1 RES1    0.0000
     41 C26        4.7095    4.6542   16.3783 C.ar      1 RES1    0.0000
     42 C27        4.0913    5.7688   16.9466 C.ar      1 RES1    0.0000
     43 H16        4.3609    6.0661   17.8077 H         1 RES1    0.0000
     44 C28        3.0914    6.4449   16.2732 C.ar      1 RES1    0.0000
     45 H17        2.6989    7.2133   16.6711 H         1 RES1    0.0000
     46 C29        2.6468    6.0226   15.0224 C.ar      1 RES1    0.0000
     47 C30        3.2385    4.8884   14.4725 C.ar      1 RES1    0.0000
     48 H18        2.9440    4.5727   13.6264 H         1 RES1    0.0000
     49 C31        4.2502    4.2124   15.1368 C.ar      1 RES1    0.0000
     50 H19        4.6358    3.4390   14.7423 H         1 RES1    0.0000
     51 C32        1.5511    6.7644   14.3073 C.3       1 RES1    0.0000
     52 H20        1.5729    6.5400   13.3545 H         1 RES1    0.0000
     53 H21        1.6833    7.7291   14.4186 H         1 RES1    0.0000
     54 H22        0.6835    6.5079   14.6827 H         1 RES1    0.0000
@<TRIPOS>BOND
     1    1    2 ar
     2    2    3 ar
     3    3    4 1
     4    5    3 ar
     5    6    5 1
     6    7    5 ar
     7    8    7 ar
     8    9    8 1
     9   10    2 ar
    10   11   10 ar
    11   12   11 ar
    12   13   12 1
    13   14   12 ar
    14   15   14 1
    15   16   14 ar
    16   17   16 ar
    17   18   17 1
    18   19   17 ar
    19   20   19 1
    20   21   19 ar
    21   22   21 1
    22   23   21 ar
    23   24   23 ar
    24   25   24 ar
    25   26   25 1
    26   27   25 ar
    27   28   27 1
    28   29   27 ar
    29   30   29 1
    30   31   29 ar
    31   32   31 1
    32   33   24 ar
    33   34    1 ar
    34   35   11 ar
    35   36   16 ar
    36   37    7 1
    37   38   37 1
    38   39   37 1
    39   40   37 1
    40   41    1 1
    41   42   41 ar
    42   43   42 1
    43   44   42 ar
    44   45   44 1
    45   46   44 ar
    46   47   46 ar
    47   48   47 1
    48   49   41 ar
    49   50   49 1
    50   51   46 1
    51   52   51 1
    52   53   51 1
    53   54   51 1
    54    8   10 ar
    55   23   36 ar
    56   31   33 ar
    57   33   34 ar
    58   34   35 ar
    59   35   36 ar
    60   47   49 ar
@<TRIPOS>SUBSTRUCTURE
     1 RES1 1

@<TRIPOS>CRYSIN
  14.4427    5.4346   26.7077  90.0000 104.2070  90.0000  14 1

