# MOL2 file generated by ConQuest
# Please check atom types

@<TRIPOS>MOLECULE
PAMREA
    53    59     1
SMALL
NO_CHARGES
****
Generated from CSD

@<TRIPOS>ATOM
      1 C1         9.4987   -1.2145    2.5849 C.ar      1 RES1    0.0000
      2 C2        10.2543   -1.1465    1.4550 C.ar      1 RES1    0.0000
      3 C3         9.7969   -0.4482    0.3108 C.ar      1 RES1    0.0000
      4 C4         8.5892    0.1536    0.3375 C.ar      1 RES1    0.0000
      5 C5         4.3981    1.3051    2.6013 C.ar      1 RES1    0.0000
      6 C6         3.5593    1.2296    3.6571 C.ar      1 RES1    0.0000
      7 C7         3.9681    0.5053    4.8116 C.ar      1 RES1    0.0000
      8 C8         5.1804   -0.0932    4.8830 C.ar      1 RES1    0.0000
      9 C9         7.4020   -0.6085    3.8320 C.ar      1 RES1    0.0000
     10 C10        6.5168    0.7310    1.5060 C.ar      1 RES1    0.0000
     11 C11        8.2181   -0.5791    2.6711 C.ar      1 RES1    0.0000
     12 C12        7.7564    0.1108    1.4960 C.ar      1 RES1    0.0000
     13 C13        6.1166   -0.0235    3.7913 C.ar      1 RES1    0.0000
     14 C14        5.6804    0.6765    2.6157 C.ar      1 RES1    0.0000
     15 C15        7.9402   -1.2329    5.1187 C.3       1 RES1    0.0000
     16 C16        8.1085   -0.2249    6.2641 C.3       1 RES1    0.0000
     17 C17        8.7529   -0.9140    7.4582 C.3       1 RES1    0.0000
     18 C18        7.9614   -2.1134    7.9206 C.ar      1 RES1    0.0000
     19 C19        7.9899   -2.5280    9.2674 C.ar      1 RES1    0.0000
     20 C20        8.8330   -1.9254   10.2550 C.ar      1 RES1    0.0000
     21 C21        8.8453   -2.3727   11.5433 C.ar      1 RES1    0.0000
     22 C22        7.9992   -3.4210   11.9529 C.ar      1 RES1    0.0000
     23 C23        7.1931   -4.0362   11.0535 C.ar      1 RES1    0.0000
     24 C24        7.1907   -3.6384    9.6790 C.ar      1 RES1    0.0000
     25 C25        6.4954   -4.3686    8.7259 C.ar      1 RES1    0.0000
     26 C26        6.5297   -4.0345    7.3771 C.ar      1 RES1    0.0000
     27 C27        5.9097   -4.8461    6.3839 C.ar      1 RES1    0.0000
     28 C28        5.9307   -4.4970    5.0771 C.ar      1 RES1    0.0000
     29 C29        6.5670   -3.2926    4.6756 C.ar      1 RES1    0.0000
     30 C30        7.1937   -2.4768    5.5766 C.ar      1 RES1    0.0000
     31 C31        7.2286   -2.8461    6.9696 C.ar      1 RES1    0.0000
     32 H1         9.8550   -1.7457    3.3340 H         1 RES1    0.0000
     33 H2        11.1336   -1.6115    1.4344 H         1 RES1    0.0000
     34 H3        10.3561   -0.4029   -0.5145 H         1 RES1    0.0000
     35 H4         8.2492    0.6463   -0.4466 H         1 RES1    0.0000
     36 H5         6.2101    1.2002    0.7080 H         1 RES1    0.0000
     37 H6         4.1403    1.7625    1.7966 H         1 RES1    0.0000
     38 H7         2.6967    1.6870    3.6118 H         1 RES1    0.0000
     39 H8         3.3793    0.4280    5.5710 H         1 RES1    0.0000
     40 H9         5.4157   -0.6211    5.7048 H         1 RES1    0.0000
     41 H10        8.8992   -1.5779    4.9413 H         1 RES1    0.0000
     42 H11        8.7283    0.5204    5.9620 H         1 RES1    0.0000
     43 H12        7.1902    0.1846    6.5095 H         1 RES1    0.0000
     44 H13        9.7235   -1.2254    7.1824 H         1 RES1    0.0000
     45 H14        8.8393   -0.2938    8.1909 H         1 RES1    0.0000
     46 H15        9.4014   -1.2002    9.9751 H         1 RES1    0.0000
     47 H16        9.4959   -1.9640   12.2245 H         1 RES1    0.0000
     48 H17        7.9961   -3.7181   12.9037 H         1 RES1    0.0000
     49 H18        6.5833   -4.8176   11.2984 H         1 RES1    0.0000
     50 H19        6.0075   -5.1365    8.9832 H         1 RES1    0.0000
     51 H20        5.4610   -5.6905    6.6906 H         1 RES1    0.0000
     52 H21        5.4724   -5.0694    4.3835 H         1 RES1    0.0000
     53 H22        6.6026   -3.0551    3.7044 H         1 RES1    0.0000
@<TRIPOS>BOND
     1    1    2 ar
     2    2    3 ar
     3    3    4 ar
     4    4   12 ar
     5    5    6 ar
     6    6    7 ar
     7    7    8 ar
     8    8   13 ar
     9    9   11 ar
    10   10   12 ar
    11   11    1 ar
    12   12   11 ar
    13   13    9 ar
    14   14    5 ar
    15   15    9 1
    16   16   15 1
    17   17   16 1
    18   18   17 1
    19   19   18 ar
    20   20   19 ar
    21   21   20 ar
    22   22   21 ar
    23   23   22 ar
    24   24   19 ar
    25   25   24 ar
    26   26   25 ar
    27   27   26 ar
    28   28   27 ar
    29   29   28 ar
    30   30   15 1
    31   31   18 ar
    32   32    1 1
    33   33    2 1
    34   34    3 1
    35   35    4 1
    36   36   10 1
    37   37    5 1
    38   38    6 1
    39   39    7 1
    40   40    8 1
    41   41   15 1
    42   42   16 1
    43   43   16 1
    44   44   17 1
    45   45   17 1
    46   46   20 1
    47   47   21 1
    48   48   22 1
    49   49   23 1
    50   50   25 1
    51   51   27 1
    52   52   28 1
    53   53   29 1
    54   10   14 ar
    55   13   14 ar
    56   23   24 ar
    57   26   31 ar
    58   29   30 ar
    59   30   31 ar
@<TRIPOS>SUBSTRUCTURE
     1 RES1 1

@<TRIPOS>CRYSIN
  11.5520    8.3930   21.1420  90.0000 103.2400  90.0000  14 2

