# MOL2 file generated by ConQuest
# Please check atom types

@<TRIPOS>MOLECULE
PASDOF
   328   364     4
SMALL
NO_CHARGES
****
Generated from CSD

@<TRIPOS>ATOM
      1 C1       -10.0513   13.4646   11.0259 C.ar      1 RES1    0.0000
      2 H1        -9.4173   13.5742   10.3524 H         1 RES1    0.0000
      3 C2       -10.6152   14.5799   11.5964 C.ar      1 RES1    0.0000
      4 H2       -10.3483   15.4285   11.3217 H         1 RES1    0.0000
      5 C3       -11.5692   14.4440   12.5679 C.ar      1 RES1    0.0000
      6 H3       -11.9633   15.1922   12.9549 H         1 RES1    0.0000
      7 C4       -11.9351   13.1780   12.9625 C.ar      1 RES1    0.0000
      8 H4       -12.5745   13.0703   13.6315 H         1 RES1    0.0000
      9 C5       -11.3637   12.0640   12.3749 C.ar      1 RES1    0.0000
     10 H5       -11.6378   11.2125   12.6296 H         1 RES1    0.0000
     11 C6       -10.3849   12.2094   11.4098 C.ar      1 RES1    0.0000
     12 C7        -9.7525   11.0200   10.7607 C.ar      1 RES1    0.0000
     13 C8       -10.4865    9.8459   10.5486 C.ar      1 RES1    0.0000
     14 H6       -11.3797    9.8087   10.8052 H         1 RES1    0.0000
     15 C9        -9.9056    8.7615    9.9737 C.ar      1 RES1    0.0000
     16 H7       -10.4136    7.9906    9.8588 H         1 RES1    0.0000
     17 C10       -8.5694    8.7552    9.5453 C.ar      1 RES1    0.0000
     18 C11       -7.8193    9.9576    9.6704 C.ar      1 RES1    0.0000
     19 C12       -8.4329   11.0432   10.3450 C.ar      1 RES1    0.0000
     20 H8        -7.9259   11.8033   10.5151 H         1 RES1    0.0000
     21 C13       -7.9479    7.5883    8.9662 C.ar      1 RES1    0.0000
     22 C14       -8.6830    6.4098    8.7010 C.ar      1 RES1    0.0000
     23 H9        -9.5703    6.3606    8.9780 H         1 RES1    0.0000
     24 C15       -8.1330    5.3400    8.0562 C.ar      1 RES1    0.0000
     25 H10       -8.6316    4.5617    7.9481 H         1 RES1    0.0000
     26 C16       -6.8294    5.3990    7.5514 C.ar      1 RES1    0.0000
     27 C17       -6.2827    4.2636    6.7432 C.ar      1 RES1    0.0000
     28 C18       -6.8692    3.0054    6.8153 C.ar      1 RES1    0.0000
     29 H11       -7.6010    2.8721    7.3714 H         1 RES1    0.0000
     30 C19       -6.3728    1.9360    6.0623 C.ar      1 RES1    0.0000
     31 H12       -6.7728    1.0993    6.1254 H         1 RES1    0.0000
     32 C20       -5.2983    2.1184    5.2329 C.ar      1 RES1    0.0000
     33 H13       -4.9621    1.4050    4.7415 H         1 RES1    0.0000
     34 C21       -4.7163    3.3693    5.1332 C.ar      1 RES1    0.0000
     35 H14       -3.9864    3.4965    4.5708 H         1 RES1    0.0000
     36 C22       -5.2228    4.4396    5.8714 C.ar      1 RES1    0.0000
     37 H15       -4.8422    5.2821    5.7768 H         1 RES1    0.0000
     38 C23       -6.0735    6.5209    7.8547 C.ar      1 RES1    0.0000
     39 H16       -5.1966    6.5634    7.5491 H         1 RES1    0.0000
     40 C24       -6.5831    7.6059    8.6098 C.ar      1 RES1    0.0000
     41 C25       -5.7782    8.7751    8.9450 C.ar      1 RES1    0.0000
     42 C26       -6.4160    9.9926    9.2292 C.ar      1 RES1    0.0000
     43 C27       -5.6525   11.2316    9.0489 C.ar      1 RES1    0.0000
     44 C28       -6.2663   12.4737    8.7753 C.ar      1 RES1    0.0000
     45 H17       -7.1945   12.5123    8.7300 H         1 RES1    0.0000
     46 C29       -5.5401   13.6483    8.5695 C.ar      1 RES1    0.0000
     47 C30       -6.1981   14.9535    8.2895 C.ar      1 RES1    0.0000
     48 C31       -7.5682   15.1447    8.4826 C.ar      1 RES1    0.0000
     49 H18       -8.0940   14.4270    8.7548 H         1 RES1    0.0000
     50 C32       -8.1625   16.3796    8.2768 C.ar      1 RES1    0.0000
     51 H19       -9.0736   16.4813    8.4238 H         1 RES1    0.0000
     52 C33       -7.4164   17.4577    7.8547 C.ar      1 RES1    0.0000
     53 H20       -7.8164   18.2861    7.7206 H         1 RES1    0.0000
     54 C34       -6.0691   17.2892    7.6341 C.ar      1 RES1    0.0000
     55 H21       -5.5584   18.0047    7.3313 H         1 RES1    0.0000
     56 C35       -5.4720   16.0660    7.8632 C.ar      1 RES1    0.0000
     57 H22       -4.5555   15.9793    7.7277 H         1 RES1    0.0000
     58 C36       -4.1451   13.5607    8.6417 C.ar      1 RES1    0.0000
     59 H23       -3.6336   14.3330    8.5568 H         1 RES1    0.0000
     60 C37       -3.5233   12.3636    8.8347 C.ar      1 RES1    0.0000
     61 H24       -2.5936   12.3363    8.8452 H         1 RES1    0.0000
     62 C38       -4.2351   11.1787    9.0192 C.ar      1 RES1    0.0000
     63 C39       -3.5719    9.8971    9.1804 C.ar      1 RES1    0.0000
     64 C40       -2.1741    9.8165    9.4456 C.ar      1 RES1    0.0000
     65 H25       -1.6723   10.5972    9.5014 H         1 RES1    0.0000
     66 C41       -1.5606    8.6048    9.6216 C.ar      1 RES1    0.0000
     67 H26       -0.6484    8.5826    9.7949 H         1 RES1    0.0000
     68 C42       -2.2656    7.4085    9.5495 C.ar      1 RES1    0.0000
     69 C43       -3.6316    7.4700    9.3013 C.ar      1 RES1    0.0000
     70 H27       -4.1151    6.6764    9.2775 H         1 RES1    0.0000
     71 C44       -4.3258    8.6970    9.0807 C.ar      1 RES1    0.0000
     72 C45       -1.5707    6.1071    9.7128 C.ar      1 RES1    0.0000
     73 C46       -0.5212    5.9639   10.6271 C.ar      1 RES1    0.0000
     74 H28       -0.2660    6.6882   11.1525 H         1 RES1    0.0000
     75 C47        0.1400    4.7537   10.7565 C.ar      1 RES1    0.0000
     76 H29        0.8312    4.6698   11.3730 H         1 RES1    0.0000
     77 C48       -0.2166    3.6726    9.9801 C.ar      1 RES1    0.0000
     78 H30        0.2323    2.8639   10.0678 H         1 RES1    0.0000
     79 C49       -1.2553    3.8034    9.0659 C.ar      1 RES1    0.0000
     80 H31       -1.5005    3.0801    8.5360 H         1 RES1    0.0000
     81 C50       -1.9238    5.0107    8.9429 C.ar      1 RES1    0.0000
     82 H32       -2.6224    5.0868    8.3320 H         1 RES1    0.0000
     83 C51        3.2406    7.0864    5.8459 C.ar      2 RES2    0.0000
     84 H33        4.0386    6.8451    5.4322 H         2 RES2    0.0000
     85 C52        2.7441    8.3603    5.6593 C.ar      2 RES2    0.0000
     86 H34        3.2046    8.9690    5.1259 H         2 RES2    0.0000
     87 C53        1.5637    8.7270    6.2659 C.ar      2 RES2    0.0000
     88 H35        1.2281    9.5858    6.1516 H         2 RES2    0.0000
     89 C54        0.8757    7.8125    7.0508 C.ar      2 RES2    0.0000
     90 H36        0.0734    8.0580    7.4505 H         2 RES2    0.0000
     91 C55        1.3785    6.5458    7.2374 C.ar      2 RES2    0.0000
     92 H37        0.9142    5.9416    7.7700 H         2 RES2    0.0000
     93 C56        2.5775    6.1570    6.6350 C.ar      2 RES2    0.0000
     94 C57        3.1445    4.8063    6.8832 C.ar      2 RES2    0.0000
     95 C58        3.1017    4.2570    8.1580 C.ar      2 RES2    0.0000
     96 H38        2.6940    4.7267    8.8488 H         2 RES2    0.0000
     97 C59        3.6614    3.0206    8.4104 C.ar      2 RES2    0.0000
     98 H39        3.6300    2.6759    9.2749 H         2 RES2    0.0000
     99 C60        4.2735    2.2687    7.3944 C.ar      2 RES2    0.0000
    100 C61        4.3030    2.8156    6.0750 C.ar      2 RES2    0.0000
    101 C62        3.7380    4.0691    5.8735 C.ar      2 RES2    0.0000
    102 H40        3.7607    4.4310    5.0166 H         2 RES2    0.0000
    103 C63        4.8382    0.9552    7.6617 C.ar      2 RES2    0.0000
    104 C64        5.1208    0.4944    8.9556 C.ar      2 RES2    0.0000
    105 H41        4.9231    1.0395    9.6818 H         2 RES2    0.0000
    106 C65        5.6806   -0.7333    9.1804 C.ar      2 RES2    0.0000
    107 H42        5.8251   -1.0160   10.0548 H         2 RES2    0.0000
    108 C66        6.0381   -1.5792    8.1071 C.ar      2 RES2    0.0000
    109 C67        5.7550   -1.1226    6.8259 C.ar      2 RES2    0.0000
    110 H43        5.9889   -1.6585    6.1033 H         2 RES2    0.0000
    111 C68        5.1304    0.1128    6.5693 C.ar      2 RES2    0.0000
    112 C69        6.7195   -2.8784    8.3638 C.ar      2 RES2    0.0000
    113 C70        7.2885   -3.1767    9.6025 C.ar      2 RES2    0.0000
    114 H44        7.2420   -2.5490   10.2867 H         2 RES2    0.0000
    115 C71        7.9245   -4.3887    9.8380 C.ar      2 RES2    0.0000
    116 H45        8.3038   -4.5547   10.6696 H         2 RES2    0.0000
    117 C72        7.9969   -5.3472    8.8474 C.ar      2 RES2    0.0000
    118 H46        8.4129   -6.1642    9.0069 H         2 RES2    0.0000
    119 C73        7.4418   -5.0697    7.6256 C.ar      2 RES2    0.0000
    120 H47        7.5007   -5.6992    6.9434 H         2 RES2    0.0000
    121 C74        6.7945   -3.8636    7.3838 C.ar      2 RES2    0.0000
    122 H48        6.4038   -3.7117    6.5527 H         2 RES2    0.0000
    123 C75        4.8928    0.5833    5.2032 C.ar      2 RES2    0.0000
    124 C76        4.7854    1.9592    4.9720 C.ar      2 RES2    0.0000
    125 C77        6.4218    6.5823    3.0078 C.ar      2 RES2    0.0000
    126 H49        6.3382    6.2589    3.8764 H         2 RES2    0.0000
    127 C78        6.7288    7.9182    2.8212 C.ar      2 RES2    0.0000
    128 H50        6.8505    8.4778    3.5542 H         2 RES2    0.0000
    129 C79        6.8576    8.4144    1.5463 C.ar      2 RES2    0.0000
    130 H51        7.0384    9.3170    1.4098 H         2 RES2    0.0000
    131 C80        6.7143    7.5723    0.4815 C.ar      2 RES2    0.0000
    132 H52        6.8199    7.8989   -0.3822 H         2 RES2    0.0000
    133 C81        6.4112    6.2415    0.6788 C.ar      2 RES2    0.0000
    134 H53        6.3250    5.6829   -0.0597 H         2 RES2    0.0000
    135 C82        6.2296    5.7093    1.9472 C.ar      2 RES2    0.0000
    136 C83        5.8571    4.2792    2.1551 C.ar      2 RES2    0.0000
    137 C84        5.8466    3.3668    1.0776 C.ar      2 RES2    0.0000
    138 H54        6.0576    3.6628    0.2216 H         2 RES2    0.0000
    139 C85        5.5318    2.0548    1.2791 C.ar      2 RES2    0.0000
    140 H55        5.5629    1.4696    0.5569 H         2 RES2    0.0000
    141 C86        5.1607    1.5509    2.5475 C.ar      2 RES2    0.0000
    142 C87        5.1093    2.4590    3.6293 C.ar      2 RES2    0.0000
    143 C88        5.4811    3.7889    3.3981 C.ar      2 RES2    0.0000
    144 H56        5.4760    4.3772    4.1175 H         2 RES2    0.0000
    145 C89        4.8590    0.1503    2.7490 C.ar      2 RES2    0.0000
    146 C90        4.6107   -0.7587    1.7012 C.ar      2 RES2    0.0000
    147 H57        4.6975   -0.4659    0.8232 H         2 RES2    0.0000
    148 C91        4.2453   -2.0549    1.9324 C.ar      2 RES2    0.0000
    149 H58        4.1198   -2.6311    1.2136 H         2 RES2    0.0000
    150 C92        4.0520   -2.5298    3.2454 C.ar      2 RES2    0.0000
    151 C93        4.2813   -1.6495    4.2763 C.ar      2 RES2    0.0000
    152 H59        4.1331   -1.9401    5.1467 H         2 RES2    0.0000
    153 C94        4.7352   -0.3194    4.0726 C.ar      2 RES2    0.0000
    154 C95        3.5883   -3.9292    3.5275 C.ar      2 RES2    0.0000
    155 C96        3.0864   -4.7408    2.5178 C.ar      2 RES2    0.0000
    156 H60        3.0350   -4.4109    1.6505 H         2 RES2    0.0000
    157 C97        2.6580   -6.0458    2.7872 C.ar      2 RES2    0.0000
    158 H61        2.3353   -6.5785    2.0964 H         2 RES2    0.0000
    159 C98        2.7112   -6.5400    4.0705 C.ar      2 RES2    0.0000
    160 H62        2.4218   -7.4048    4.2538 H         2 RES2    0.0000
    161 C99        3.1957   -5.7422    5.0781 C.ar      2 RES2    0.0000
    162 H63        3.2292   -6.0704    5.9485 H         2 RES2    0.0000
    163 C100       3.6343   -4.4575    4.8129 C.ar      2 RES2    0.0000
    164 H64        3.9670   -3.9379    5.5083 H         2 RES2    0.0000
    165 C101       7.6435    7.0911    6.3699 C.ar      3 RES3    0.0000
    166 H65        8.3297    6.7307    5.8568 H         3 RES3    0.0000
    167 C102       7.3828    8.4506    6.2956 C.ar      3 RES3    0.0000
    168 H66        7.8898    8.9900    5.7316 H         3 RES3    0.0000
    169 C103       6.3685    9.0045    7.0593 C.ar      3 RES3    0.0000
    170 H67        6.1754    9.9129    6.9970 H         3 RES3    0.0000
    171 C104       5.6519    8.2081    7.9056 C.ar      3 RES3    0.0000
    172 H68        4.9874    8.5863    8.4361 H         3 RES3    0.0000
    173 C105       5.8957    6.8392    7.9926 C.ar      3 RES3    0.0000
    174 H69        5.3961    6.3135    8.5752 H         3 RES3    0.0000
    175 C106       6.9001    6.2535    7.1993 C.ar      3 RES3    0.0000
    176 C107       7.2321    4.8160    7.3032 C.ar      3 RES3    0.0000
    177 C108       7.1847    4.1286    8.5292 C.ar      3 RES3    0.0000
    178 H70        6.8541    4.5565    9.2859 H         3 RES3    0.0000
    179 C109       7.6228    2.8276    8.6226 C.ar      3 RES3    0.0000
    180 H71        7.5666    2.3872    9.4388 H         3 RES3    0.0000
    181 C110       8.1560    2.1459    7.5132 C.ar      3 RES3    0.0000
    182 C111       8.1917    2.8074    6.2638 C.ar      3 RES3    0.0000
    183 C112       7.7090    4.1262    6.1896 C.ar      3 RES3    0.0000
    184 H72        7.7089    4.5555    5.3655 H         3 RES3    0.0000
    185 C113       8.6972    0.8020    7.6086 C.ar      3 RES3    0.0000
    186 C114       9.0011    0.2069    8.8432 C.ar      3 RES3    0.0000
    187 H73        8.7789    0.6557    9.6269 H         3 RES3    0.0000
    188 C115       9.6160   -1.0164    8.9280 C.ar      3 RES3    0.0000
    189 H74        9.7903   -1.3792    9.7656 H         3 RES3    0.0000
    190 C116       9.9856   -1.7341    7.7741 C.ar      3 RES3    0.0000
    191 C117       9.6650   -1.1597    6.5459 C.ar      3 RES3    0.0000
    192 H75        9.9075   -1.6099    5.7680 H         3 RES3    0.0000
    193 C118       8.9864    0.0818    6.4293 C.ar      3 RES3    0.0000
    194 C119      10.6611   -3.0542    7.8844 C.ar      3 RES3    0.0000
    195 C120      11.2058   -3.4877    9.0977 C.ar      3 RES3    0.0000
    196 H76       11.1964   -2.9107    9.8279 H         3 RES3    0.0000
    197 C121      11.7524   -4.7338    9.2483 C.ar      3 RES3    0.0000
    198 H77       12.1068   -4.9858   10.0695 H         3 RES3    0.0000
    199 C122      11.7811   -5.6105    8.1983 C.ar      3 RES3    0.0000
    200 H78       12.1410   -6.4606    8.3046 H         3 RES3    0.0000
    201 C123      11.2624   -5.2102    6.9638 C.ar      3 RES3    0.0000
    202 H79       11.2791   -5.7953    6.2418 H         3 RES3    0.0000
    203 C124      10.7224   -3.9381    6.8153 C.ar      3 RES3    0.0000
    204 H80       10.3955   -3.6757    5.9863 H         3 RES3    0.0000
    205 C125      10.9439    6.5963    3.8478 C.ar      3 RES3    0.0000
    206 H81       11.1094    6.0100    4.5507 H         3 RES3    0.0000
    207 C126      11.3433    7.9201    3.9581 C.ar      3 RES3    0.0000
    208 H82       11.7580    8.2184    4.7350 H         3 RES3    0.0000
    209 C127      11.1250    8.7979    2.9102 C.ar      3 RES3    0.0000
    210 H83       11.3798    9.6892    2.9845 H         3 RES3    0.0000
    211 C128      10.5272    8.3402    1.7478 C.ar      3 RES3    0.0000
    212 H84       10.4006    8.9212    1.0338 H         3 RES3    0.0000
    213 C129      10.1161    7.0255    1.6460 C.ar      3 RES3    0.0000
    214 H85        9.7124    6.7315    0.8608 H         3 RES3    0.0000
    215 C130      10.2997    6.1298    2.7045 C.ar      3 RES3    0.0000
    216 C131       9.7967    4.7329    2.6451 C.ar      3 RES3    0.0000
    217 C132       9.5755    4.0605    1.4275 C.ar      3 RES3    0.0000
    218 H86        9.7127    4.5058    0.6238 H         3 RES3    0.0000
    219 C133       9.1569    2.7524    1.4148 C.ar      3 RES3    0.0000
    220 H87        9.0534    2.3193    0.5981 H         3 RES3    0.0000
    221 C134       8.8787    2.0437    2.6027 C.ar      3 RES3    0.0000
    222 C135       8.9609    2.7517    3.8096 C.ar      3 RES3    0.0000
    223 C136       9.4636    4.0590    3.8075 C.ar      3 RES3    0.0000
    224 H88        9.5795    4.4921    4.6217 H         3 RES3    0.0000
    225 C137       8.6356    2.0800    5.0760 C.ar      3 RES3    0.0000
    226 C138       8.7264    0.6886    5.1311 C.ar      3 RES3    0.0000
    227 C139       8.5477   -0.0577    3.8817 C.ar      3 RES3    0.0000
    228 C140       8.5346    0.6202    2.6303 C.ar      3 RES3    0.0000
    229 C141       8.2106   -0.0791    1.4721 C.ar      3 RES3    0.0000
    230 H89        8.2079    0.3666    0.6554 H         3 RES3    0.0000
    231 C142       7.8950   -1.4164    1.5124 C.ar      3 RES3    0.0000
    232 H90        7.7015   -1.8636    0.7205 H         3 RES3    0.0000
    233 C143       7.8568   -2.1296    2.7342 C.ar      3 RES3    0.0000
    234 C144       8.1822   -1.4309    3.8860 C.ar      3 RES3    0.0000
    235 H91        8.1588   -1.8816    4.6997 H         3 RES3    0.0000
    236 C145       7.4636   -3.5698    2.7660 C.ar      3 RES3    0.0000
    237 C146       6.8234   -4.1642    1.6927 C.ar      3 RES3    0.0000
    238 H92        6.6456   -3.6611    0.9322 H         3 RES3    0.0000
    239 C147       6.4388   -5.4994    1.7309 C.ar      3 RES3    0.0000
    240 H93        6.0093   -5.8755    0.9974 H         3 RES3    0.0000
    241 C148       6.6902   -6.2702    2.8424 C.ar      3 RES3    0.0000
    242 H94        6.4187   -7.1583    2.8726 H         3 RES3    0.0000
    243 C149       7.3546   -5.6935    3.9157 C.ar      3 RES3    0.0000
    244 H95        7.5410   -6.2049    4.6710 H         3 RES3    0.0000
    245 C150       7.7410   -4.3664    3.8733 C.ar      3 RES3    0.0000
    246 H96        8.1944   -3.9988    4.5971 H         3 RES3    0.0000
    247 C151      19.0938    4.0754   -1.4403 C.ar      4 RES4    0.0000
    248 H97       18.2623    3.6971   -1.6101 H         4 RES4    0.0000
    249 C152      19.5077    5.1818   -2.1806 C.ar      4 RES4    0.0000
    250 H98       18.9481    5.5370   -2.8321 H         4 RES4    0.0000
    251 C153      20.7400    5.7499   -1.9472 C.ar      4 RES4    0.0000
    252 H99       21.0224    6.4776   -2.4535 H         4 RES4    0.0000
    253 C154      21.5717    5.2242   -0.9460 C.ar      4 RES4    0.0000
    254 H100      22.4011    5.6095   -0.7773 H         4 RES4    0.0000
    255 C155      21.1455    4.1271   -0.2079 C.ar      4 RES4    0.0000
    256 H101      21.6978    3.7868    0.4588 H         4 RES4    0.0000
    257 C156      19.9150    3.5243   -0.4454 C.ar      4 RES4    0.0000
    258 C157      19.4729    2.3589    0.3754 C.ar      4 RES4    0.0000
    259 C158      20.4106    1.4705    0.9121 C.ar      4 RES4    0.0000
    260 H102      21.3147    1.5845    0.7213 H         4 RES4    0.0000
    261 C159      20.0130    0.4378    1.7139 C.ar      4 RES4    0.0000
    262 H103      20.6516   -0.1611    2.0287 H         4 RES4    0.0000
    263 C160      18.6729    0.2534    2.0724 C.ar      4 RES4    0.0000
    264 C161      17.7066    1.1577    1.5739 C.ar      4 RES4    0.0000
    265 C162      18.1410    2.1574    0.6724 C.ar      4 RES4    0.0000
    266 H104      17.5037    2.6982    0.2655 H         4 RES4    0.0000
    267 C163      18.2618   -0.8108    2.9781 C.ar      4 RES4    0.0000
    268 C164      19.1901   -1.5455    3.7290 C.ar      4 RES4    0.0000
    269 H105      20.0951   -1.3540    3.6362 H         4 RES4    0.0000
    270 C165      18.8074   -2.5363    4.5923 C.ar      4 RES4    0.0000
    271 H106      19.4501   -3.0078    5.0697 H         4 RES4    0.0000
    272 C166      17.4470   -2.8412    4.7578 C.ar      4 RES4    0.0000
    273 C167      16.5261   -2.0929    4.0578 C.ar      4 RES4    0.0000
    274 H107      15.6224   -2.2488    4.2126 H         4 RES4    0.0000
    275 C168      16.8818   -1.1008    3.1202 C.ar      4 RES4    0.0000
    276 C169      17.0249   -3.9402    5.6508 C.ar      4 RES4    0.0000
    277 C170      17.7991   -5.0910    5.7844 C.ar      4 RES4    0.0000
    278 H108      18.6104   -5.1468    5.3351 H         4 RES4    0.0000
    279 C171      17.3822   -6.1568    6.5735 C.ar      4 RES4    0.0000
    280 H109      17.9036   -6.9254    6.6243 H         4 RES4    0.0000
    281 C172      16.2040   -6.0772    7.2777 C.ar      4 RES4    0.0000
    282 H110      15.9345   -6.7865    7.8153 H         4 RES4    0.0000
    283 C173      15.4248   -4.9440    7.1823 C.ar      4 RES4    0.0000
    284 H111      14.6280   -4.8912    7.6605 H         4 RES4    0.0000
    285 C174      15.8224   -3.8708    6.3720 C.ar      4 RES4    0.0000
    286 H112      15.2877   -3.1122    6.3129 H         4 RES4    0.0000
    287 C175      16.2918    0.9590    1.9133 C.ar      4 RES4    0.0000
    288 C176      15.8909   -0.2753    2.4245 C.ar      4 RES4    0.0000
    289 C177      16.3906    6.1592    0.9248 C.ar      4 RES4    0.0000
    290 H113      16.9516    5.4850    0.6140 H         4 RES4    0.0000
    291 C178      16.7830    7.4780    0.8018 C.ar      4 RES4    0.0000
    292 H114      17.5960    7.6848    0.4020 H         4 RES4    0.0000
    293 C179      15.9643    8.4940    1.2769 C.ar      4 RES4    0.0000
    294 H115      16.2218    9.3832    1.1892 H         4 RES4    0.0000
    295 C180      14.7611    8.1651    1.8815 C.ar      4 RES4    0.0000
    296 H116      14.2112    8.8412    2.2079 H         4 RES4    0.0000
    297 C181      14.3718    6.8524    2.0003 C.ar      4 RES4    0.0000
    298 H117      13.5631    6.6548    2.4176 H         4 RES4    0.0000
    299 C182      15.1547    5.8114    1.5166 C.ar      4 RES4    0.0000
    300 C183      14.7322    4.4083    1.6163 C.ar      4 RES4    0.0000
    301 C184      13.3702    4.0651    1.6142 C.ar      4 RES4    0.0000
    302 H118      12.7281    4.7285    1.5027 H         4 RES4    0.0000
    303 C185      12.9757    2.7658    1.7754 C.ar      4 RES4    0.0000
    304 H119      12.0683    2.5742    1.8289 H         4 RES4    0.0000
    305 C186      13.9066    1.7033    1.8624 C.ar      4 RES4    0.0000
    306 C187      15.2868    2.0150    1.7754 C.ar      4 RES4    0.0000
    307 C188      15.6478    3.3741    1.7224 C.ar      4 RES4    0.0000
    308 H120      16.5517    3.5911    1.7623 H         4 RES4    0.0000
    309 C189      13.4891    0.3368    2.0809 C.ar      4 RES4    0.0000
    310 C190      12.1286   -0.0660    2.0851 C.ar      4 RES4    0.0000
    311 H121      11.4723    0.5711    1.9219 H         4 RES4    0.0000
    312 C191      11.7534   -1.3413    2.3184 C.ar      4 RES4    0.0000
    313 H122      10.8487   -1.5501    2.3731 H         4 RES4    0.0000
    314 C192      12.7192   -2.3662    2.4796 C.ar      4 RES4    0.0000
    315 C193      14.0539   -1.9963    2.4330 C.ar      4 RES4    0.0000
    316 H123      14.7004   -2.6641    2.4570 H         4 RES4    0.0000
    317 C194      14.4785   -0.6552    2.3524 C.ar      4 RES4    0.0000
    318 C195      12.3142   -3.7834    2.6854 C.ar      4 RES4    0.0000
    319 C196      11.0756   -4.2657    2.2548 C.ar      4 RES4    0.0000
    320 H124      10.4798   -3.6875    1.8375 H         4 RES4    0.0000
    321 C197      10.7254   -5.5831    2.4372 C.ar      4 RES4    0.0000
    322 H125       9.8927   -5.8775    2.1432 H         4 RES4    0.0000
    323 C198      11.5766   -6.4758    3.0460 C.ar      4 RES4    0.0000
    324 H126      11.3306   -7.3665    3.1560 H         4 RES4    0.0000
    325 C199      12.8210   -6.0155    3.4999 C.ar      4 RES4    0.0000
    326 H127      13.4110   -6.6034    3.9118 H         4 RES4    0.0000
    327 C200      13.1727   -4.6832    3.3324 C.ar      4 RES4    0.0000
    328 H128      13.9913   -4.3823    3.6564 H         4 RES4    0.0000
@<TRIPOS>BOND
     1    1    2 1
     2    3    1 ar
     3    4    3 1
     4    5    3 ar
     5    6    5 1
     6    7    5 ar
     7    8    7 1
     8    9    7 ar
     9   10    9 1
    10   11    1 ar
    11   12   11 1
    12   13   12 ar
    13   14   13 1
    14   15   13 ar
    15   16   15 1
    16   17   15 ar
    17   18   17 ar
    18   19   12 ar
    19   20   19 1
    20   21   17 ar
    21   22   21 ar
    22   23   22 1
    23   24   22 ar
    24   25   24 1
    25   26   24 ar
    26   27   26 1
    27   28   27 ar
    28   29   28 1
    29   30   28 ar
    30   31   30 1
    31   32   30 ar
    32   33   32 1
    33   34   32 ar
    34   35   34 1
    35   36   27 ar
    36   37   36 1
    37   38   26 ar
    38   39   38 1
    39   40   21 ar
    40   41   40 ar
    41   42   18 ar
    42   43   42 ar
    43   44   43 ar
    44   45   44 1
    45   46   44 ar
    46   47   46 1
    47   48   47 ar
    48   49   48 1
    49   50   48 ar
    50   51   50 1
    51   52   50 ar
    52   53   52 1
    53   54   52 ar
    54   55   54 1
    55   56   47 ar
    56   57   56 1
    57   58   46 ar
    58   59   58 1
    59   60   58 ar
    60   61   60 1
    61   62   43 ar
    62   63   62 ar
    63   64   63 ar
    64   65   64 1
    65   66   64 ar
    66   67   66 1
    67   68   66 ar
    68   69   68 ar
    69   70   69 1
    70   71   41 ar
    71   72   68 1
    72   73   72 ar
    73   74   73 1
    74   75   73 ar
    75   76   75 1
    76   77   75 ar
    77   78   77 1
    78   79   77 ar
    79   80   79 1
    80   81   72 ar
    81   82   81 1
    82   83   84 1
    83   85   83 ar
    84   86   85 1
    85   87   85 ar
    86   88   87 1
    87   89   87 ar
    88   90   89 1
    89   91   89 ar
    90   92   91 1
    91   93   83 ar
    92   94   93 1
    93   95   94 ar
    94   96   95 1
    95   97   95 ar
    96   98   97 1
    97   99   97 ar
    98  100   99 ar
    99  101   94 ar
   100  102  101 1
   101  103   99 ar
   102  104  103 ar
   103  105  104 1
   104  106  104 ar
   105  107  106 1
   106  108  106 ar
   107  109  108 ar
   108  110  109 1
   109  111  103 ar
   110  112  108 1
   111  113  112 ar
   112  114  113 1
   113  115  113 ar
   114  116  115 1
   115  117  115 ar
   116  118  117 1
   117  119  117 ar
   118  120  119 1
   119  121  112 ar
   120  122  121 1
   121  123  111 ar
   122  124  100 ar
   123  125  126 1
   124  127  125 ar
   125  128  127 1
   126  129  127 ar
   127  130  129 1
   128  131  129 ar
   129  132  131 1
   130  133  131 ar
   131  134  133 1
   132  135  125 ar
   133  136  135 1
   134  137  136 ar
   135  138  137 1
   136  139  137 ar
   137  140  139 1
   138  141  139 ar
   139  142  124 ar
   140  143  136 ar
   141  144  143 1
   142  145  141 ar
   143  146  145 ar
   144  147  146 1
   145  148  146 ar
   146  149  148 1
   147  150  148 ar
   148  151  150 ar
   149  152  151 1
   150  153  123 ar
   151  154  150 1
   152  155  154 ar
   153  156  155 1
   154  157  155 ar
   155  158  157 1
   156  159  157 ar
   157  160  159 1
   158  161  159 ar
   159  162  161 1
   160  163  154 ar
   161  164  163 1
   162  165  166 1
   163  167  165 ar
   164  168  167 1
   165  169  167 ar
   166  170  169 1
   167  171  169 ar
   168  172  171 1
   169  173  171 ar
   170  174  173 1
   171  175  165 ar
   172  176  175 1
   173  177  176 ar
   174  178  177 1
   175  179  177 ar
   176  180  179 1
   177  181  179 ar
   178  182  181 ar
   179  183  176 ar
   180  184  183 1
   181  185  181 ar
   182  186  185 ar
   183  187  186 1
   184  188  186 ar
   185  189  188 1
   186  190  188 ar
   187  191  190 ar
   188  192  191 1
   189  193  185 ar
   190  194  190 1
   191  195  194 ar
   192  196  195 1
   193  197  195 ar
   194  198  197 1
   195  199  197 ar
   196  200  199 1
   197  201  199 ar
   198  202  201 1
   199  203  194 ar
   200  204  203 1
   201  205  206 1
   202  207  205 ar
   203  208  207 1
   204  209  207 ar
   205  210  209 1
   206  211  209 ar
   207  212  211 1
   208  213  211 ar
   209  214  213 1
   210  215  205 ar
   211  216  215 1
   212  217  216 ar
   213  218  217 1
   214  219  217 ar
   215  220  219 1
   216  221  219 ar
   217  222  221 ar
   218  223  216 ar
   219  224  223 1
   220  225  182 ar
   221  226  193 ar
   222  227  226 ar
   223  228  221 ar
   224  229  228 ar
   225  230  229 1
   226  231  229 ar
   227  232  231 1
   228  233  231 ar
   229  234  227 ar
   230  235  234 1
   231  236  233 1
   232  237  236 ar
   233  238  237 1
   234  239  237 ar
   235  240  239 1
   236  241  239 ar
   237  242  241 1
   238  243  241 ar
   239  244  243 1
   240  245  236 ar
   241  246  245 1
   242  247  248 1
   243  249  247 ar
   244  250  249 1
   245  251  249 ar
   246  252  251 1
   247  253  251 ar
   248  254  253 1
   249  255  253 ar
   250  256  255 1
   251  257  247 ar
   252  258  257 1
   253  259  258 ar
   254  260  259 1
   255  261  259 ar
   256  262  261 1
   257  263  261 ar
   258  264  263 ar
   259  265  258 ar
   260  266  265 1
   261  267  263 ar
   262  268  267 ar
   263  269  268 1
   264  270  268 ar
   265  271  270 1
   266  272  270 ar
   267  273  272 ar
   268  274  273 1
   269  275  267 ar
   270  276  272 1
   271  277  276 ar
   272  278  277 1
   273  279  277 ar
   274  280  279 1
   275  281  279 ar
   276  282  281 1
   277  283  281 ar
   278  284  283 1
   279  285  276 ar
   280  286  285 1
   281  287  264 ar
   282  288  275 ar
   283  289  290 1
   284  291  289 ar
   285  292  291 1
   286  293  291 ar
   287  294  293 1
   288  295  293 ar
   289  296  295 1
   290  297  295 ar
   291  298  297 1
   292  299  289 ar
   293  300  299 1
   294  301  300 ar
   295  302  301 1
   296  303  301 ar
   297  304  303 1
   298  305  303 ar
   299  306  287 ar
   300  307  300 ar
   301  308  307 1
   302  309  305 ar
   303  310  309 ar
   304  311  310 1
   305  312  310 ar
   306  313  312 1
   307  314  312 ar
   308  315  314 ar
   309  316  315 1
   310  317  288 ar
   311  318  314 1
   312  319  318 ar
   313  320  319 1
   314  321  319 ar
   315  322  321 1
   316  323  321 ar
   317  324  323 1
   318  325  323 ar
   319  326  325 1
   320  327  318 ar
   321  328  327 1
   322    9   11 ar
   323   18   19 ar
   324   34   36 ar
   325   38   40 ar
   326   41   42 ar
   327   54   56 ar
   328   60   62 ar
   329   63   71 ar
   330   69   71 ar
   331   79   81 ar
   332   91   93 ar
   333  100  101 ar
   334  109  111 ar
   335  119  121 ar
   336  123  124 ar
   337  133  135 ar
   338  141  142 ar
   339  142  143 ar
   340  145  153 ar
   341  151  153 ar
   342  161  163 ar
   343  173  175 ar
   344  182  183 ar
   345  191  193 ar
   346  201  203 ar
   347  213  215 ar
   348  222  223 ar
   349  222  225 ar
   350  225  226 ar
   351  227  228 ar
   352  233  234 ar
   353  243  245 ar
   354  255  257 ar
   355  264  265 ar
   356  273  275 ar
   357  283  285 ar
   358  287  288 ar
   359  297  299 ar
   360  305  306 ar
   361  306  307 ar
   362  309  317 ar
   363  315  317 ar
   364  325  327 ar
@<TRIPOS>SUBSTRUCTURE
     1 RES1 1
     2 RES2 83
     3 RES3 165
     4 RES4 247

@<TRIPOS>CRYSIN
  18.6870   19.2240   23.1450  90.7900 111.2830 112.9030   2 1

