# MOL2 file generated by ConQuest
# Please check atom types

@<TRIPOS>MOLECULE
PAWVOB
    80    84     1
SMALL
NO_CHARGES
****
Generated from CSD

@<TRIPOS>ATOM
      1 C1         8.0320    5.4328    9.2990 C.3       1 RES1    0.0000
      2 H1         8.2744    4.8351    8.5607 H         1 RES1    0.0000
      3 H2         7.6865    4.9040   10.0478 H         1 RES1    0.0000
      4 H3         8.8248    5.9313    9.5899 H         1 RES1    0.0000
      5 C2         6.9608    6.4106    8.8304 C.3       1 RES1    0.0000
      6 H4         6.2035    5.9037    8.4420 H         1 RES1    0.0000
      7 H5         6.6197    6.9194    9.6088 H         1 RES1    0.0000
      8 C3         7.4983    7.3846    7.7909 C.3       1 RES1    0.0000
      9 H6         7.9493    6.8688    7.0763 H         1 RES1    0.0000
     10 H7         8.1791    7.9613    8.2189 H         1 RES1    0.0000
     11 C4         6.4275    8.2800    7.1495 C.3       1 RES1    0.0000
     12 H8         5.8538    8.6598    7.8617 H         1 RES1    0.0000
     13 H9         6.8707    9.0329    6.6832 H         1 RES1    0.0000
     14 C5         5.5619    7.5300    6.1647 C.ar      1 RES1    0.0000
     15 C6         4.3324    7.0458    6.5627 C.ar      1 RES1    0.0000
     16 H10        4.0348    7.2348    7.4452 H         1 RES1    0.0000
     17 C7         3.4999    6.2854    5.7205 C.ar      1 RES1    0.0000
     18 C8         2.2224    5.8066    6.1811 C.ar      1 RES1    0.0000
     19 H11        1.9079    5.9875    7.0593 H         1 RES1    0.0000
     20 C9         1.4927    5.0848    5.2982 C.ar      1 RES1    0.0000
     21 C10        1.9640    4.7787    3.9690 C.ar      1 RES1    0.0000
     22 C11        3.1642    5.1991    3.5033 C.ar      1 RES1    0.0000
     23 H12        3.4650    4.9805    2.6287 H         1 RES1    0.0000
     24 C12        3.9603    5.9938    4.4020 C.ar      1 RES1    0.0000
     25 C13        5.2160    6.5145    4.0034 C.ar      1 RES1    0.0000
     26 H13        5.5227    6.3361    3.1217 H         1 RES1    0.0000
     27 C14        6.0136    7.2697    4.8387 C.ar      1 RES1    0.0000
     28 C15        7.3426    7.8371    4.3713 C.3       1 RES1    0.0000
     29 H14        8.0442    7.5475    5.0063 H         1 RES1    0.0000
     30 H15        7.2918    8.8245    4.4171 H         1 RES1    0.0000
     31 C16        7.7795    7.4474    2.9685 C.3       1 RES1    0.0000
     32 H16        7.1208    7.7951    2.3165 H         1 RES1    0.0000
     33 H17        7.7864    6.4600    2.8941 H         1 RES1    0.0000
     34 C17        9.1650    7.9848    2.6145 C.3       1 RES1    0.0000
     35 H18        9.1359    8.9740    2.5900 H         1 RES1    0.0000
     36 H19        9.8094    7.7152    3.3160 H         1 RES1    0.0000
     37 C18        9.6415    7.4612    1.2639 C.3       1 RES1    0.0000
     38 H20        9.0411    7.7823    0.5587 H         1 RES1    0.0000
     39 H21        9.6389    6.4815    1.2739 H         1 RES1    0.0000
     40 H22       10.5507    7.7836    1.0903 H         1 RES1    0.0000
     41 C1A       -5.8410    3.6670   -0.3029 C.3       1 RES1    0.0000
     42 H1A       -6.0834    4.2648    0.4354 H         1 RES1    0.0000
     43 H2A       -5.4955    4.1959   -1.0516 H         1 RES1    0.0000
     44 H3A       -6.6338    3.1686   -0.5937 H         1 RES1    0.0000
     45 C2A       -4.7698    2.6893    0.1657 C.3       1 RES1    0.0000
     46 H4A       -4.0126    3.1962    0.5542 H         1 RES1    0.0000
     47 H5A       -4.4288    2.1805   -0.6126 H         1 RES1    0.0000
     48 C3A       -5.3074    1.7153    1.2052 C.3       1 RES1    0.0000
     49 H6A       -5.7583    2.2311    1.9198 H         1 RES1    0.0000
     50 H7A       -5.9882    1.1386    0.7773 H         1 RES1    0.0000
     51 C4A       -4.2365    0.8199    1.8466 C.3       1 RES1    0.0000
     52 H8A       -3.6629    0.4401    1.1344 H         1 RES1    0.0000
     53 H9A       -4.6797    0.0670    2.3129 H         1 RES1    0.0000
     54 C5A       -3.3709    1.5699    2.8314 C.ar      1 RES1    0.0000
     55 C6A       -2.1414    2.0541    2.4335 C.ar      1 RES1    0.0000
     56 H10A      -1.8438    1.8651    1.5509 H         1 RES1    0.0000
     57 C7A       -1.3090    2.8144    3.2757 C.ar      1 RES1    0.0000
     58 C8A       -0.0315    3.2933    2.8150 C.ar      1 RES1    0.0000
     59 H11A       0.2830    3.1124    1.9369 H         1 RES1    0.0000
     60 C9A        0.6982    4.0151    3.6979 C.ar      1 RES1    0.0000
     61 C10A       0.2270    4.3212    5.0271 C.ar      1 RES1    0.0000
     62 C11A      -0.9733    3.9008    5.4929 C.ar      1 RES1    0.0000
     63 H12A      -1.2741    4.1194    6.3675 H         1 RES1    0.0000
     64 C12A      -1.7693    3.1061    4.5941 C.ar      1 RES1    0.0000
     65 C13A      -3.0251    2.5854    4.9928 C.ar      1 RES1    0.0000
     66 H13A      -3.3318    2.7638    5.8745 H         1 RES1    0.0000
     67 C14A      -3.8226    1.8302    4.1575 C.ar      1 RES1    0.0000
     68 C15A      -5.1517    1.2628    4.6248 C.3       1 RES1    0.0000
     69 H14A      -5.8532    1.5523    3.9898 H         1 RES1    0.0000
     70 H15A      -5.1009    0.2753    4.5790 H         1 RES1    0.0000
     71 C16A      -5.5886    1.6525    6.0277 C.3       1 RES1    0.0000
     72 H16A      -4.9298    1.3048    6.6796 H         1 RES1    0.0000
     73 H17A      -5.5955    2.6399    6.1021 H         1 RES1    0.0000
     74 C17A      -6.9740    1.1151    6.3816 C.3       1 RES1    0.0000
     75 H18A      -6.9450    0.1259    6.4061 H         1 RES1    0.0000
     76 H19A      -7.6184    1.3847    5.6802 H         1 RES1    0.0000
     77 C18A      -7.4505    1.6387    7.7323 C.3       1 RES1    0.0000
     78 H20A      -6.8501    1.3176    8.4375 H         1 RES1    0.0000
     79 H21A      -7.4479    2.6184    7.7223 H         1 RES1    0.0000
     80 H22A      -8.3597    1.3163    7.9058 H         1 RES1    0.0000
@<TRIPOS>BOND
     1    1    2 1
     2    3    1 1
     3    4    1 1
     4    5    1 1
     5    6    5 1
     6    7    5 1
     7    8    5 1
     8    9    8 1
     9   10    8 1
    10   11    8 1
    11   12   11 1
    12   13   11 1
    13   14   11 1
    14   15   14 ar
    15   16   15 1
    16   17   15 ar
    17   18   17 ar
    18   19   18 1
    19   20   18 ar
    20   21   20 ar
    21   22   21 ar
    22   23   22 1
    23   24   17 ar
    24   25   24 ar
    25   26   25 1
    26   27   14 ar
    27   28   27 1
    28   29   28 1
    29   30   28 1
    30   31   28 1
    31   32   31 1
    32   33   31 1
    33   34   31 1
    34   35   34 1
    35   36   34 1
    36   37   34 1
    37   38   37 1
    38   39   37 1
    39   40   37 1
    40   41   42 1
    41   43   41 1
    42   44   41 1
    43   45   41 1
    44   46   45 1
    45   47   45 1
    46   48   45 1
    47   49   48 1
    48   50   48 1
    49   51   48 1
    50   52   51 1
    51   53   51 1
    52   54   51 1
    53   55   54 ar
    54   56   55 1
    55   57   55 ar
    56   58   57 ar
    57   59   58 1
    58   60   21 1
    59   61   20 1
    60   62   61 ar
    61   63   62 1
    62   64   57 ar
    63   65   64 ar
    64   66   65 1
    65   67   54 ar
    66   68   67 1
    67   69   68 1
    68   70   68 1
    69   71   68 1
    70   72   71 1
    71   73   71 1
    72   74   71 1
    73   75   74 1
    74   76   74 1
    75   77   74 1
    76   78   77 1
    77   79   77 1
    78   80   77 1
    79   22   24 ar
    80   25   27 ar
    81   58   60 ar
    82   60   61 ar
    83   62   64 ar
    84   65   67 ar
@<TRIPOS>SUBSTRUCTURE
     1 RES1 1

@<TRIPOS>CRYSIN
   8.2828    8.9132    9.1524  88.1290  79.4740  86.6620   2 1

