# MOL2 file generated by ConQuest
# Please check atom types

@<TRIPOS>MOLECULE
PAZLUZ
    36    37     1
SMALL
NO_CHARGES
****
Generated from CSD

@<TRIPOS>ATOM
      1 C1         4.6316    4.3762    4.1104 C.ar      1 RES1    0.0000
      2 C2         5.6388    3.4633    4.3222 C.ar      1 RES1    0.0000
      3 H1         6.4200    3.5025    3.7830 H         1 RES1    0.0000
      4 C3         5.5420    2.4711    5.3190 C.ar      1 RES1    0.0000
      5 H2         6.2567    1.8576    5.4433 H         1 RES1    0.0000
      6 C4         2.3529    5.1841    4.7494 C.ar      1 RES1    0.0000
      7 H3         2.3983    5.8527    4.0762 H         1 RES1    0.0000
      8 C5         3.4441    4.2870    4.9237 C.ar      1 RES1    0.0000
      9 C6         4.7821    5.4919    3.0850 C.3       1 RES1    0.0000
     10 H4         3.9064    5.5916    2.6125 H         1 RES1    0.0000
     11 C7         5.8524    5.2094    2.0287 C.3       1 RES1    0.0000
     12 H5         5.8975    5.9601    1.3996 H         1 RES1    0.0000
     13 H6         5.6236    4.3893    1.5430 H         1 RES1    0.0000
     14 H7         6.7218    5.0976    2.4670 H         1 RES1    0.0000
     15 C8         5.0956    6.8260    3.7777 C.3       1 RES1    0.0000
     16 H8         5.1882    7.5309    3.1033 H         1 RES1    0.0000
     17 H9         5.9323    6.7440    4.2814 H         1 RES1    0.0000
     18 H10        4.3663    7.0550    4.3911 H         1 RES1    0.0000
     19 C1B        2.1512    3.1903    6.7479 C.ar      1 RES1    0.0000
     20 C2B        1.1439    4.1032    6.5362 C.ar      1 RES1    0.0000
     21 H1B        0.3627    4.0640    7.0753 H         1 RES1    0.0000
     22 C3B        1.2408    5.0954    5.5394 C.ar      1 RES1    0.0000
     23 H2B        0.5261    5.7089    5.4151 H         1 RES1    0.0000
     24 C4B        4.4299    2.3824    6.1089 C.ar      1 RES1    0.0000
     25 H3B        4.3844    1.7138    6.7821 H         1 RES1    0.0000
     26 C5B        3.3387    3.2795    5.9346 C.ar      1 RES1    0.0000
     27 C6B        2.0007    2.0746    7.7734 C.3       1 RES1    0.0000
     28 H4B        2.8763    1.9749    8.2458 H         1 RES1    0.0000
     29 C7B        0.9303    2.3571    8.8297 C.3       1 RES1    0.0000
     30 H5B        0.8852    1.6064    9.4587 H         1 RES1    0.0000
     31 H6B        1.1592    3.1772    9.3154 H         1 RES1    0.0000
     32 H7B        0.0609    2.4689    8.3913 H         1 RES1    0.0000
     33 C8B        1.6872    0.7405    7.0806 C.3       1 RES1    0.0000
     34 H8B        1.5945    0.0356    7.7550 H         1 RES1    0.0000
     35 H9B        0.8504    0.8225    6.5769 H         1 RES1    0.0000
     36 H10B       2.4164    0.5115    6.4672 H         1 RES1    0.0000
@<TRIPOS>BOND
     1    1    2 ar
     2    2    3 1
     3    4    2 ar
     4    5    4 1
     5    6    7 1
     6    8    1 ar
     7    9    1 1
     8   10    9 1
     9   11    9 1
    10   12   11 1
    11   13   11 1
    12   14   11 1
    13   15    9 1
    14   16   15 1
    15   17   15 1
    16   18   15 1
    17   19   20 ar
    18   20   21 1
    19   22    6 ar
    20   23   22 1
    21   24    4 ar
    22   25   24 1
    23   26    8 ar
    24   27   19 1
    25   28   27 1
    26   29   27 1
    27   30   29 1
    28   31   29 1
    29   32   29 1
    30   33   27 1
    31   34   33 1
    32   35   33 1
    33   36   33 1
    34    6    8 ar
    35   19   26 ar
    36   20   22 ar
    37   24   26 ar
@<TRIPOS>SUBSTRUCTURE
     1 RES1 1

@<TRIPOS>CRYSIN
   7.4330    7.5665   10.8778  90.0000  93.4270  90.0000  14 1

