# MOL2 file generated by ConQuest
# Please check atom types

@<TRIPOS>MOLECULE
PEKFIU
    26    30     1
SMALL
NO_CHARGES
****
Generated from CSD

@<TRIPOS>ATOM
      1 C1        -0.7984    4.1557    9.8063 C.ar      1 RES1    0.0000
      2 C2        -0.7021    5.4090    9.1994 C.ar      1 RES1    0.0000
      3 C3        -1.8074    6.2358    9.1322 C.ar      1 RES1    0.0000
      4 C4        -3.0334    5.8378    9.6570 C.ar      1 RES1    0.0000
      5 C5        -3.1400    4.5822   10.2680 C.ar      1 RES1    0.0000
      6 C6        -4.2736    3.9078   10.9258 C.ar      1 RES1    0.0000
      7 C7        -5.5750    4.3286   11.1876 C.ar      1 RES1    0.0000
      8 C8        -6.4179    3.5097   11.9364 C.ar      1 RES1    0.0000
      9 C9        -5.9800    2.2871   12.4197 C.ar      1 RES1    0.0000
     10 C10       -4.6912    1.8447   12.1456 C.ar      1 RES1    0.0000
     11 C11       -3.8454    2.6567   11.3962 C.ar      1 RES1    0.0000
     12 C12       -2.4018    2.4247   10.9772 C.3       1 RES1    0.0000
     13 C13       -2.0180    3.7576   10.3441 C.ar      1 RES1    0.0000
     14 C14       -1.5100    1.8265   12.0661 C.ar      1 RES1    0.0000
     15 C15       -0.9997    2.5919   13.1110 C.ar      1 RES1    0.0000
     16 C16       -0.1159    1.9925   14.0653 C.ar      1 RES1    0.0000
     17 C17        0.1903    0.6630   13.9858 C.ar      1 RES1    0.0000
     18 C18       -0.3603   -0.1569   12.9813 C.ar      1 RES1    0.0000
     19 C19       -0.0781   -1.5649   12.9311 C.ar      1 RES1    0.0000
     20 C20       -0.6314   -2.3451   11.9535 C.ar      1 RES1    0.0000
     21 C21       -1.4714   -1.7924   10.9882 C.ar      1 RES1    0.0000
     22 C22       -1.7261   -0.4595   10.9295 C.ar      1 RES1    0.0000
     23 C23       -1.2123    0.4151   12.0037 C.ar      1 RES1    0.0000
     24 C24       -1.3158    4.0397   13.3287 C.2       1 RES1    0.0000
     25 C25       -2.5096    4.4343   13.7582 C.2       1 RES1    0.0000
     26 C26       -0.1715    4.9973   13.1354 C.3       1 RES1    0.0000
@<TRIPOS>BOND
     1    1    2 ar
     2    2    3 ar
     3    3    4 ar
     4    4    5 ar
     5    5    6 1
     6    6    7 ar
     7    7    8 ar
     8    8    9 ar
     9    9   10 ar
    10   10   11 ar
    11   11    6 ar
    12   12   11 1
    13   13    1 ar
    14   14   12 1
    15   15   14 ar
    16   16   15 ar
    17   17   16 ar
    18   18   17 ar
    19   19   18 ar
    20   20   19 ar
    21   21   20 ar
    22   22   21 ar
    23   23   14 ar
    24   24   15 1
    25   25   24 2
    26   26   24 1
    27    5   13 ar
    28   12   13 1
    29   18   23 ar
    30   22   23 ar
@<TRIPOS>SUBSTRUCTURE
     1 RES1 1

@<TRIPOS>CRYSIN
  13.5190   11.3730   13.4190  90.0000 114.2500  90.0000  14 1

