# MOL2 file generated by ConQuest
# Please check atom types

@<TRIPOS>MOLECULE
PENCEN12
    72    80     2
SMALL
NO_CHARGES
****
Generated from CSD

@<TRIPOS>ATOM
      1 C1         1.2177   -0.7017   -0.0924 C.ar      1 RES1    0.0000
      2 C2         0.7543   -0.3447    1.1750 C.ar      1 RES1    0.0000
      3 C3         1.4367   -0.6447    2.3593 C.ar      1 RES1    0.0000
      4 C4         0.9415   -0.2678    3.6036 C.ar      1 RES1    0.0000
      5 C5         1.6706   -0.5693    4.8125 C.ar      1 RES1    0.0000
      6 C6         1.1998   -0.1980    6.0152 C.ar      1 RES1    0.0000
      7 C7        -0.0565    0.5081    6.1215 C.ar      1 RES1    0.0000
      8 C8        -0.7643    0.8123    4.9988 C.ar      1 RES1    0.0000
      9 C9        -0.3002    0.4510    3.6837 C.ar      1 RES1    0.0000
     10 C10       -0.9871    0.7528    2.5410 C.ar      1 RES1    0.0000
     11 C11        0.5079   -0.3787   -1.2705 C.ar      1 RES1    0.0000
     12 H1         2.0199   -1.1676   -0.1632 H         1 RES1    0.0000
     13 H2         2.2415   -1.1076    2.3131 H         1 RES1    0.0000
     14 H3         2.4792   -1.0265    4.7586 H         1 RES1    0.0000
     15 H4         1.6845   -0.3974    6.7821 H         1 RES1    0.0000
     16 H5        -0.3818    0.7554    6.9577 H         1 RES1    0.0000
     17 H6        -1.5716    1.2674    5.0835 H         1 RES1    0.0000
     18 H7        -1.7908    1.2170    2.6057 H         1 RES1    0.0000
     19 C12        4.2102    4.4915   -0.1478 C.ar      2 RES2    0.0000
     20 C13        3.7663    4.2013    1.1442 C.ar      2 RES2    0.0000
     21 C14        4.4653    4.5660    2.2992 C.ar      2 RES2    0.0000
     22 C15        3.9872    4.2603    3.5697 C.ar      2 RES2    0.0000
     23 C16        4.7141    4.6632    4.7509 C.ar      2 RES2    0.0000
     24 C17        4.2490    4.3782    5.9783 C.ar      2 RES2    0.0000
     25 C18        3.0097    3.6536    6.1415 C.ar      2 RES2    0.0000
     26 C19        2.2988    3.2663    5.0466 C.ar      2 RES2    0.0000
     27 C20        2.7422    3.5567    3.7068 C.ar      2 RES2    0.0000
     28 C21        2.0422    3.1870    2.5934 C.ar      2 RES2    0.0000
     29 C22        3.4776    4.1148   -1.2967 C.ar      2 RES2    0.0000
     30 H8         5.0140    4.9466   -0.2556 H         2 RES2    0.0000
     31 H9         5.2705    5.0234    2.2161 H         2 RES2    0.0000
     32 H10        5.5147    5.1270    4.6600 H         2 RES2    0.0000
     33 H11        4.7284    4.6487    6.7282 H         2 RES2    0.0000
     34 H12        2.6974    3.4513    6.9931 H         2 RES2    0.0000
     35 H13        1.5024    2.8004    5.1682 H         2 RES2    0.0000
     36 H14        1.2386    2.7292    2.6935 H         2 RES2    0.0000
     37 C1A       -1.2177    0.7017    0.0924 C.ar      1 RES1    0.0000
     38 C2A       -0.7543    0.3447   -1.1750 C.ar      1 RES1    0.0000
     39 C3A       -1.4367    0.6447   -2.3593 C.ar      1 RES1    0.0000
     40 C4A       -0.9415    0.2678   -3.6036 C.ar      1 RES1    0.0000
     41 C5A       -1.6706    0.5693   -4.8125 C.ar      1 RES1    0.0000
     42 C6A       -1.1998    0.1980   -6.0152 C.ar      1 RES1    0.0000
     43 C7A        0.0565   -0.5081   -6.1215 C.ar      1 RES1    0.0000
     44 C8A        0.7643   -0.8123   -4.9988 C.ar      1 RES1    0.0000
     45 C9A        0.3002   -0.4510   -3.6837 C.ar      1 RES1    0.0000
     46 C10A       0.9871   -0.7528   -2.5410 C.ar      1 RES1    0.0000
     47 C11A      -0.5079    0.3787    1.2705 C.ar      1 RES1    0.0000
     48 H1A       -2.0199    1.1676    0.1632 H         1 RES1    0.0000
     49 H2A       -2.2415    1.1076   -2.3131 H         1 RES1    0.0000
     50 H3A       -2.4792    1.0265   -4.7586 H         1 RES1    0.0000
     51 H4A       -1.6845    0.3974   -6.7821 H         1 RES1    0.0000
     52 H5A        0.3818   -0.7554   -6.9577 H         1 RES1    0.0000
     53 H6A        1.5716   -1.2674   -5.0835 H         1 RES1    0.0000
     54 H7A        1.7908   -1.2170   -2.6057 H         1 RES1    0.0000
     55 C12A       1.7753    3.1044    0.1478 C.ar      2 RES2    0.0000
     56 C13A       2.2192    3.3947   -1.1442 C.ar      2 RES2    0.0000
     57 C14A       1.5202    3.0300   -2.2992 C.ar      2 RES2    0.0000
     58 C15A       1.9983    3.3357   -3.5697 C.ar      2 RES2    0.0000
     59 C16A       1.2714    2.9327   -4.7509 C.ar      2 RES2    0.0000
     60 C17A       1.7365    3.2177   -5.9783 C.ar      2 RES2    0.0000
     61 C18A       2.9758    3.9423   -6.1415 C.ar      2 RES2    0.0000
     62 C19A       3.6867    4.3297   -5.0466 C.ar      2 RES2    0.0000
     63 C20A       3.2433    4.0392   -3.7068 C.ar      2 RES2    0.0000
     64 C21A       3.9434    4.4089   -2.5934 C.ar      2 RES2    0.0000
     65 C22A       2.5079    3.4811    1.2967 C.ar      2 RES2    0.0000
     66 H8A        0.9715    2.6493    0.2556 H         2 RES2    0.0000
     67 H9A        0.7150    2.5726   -2.2161 H         2 RES2    0.0000
     68 H10A       0.4708    2.4689   -4.6600 H         2 RES2    0.0000
     69 H11A       1.2571    2.9473   -6.7282 H         2 RES2    0.0000
     70 H12A       3.2881    4.1446   -6.9931 H         2 RES2    0.0000
     71 H13A       4.4831    4.7956   -5.1682 H         2 RES2    0.0000
     72 H14A       4.7470    4.8667   -2.6935 H         2 RES2    0.0000
@<TRIPOS>BOND
     1    1    2 ar
     2    2    3 ar
     3    3    4 ar
     4    4    5 ar
     5    5    6 ar
     6    6    7 ar
     7    7    8 ar
     8    8    9 ar
     9    9    4 ar
    10   10    9 ar
    11   11    1 ar
    12   12    1 1
    13   13    3 1
    14   14    5 1
    15   15    6 1
    16   16    7 1
    17   17    8 1
    18   18   10 1
    19   19   20 ar
    20   20   21 ar
    21   21   22 ar
    22   22   23 ar
    23   23   24 ar
    24   24   25 ar
    25   25   26 ar
    26   26   27 ar
    27   27   22 ar
    28   28   27 ar
    29   29   19 ar
    30   30   19 1
    31   31   21 1
    32   32   23 1
    33   33   24 1
    34   34   25 1
    35   35   26 1
    36   36   28 1
    37   37   38 ar
    38   38   11 ar
    39   39   38 ar
    40   40   39 ar
    41   41   40 ar
    42   42   41 ar
    43   43   42 ar
    44   44   43 ar
    45   45   40 ar
    46   46   11 ar
    47   47    2 ar
    48   48   37 1
    49   49   39 1
    50   50   41 1
    51   51   42 1
    52   52   43 1
    53   53   44 1
    54   54   46 1
    55   55   56 ar
    56   56   29 ar
    57   57   56 ar
    58   58   57 ar
    59   59   58 ar
    60   60   59 ar
    61   61   60 ar
    62   62   61 ar
    63   63   58 ar
    64   64   29 ar
    65   65   20 ar
    66   66   55 1
    67   67   57 1
    68   68   59 1
    69   69   60 1
    70   70   61 1
    71   71   62 1
    72   72   64 1
    73   10   47 ar
    74   28   65 ar
    75   37   47 ar
    76   44   45 ar
    77   45   46 ar
    78   55   65 ar
    79   62   63 ar
    80   63   64 ar
@<TRIPOS>SUBSTRUCTURE
     1 RES1 1
     2 RES2 19

@<TRIPOS>CRYSIN
   5.9590    7.5960   15.6096  81.2500  86.5600  89.8000   2 1

