# MOL2 file generated by ConQuest
# Please check atom types

@<TRIPOS>MOLECULE
PENCEN05
    72    80     2
SMALL
NO_CHARGES
****
Generated from CSD

@<TRIPOS>ATOM
      1 C1         1.8543    1.9462    2.2308 C.ar      1 RES1    0.0000
      2 C2         2.7634    2.5082    1.3792 C.ar      1 RES1    0.0000
      3 C3         3.9888    3.0362    1.8893 C.ar      1 RES1    0.0000
      4 C4         4.2642    2.9589    3.2088 C.ar      1 RES1    0.0000
      5 C5         3.3643    2.3743    4.1637 C.ar      1 RES1    0.0000
      6 C6         2.1193    1.8495    3.6259 C.ar      1 RES1    0.0000
      7 C7         3.5903    2.2675    5.5065 C.ar      1 RES1    0.0000
      8 C8         2.6691    1.6748    6.3901 C.ar      1 RES1    0.0000
      9 C9         1.4212    1.1378    5.8567 C.ar      1 RES1    0.0000
     10 C10        1.1993    1.2565    4.4747 C.ar      1 RES1    0.0000
     11 C11        2.9369    1.5918    7.7474 C.ar      1 RES1    0.0000
     12 H1         1.0409    1.6015    1.8835 H         1 RES1    0.0000
     13 H2         2.5784    2.5597    0.4447 H         1 RES1    0.0000
     14 H3         4.6106    3.4474    1.2789 H         1 RES1    0.0000
     15 H4         5.0850    3.3140    3.5344 H         1 RES1    0.0000
     16 H5         4.3987    2.6063    5.8742 H         1 RES1    0.0000
     17 H6         0.4036    0.9133    4.0997 H         1 RES1    0.0000
     18 H7         3.7480    1.9539    8.0817 H         1 RES1    0.0000
     19 C12        7.4735    5.7427    2.7830 C.ar      2 RES2    0.0000
     20 C13        7.1413    6.3781    1.6393 C.ar      2 RES2    0.0000
     21 C14        5.8993    7.0823    1.5259 C.ar      2 RES2    0.0000
     22 C15        5.0390    7.1191    2.5738 C.ar      2 RES2    0.0000
     23 C16        5.3218    6.4640    3.8076 C.ar      2 RES2    0.0000
     24 C17        6.5840    5.7607    3.8992 C.ar      2 RES2    0.0000
     25 C18        4.4712    6.4547    4.8801 C.ar      2 RES2    0.0000
     26 C19        4.7976    5.7776    6.0733 C.ar      2 RES2    0.0000
     27 C20        6.0482    5.0565    6.2084 C.ar      2 RES2    0.0000
     28 C21        6.9012    5.1081    5.0792 C.ar      2 RES2    0.0000
     29 C22        3.8831    5.7854    7.1211 C.ar      2 RES2    0.0000
     30 H8         8.2984    5.2709    2.8484 H         2 RES2    0.0000
     31 H9         7.7414    6.3536    0.8865 H         2 RES2    0.0000
     32 H10        5.6744    7.5371    0.6990 H         2 RES2    0.0000
     33 H11        4.2197    7.5813    2.4822 H         2 RES2    0.0000
     34 H12        3.6307    6.9155    4.8060 H         2 RES2    0.0000
     35 H13        7.7360    4.6484    5.1388 H         2 RES2    0.0000
     36 H14        3.0581    6.2637    7.0237 H         2 RES2    0.0000
     37 C1A        1.6239    0.2030   12.3020 C.ar      1 RES1    0.0000
     38 C2A        0.7148   -0.3591   13.1537 C.ar      1 RES1    0.0000
     39 C3A       -0.5106   -0.8870   12.6435 C.ar      1 RES1    0.0000
     40 C4A       -0.7860   -0.8097   11.3240 C.ar      1 RES1    0.0000
     41 C5A        0.1139   -0.2251   10.3692 C.ar      1 RES1    0.0000
     42 C6A        1.3589    0.2997   10.9069 C.ar      1 RES1    0.0000
     43 C7A       -0.1121   -0.1183    9.0263 C.ar      1 RES1    0.0000
     44 C8A        0.8090    0.4744    8.1427 C.ar      1 RES1    0.0000
     45 C9A        2.0570    1.0114    8.6761 C.ar      1 RES1    0.0000
     46 C10A       2.2789    0.8927   10.0582 C.ar      1 RES1    0.0000
     47 C11A       0.5413    0.5574    6.7854 C.ar      1 RES1    0.0000
     48 H1A        2.4373    0.5477   12.6494 H         1 RES1    0.0000
     49 H2A        0.8998   -0.4106   14.0881 H         1 RES1    0.0000
     50 H3A       -1.1324   -1.2983   13.2539 H         1 RES1    0.0000
     51 H4A       -1.6068   -1.1649   10.9984 H         1 RES1    0.0000
     52 H5A       -0.9205   -0.4572    8.6587 H         1 RES1    0.0000
     53 H6A        3.0746    1.2359   10.4331 H         1 RES1    0.0000
     54 H7A       -0.2698    0.1953    6.4511 H         1 RES1    0.0000
     55 C12A       2.7012    4.4437   11.7498 C.ar      2 RES2    0.0000
     56 C13A       3.0334    3.8084   12.8935 C.ar      2 RES2    0.0000
     57 C14A       4.2754    3.1042   13.0069 C.ar      2 RES2    0.0000
     58 C15A       5.1357    3.0674   11.9591 C.ar      2 RES2    0.0000
     59 C16A       4.8529    3.7224   10.7252 C.ar      2 RES2    0.0000
     60 C17A       3.5908    4.4258   10.6337 C.ar      2 RES2    0.0000
     61 C18A       5.7036    3.7318    9.6527 C.ar      2 RES2    0.0000
     62 C19A       5.3772    4.4089    8.4596 C.ar      2 RES2    0.0000
     63 C20A       4.1265    5.1299    8.3244 C.ar      2 RES2    0.0000
     64 C21A       3.2735    5.0783    9.4536 C.ar      2 RES2    0.0000
     65 C22A       6.2916    4.4010    7.4117 C.ar      2 RES2    0.0000
     66 H8A        1.8764    4.9155   11.6844 H         2 RES2    0.0000
     67 H9A        2.4333    3.8329   13.6463 H         2 RES2    0.0000
     68 H10A       4.5003    2.6494   13.8338 H         2 RES2    0.0000
     69 H11A       5.9550    2.6051   12.0506 H         2 RES2    0.0000
     70 H12A       6.5441    3.2709    9.7268 H         2 RES2    0.0000
     71 H13A       2.4387    5.5381    9.3940 H         2 RES2    0.0000
     72 H14A       7.1166    3.9227    7.5091 H         2 RES2    0.0000
@<TRIPOS>BOND
     1    1    2 ar
     2    2    3 ar
     3    3    4 ar
     4    4    5 ar
     5    5    6 ar
     6    6    1 ar
     7    7    5 ar
     8    8    7 ar
     9    9    8 ar
    10   10    6 ar
    11   11    8 ar
    12   12    1 1
    13   13    2 1
    14   14    3 1
    15   15    4 1
    16   16    7 1
    17   17   10 1
    18   18   11 1
    19   19   20 ar
    20   20   21 ar
    21   21   22 ar
    22   22   23 ar
    23   23   24 ar
    24   24   19 ar
    25   25   23 ar
    26   26   25 ar
    27   27   26 ar
    28   28   24 ar
    29   29   26 ar
    30   30   19 1
    31   31   20 1
    32   32   21 1
    33   33   22 1
    34   34   25 1
    35   35   28 1
    36   36   29 1
    37   37   38 ar
    38   38   39 ar
    39   39   40 ar
    40   40   41 ar
    41   41   42 ar
    42   42   37 ar
    43   43   41 ar
    44   44   43 ar
    45   45   11 ar
    46   46   42 ar
    47   47    9 ar
    48   48   37 1
    49   49   38 1
    50   50   39 1
    51   51   40 1
    52   52   43 1
    53   53   46 1
    54   54   47 1
    55   55   56 ar
    56   56   57 ar
    57   57   58 ar
    58   58   59 ar
    59   59   60 ar
    60   60   55 ar
    61   61   59 ar
    62   62   61 ar
    63   63   29 ar
    64   64   60 ar
    65   65   27 ar
    66   66   55 1
    67   67   56 1
    68   68   57 1
    69   69   58 1
    70   70   61 1
    71   71   64 1
    72   72   65 1
    73    9   10 ar
    74   27   28 ar
    75   44   45 ar
    76   44   47 ar
    77   45   46 ar
    78   62   63 ar
    79   62   65 ar
    80   63   64 ar
@<TRIPOS>SUBSTRUCTURE
     1 RES1 1
     2 RES2 19

@<TRIPOS>CRYSIN
   6.1190    8.0580   15.0970  80.8800  76.6800  85.8900   2 1

