# MOL2 file generated by ConQuest
# Please check atom types

@<TRIPOS>MOLECULE
PENCEN09
    72    80     2
SMALL
NO_CHARGES
****
Generated from CSD

@<TRIPOS>ATOM
      1 C1         1.8495    1.9639    2.2519 C.ar      1 RES1    0.0000
      2 C2         2.7428    2.5091    1.3677 C.ar      1 RES1    0.0000
      3 C3         3.9563    3.0390    1.8761 C.ar      1 RES1    0.0000
      4 C4         4.2584    2.9720    3.1972 C.ar      1 RES1    0.0000
      5 C5         3.3620    2.3936    4.1717 C.ar      1 RES1    0.0000
      6 C6         2.0965    1.8660    3.6415 C.ar      1 RES1    0.0000
      7 C7         3.5867    2.2786    5.5117 C.ar      1 RES1    0.0000
      8 C8         2.6860    1.6891    6.4279 C.ar      1 RES1    0.0000
      9 C9         1.4385    1.1525    5.8802 C.ar      1 RES1    0.0000
     10 C10        1.2001    1.2738    4.5183 C.ar      1 RES1    0.0000
     11 C11        2.9452    1.6032    7.7738 C.ar      1 RES1    0.0000
     12 H1         1.0292    1.6455    1.9183 H         1 RES1    0.0000
     13 H2         2.5515    2.5516    0.4370 H         1 RES1    0.0000
     14 H3         4.5815    3.4465    1.2833 H         1 RES1    0.0000
     15 H4         5.0749    3.3177    3.5089 H         1 RES1    0.0000
     16 H5         4.3980    2.6149    5.8730 H         1 RES1    0.0000
     17 H6         0.3993    0.9415    4.1615 H         1 RES1    0.0000
     18 H7         3.7527    1.9440    8.1117 H         1 RES1    0.0000
     19 C12        7.4632    5.7751    2.7908 C.ar      2 RES2    0.0000
     20 C13        7.1079    6.3998    1.6256 C.ar      2 RES2    0.0000
     21 C14        5.8800    7.1004    1.5309 C.ar      2 RES2    0.0000
     22 C15        5.0220    7.1370    2.5811 C.ar      2 RES2    0.0000
     23 C16        5.3205    6.4800    3.8265 C.ar      2 RES2    0.0000
     24 C17        6.5556    5.7940    3.9109 C.ar      2 RES2    0.0000
     25 C18        4.4597    6.4832    4.9014 C.ar      2 RES2    0.0000
     26 C19        4.8079    5.7916    6.0827 C.ar      2 RES2    0.0000
     27 C20        6.0474    5.0844    6.2196 C.ar      2 RES2    0.0000
     28 C21        6.8984    5.1244    5.0835 C.ar      2 RES2    0.0000
     29 C22        3.8795    5.8005    7.1256 C.ar      2 RES2    0.0000
     30 H8         8.2981    5.3320    2.8564 H         2 RES2    0.0000
     31 H9         7.6832    6.3647    0.8812 H         2 RES2    0.0000
     32 H10        5.6653    7.5533    0.7297 H         2 RES2    0.0000
     33 H11        4.2034    7.5838    2.4864 H         2 RES2    0.0000
     34 H12        3.6511    6.9625    4.8461 H         2 RES2    0.0000
     35 H13        7.7485    4.6778    5.1359 H         2 RES2    0.0000
     36 H14        3.0393    6.2746    7.0033 H         2 RES2    0.0000
     37 C1A        1.6295    0.2202   12.3140 C.ar      1 RES1    0.0000
     38 C2A        0.7362   -0.3250   13.1981 C.ar      1 RES1    0.0000
     39 C3A       -0.4773   -0.8549   12.6898 C.ar      1 RES1    0.0000
     40 C4A       -0.7794   -0.7879   11.3687 C.ar      1 RES1    0.0000
     41 C5A        0.1170   -0.2095   10.3942 C.ar      1 RES1    0.0000
     42 C6A        1.3825    0.3180   10.9244 C.ar      1 RES1    0.0000
     43 C7A       -0.1077   -0.0946    9.0541 C.ar      1 RES1    0.0000
     44 C8A        0.7930    0.4950    8.1379 C.ar      1 RES1    0.0000
     45 C9A        2.0405    1.0316    8.6856 C.ar      1 RES1    0.0000
     46 C10A       2.2789    0.9102   10.0475 C.ar      1 RES1    0.0000
     47 C11A       0.5338    0.5808    6.7921 C.ar      1 RES1    0.0000
     48 H1A        2.4498    0.5385   12.6475 H         1 RES1    0.0000
     49 H2A        0.9275   -0.3676   14.1289 H         1 RES1    0.0000
     50 H3A       -1.1025   -1.2625   13.2826 H         1 RES1    0.0000
     51 H4A       -1.5959   -1.1336   11.0569 H         1 RES1    0.0000
     52 H5A       -0.9190   -0.4308    8.6929 H         1 RES1    0.0000
     53 H6A        3.0797    1.2426   10.4044 H         1 RES1    0.0000
     54 H7A       -0.2737    0.2401    6.4541 H         1 RES1    0.0000
     55 C12A       2.6976    4.4677   11.7750 C.ar      2 RES2    0.0000
     56 C13A       3.0528    3.8430   12.9403 C.ar      2 RES2    0.0000
     57 C14A       4.2807    3.1424   13.0350 C.ar      2 RES2    0.0000
     58 C15A       5.1387    3.1058   11.9848 C.ar      2 RES2    0.0000
     59 C16A       4.8403    3.7628   10.7394 C.ar      2 RES2    0.0000
     60 C17A       3.6051    4.4488   10.6549 C.ar      2 RES2    0.0000
     61 C18A       5.7011    3.7596    9.6644 C.ar      2 RES2    0.0000
     62 C19A       5.3529    4.4512    8.4832 C.ar      2 RES2    0.0000
     63 C20A       4.1133    5.1583    8.3462 C.ar      2 RES2    0.0000
     64 C21A       3.2623    5.1184    9.4824 C.ar      2 RES2    0.0000
     65 C22A       6.2812    4.4423    7.4402 C.ar      2 RES2    0.0000
     66 H8A        1.8627    4.9108   11.7095 H         2 RES2    0.0000
     67 H9A        2.4776    3.8780   13.6846 H         2 RES2    0.0000
     68 H10A       4.4955    2.6895   13.8361 H         2 RES2    0.0000
     69 H11A       5.9574    2.6590   12.0795 H         2 RES2    0.0000
     70 H12A       6.5097    3.2803    9.7198 H         2 RES2    0.0000
     71 H13A       2.4123    5.5650    9.4299 H         2 RES2    0.0000
     72 H14A       7.1215    3.9682    7.5626 H         2 RES2    0.0000
@<TRIPOS>BOND
     1    1    2 ar
     2    2    3 ar
     3    3    4 ar
     4    4    5 ar
     5    5    6 ar
     6    6    1 ar
     7    7    5 ar
     8    8    7 ar
     9    9    8 ar
    10   10    6 ar
    11   11    8 ar
    12   12    1 1
    13   13    2 1
    14   14    3 1
    15   15    4 1
    16   16    7 1
    17   17   10 1
    18   18   11 1
    19   19   20 ar
    20   20   21 ar
    21   21   22 ar
    22   22   23 ar
    23   23   24 ar
    24   24   19 ar
    25   25   23 ar
    26   26   25 ar
    27   27   26 ar
    28   28   24 ar
    29   29   26 ar
    30   30   19 1
    31   31   20 1
    32   32   21 1
    33   33   22 1
    34   34   25 1
    35   35   28 1
    36   36   29 1
    37   37   38 ar
    38   38   39 ar
    39   39   40 ar
    40   40   41 ar
    41   41   42 ar
    42   42   37 ar
    43   43   41 ar
    44   44   43 ar
    45   45   11 ar
    46   46   42 ar
    47   47    9 ar
    48   48   37 1
    49   49   38 1
    50   50   39 1
    51   51   40 1
    52   52   43 1
    53   53   46 1
    54   54   47 1
    55   55   56 ar
    56   56   57 ar
    57   57   58 ar
    58   58   59 ar
    59   59   60 ar
    60   60   55 ar
    61   61   59 ar
    62   62   61 ar
    63   63   29 ar
    64   64   60 ar
    65   65   27 ar
    66   66   55 1
    67   67   56 1
    68   68   57 1
    69   69   58 1
    70   70   61 1
    71   71   64 1
    72   72   65 1
    73    9   10 ar
    74   27   28 ar
    75   44   45 ar
    76   44   47 ar
    77   45   46 ar
    78   62   63 ar
    79   62   65 ar
    80   63   64 ar
@<TRIPOS>SUBSTRUCTURE
     1 RES1 1
     2 RES2 19

@<TRIPOS>CRYSIN
   6.1239    8.0780   15.1340  80.8020  76.7100  86.0400   2 1

