# MOL2 file generated by ConQuest
# Please check atom types

@<TRIPOS>MOLECULE
PENCEN11
    72    80     2
SMALL
NO_CHARGES
****
Generated from CSD

@<TRIPOS>ATOM
      1 C1         1.2379   -0.6630   -0.1124 C.ar      1 RES1    0.0000
      2 C2         0.7821   -0.3238    1.1627 C.ar      1 RES1    0.0000
      3 C3         1.4912   -0.6050    2.3362 C.ar      1 RES1    0.0000
      4 C4         1.0031   -0.2473    3.5882 C.ar      1 RES1    0.0000
      5 C5         1.7595   -0.5285    4.7863 C.ar      1 RES1    0.0000
      6 C6         1.2950   -0.1760    5.9952 C.ar      1 RES1    0.0000
      7 C7         0.0193    0.4901    6.1230 C.ar      1 RES1    0.0000
      8 C8        -0.7139    0.7749    5.0127 C.ar      1 RES1    0.0000
      9 C9        -0.2587    0.4314    3.6898 C.ar      1 RES1    0.0000
     10 C10       -0.9723    0.7152    2.5579 C.ar      1 RES1    0.0000
     11 C11        0.5001   -0.3596   -1.2797 C.ar      1 RES1    0.0000
     12 H1         2.0529   -1.1029   -0.1971 H         1 RES1    0.0000
     13 H2         2.3088   -1.0426    2.2761 H         1 RES1    0.0000
     14 H3         2.5809   -0.9597    4.7186 H         1 RES1    0.0000
     15 H4         1.7972   -0.3612    6.7560 H         1 RES1    0.0000
     16 H5        -0.3010    0.7244    6.9639 H         1 RES1    0.0000
     17 H6        -1.5341    1.2041    5.1113 H         1 RES1    0.0000
     18 H7        -1.7890    1.1532    2.6349 H         1 RES1    0.0000
     19 C12        4.2294    4.4514   -0.1617 C.ar      2 RES2    0.0000
     20 C13        3.7776    4.2014    1.1350 C.ar      2 RES2    0.0000
     21 C14        4.4875    4.5682    2.2838 C.ar      2 RES2    0.0000
     22 C15        4.0004    4.3027    3.5589 C.ar      2 RES2    0.0000
     23 C16        4.7392    4.7075    4.7324 C.ar      2 RES2    0.0000
     24 C17        4.2664    4.4614    5.9659 C.ar      2 RES2    0.0000
     25 C18        3.0062    3.7777    6.1430 C.ar      2 RES2    0.0000
     26 C19        2.2840    3.3895    5.0574 C.ar      2 RES2    0.0000
     27 C20        2.7358    3.6387    3.7114 C.ar      2 RES2    0.0000
     28 C21        2.0243    3.2677    2.6041 C.ar      2 RES2    0.0000
     29 C22        3.4855    4.0736   -1.3028 C.ar      2 RES2    0.0000
     30 H8         5.0461    4.8808   -0.2787 H         2 RES2    0.0000
     31 H9         5.3056    4.9998    2.1914 H         2 RES2    0.0000
     32 H10        5.5534    5.1455    4.6323 H         2 RES2    0.0000
     33 H11        4.7531    4.7324    6.7098 H         2 RES2    0.0000
     34 H12        2.6884    3.6019    6.9993 H         2 RES2    0.0000
     35 H13        1.4746    2.9498    5.1867 H         2 RES2    0.0000
     36 H14        1.2078    2.8364    2.7135 H         2 RES2    0.0000
     37 C1A       -1.2379    0.6630    0.1124 C.ar      1 RES1    0.0000
     38 C2A       -0.7821    0.3238   -1.1627 C.ar      1 RES1    0.0000
     39 C3A       -1.4912    0.6050   -2.3362 C.ar      1 RES1    0.0000
     40 C4A       -1.0031    0.2473   -3.5882 C.ar      1 RES1    0.0000
     41 C5A       -1.7595    0.5285   -4.7863 C.ar      1 RES1    0.0000
     42 C6A       -1.2950    0.1760   -5.9952 C.ar      1 RES1    0.0000
     43 C7A       -0.0193   -0.4901   -6.1230 C.ar      1 RES1    0.0000
     44 C8A        0.7139   -0.7749   -5.0127 C.ar      1 RES1    0.0000
     45 C9A        0.2587   -0.4314   -3.6898 C.ar      1 RES1    0.0000
     46 C10A       0.9723   -0.7152   -2.5579 C.ar      1 RES1    0.0000
     47 C11A      -0.5001    0.3596    1.2797 C.ar      1 RES1    0.0000
     48 H1A       -2.0529    1.1029    0.1971 H         1 RES1    0.0000
     49 H2A       -2.3088    1.0426   -2.2761 H         1 RES1    0.0000
     50 H3A       -2.5809    0.9597   -4.7186 H         1 RES1    0.0000
     51 H4A       -1.7972    0.3612   -6.7560 H         1 RES1    0.0000
     52 H5A        0.3010   -0.7244   -6.9639 H         1 RES1    0.0000
     53 H6A        1.5341   -1.2041   -5.1113 H         1 RES1    0.0000
     54 H7A        1.7890   -1.1532   -2.6349 H         1 RES1    0.0000
     55 C12A       1.7551    3.1446    0.1617 C.ar      2 RES2    0.0000
     56 C13A       2.2069    3.3946   -1.1350 C.ar      2 RES2    0.0000
     57 C14A       1.4970    3.0278   -2.2838 C.ar      2 RES2    0.0000
     58 C15A       1.9841    3.2933   -3.5589 C.ar      2 RES2    0.0000
     59 C16A       1.2453    2.8885   -4.7324 C.ar      2 RES2    0.0000
     60 C17A       1.7181    3.1345   -5.9659 C.ar      2 RES2    0.0000
     61 C18A       2.9783    3.8183   -6.1430 C.ar      2 RES2    0.0000
     62 C19A       3.7005    4.2065   -5.0574 C.ar      2 RES2    0.0000
     63 C20A       3.2487    3.9572   -3.7114 C.ar      2 RES2    0.0000
     64 C21A       3.9602    4.3282   -2.6041 C.ar      2 RES2    0.0000
     65 C22A       2.4991    3.5223    1.3028 C.ar      2 RES2    0.0000
     66 H8A        0.9385    2.7152    0.2787 H         2 RES2    0.0000
     67 H9A        0.6789    2.5961   -2.1914 H         2 RES2    0.0000
     68 H10A       0.4312    2.4504   -4.6323 H         2 RES2    0.0000
     69 H11A       1.2315    2.8635   -6.7098 H         2 RES2    0.0000
     70 H12A       3.2961    3.9940   -6.9993 H         2 RES2    0.0000
     71 H13A       4.5099    4.6461   -5.1867 H         2 RES2    0.0000
     72 H14A       4.7767    4.7596   -2.7135 H         2 RES2    0.0000
@<TRIPOS>BOND
     1    1    2 ar
     2    2    3 ar
     3    3    4 ar
     4    4    5 ar
     5    5    6 ar
     6    6    7 ar
     7    7    8 ar
     8    8    9 ar
     9    9    4 ar
    10   10    9 ar
    11   11    1 ar
    12   12    1 1
    13   13    3 1
    14   14    5 1
    15   15    6 1
    16   16    7 1
    17   17    8 1
    18   18   10 1
    19   19   20 ar
    20   20   21 ar
    21   21   22 ar
    22   22   23 ar
    23   23   24 ar
    24   24   25 ar
    25   25   26 ar
    26   26   27 ar
    27   27   22 ar
    28   28   27 ar
    29   29   19 ar
    30   30   19 1
    31   31   21 1
    32   32   23 1
    33   33   24 1
    34   34   25 1
    35   35   26 1
    36   36   28 1
    37   37   38 ar
    38   38   11 ar
    39   39   38 ar
    40   40   39 ar
    41   41   40 ar
    42   42   41 ar
    43   43   42 ar
    44   44   43 ar
    45   45   40 ar
    46   46   11 ar
    47   47    2 ar
    48   48   37 1
    49   49   39 1
    50   50   41 1
    51   51   42 1
    52   52   43 1
    53   53   44 1
    54   54   46 1
    55   55   56 ar
    56   56   29 ar
    57   57   56 ar
    58   58   57 ar
    59   59   58 ar
    60   60   59 ar
    61   61   60 ar
    62   62   61 ar
    63   63   58 ar
    64   64   29 ar
    65   65   20 ar
    66   66   55 1
    67   67   57 1
    68   68   59 1
    69   69   60 1
    70   70   61 1
    71   71   62 1
    72   72   64 1
    73   10   47 ar
    74   28   65 ar
    75   37   47 ar
    76   44   45 ar
    77   45   46 ar
    78   55   65 ar
    79   62   63 ar
    80   63   64 ar
@<TRIPOS>SUBSTRUCTURE
     1 RES1 1
     2 RES2 19

@<TRIPOS>CRYSIN
   5.9580    7.5960   15.6096  81.2500  86.5600  89.8000   2 1

