# MOL2 file generated by ConQuest
# Please check atom types

@<TRIPOS>MOLECULE
PENCEN
    72    80     2
SMALL
NO_CHARGES
****
Generated from CSD

@<TRIPOS>ATOM
      1 C1        -1.3242   -1.0531    5.9036 C.ar      1 RES1    0.0000
      2 C2        -1.9511   -2.3883    4.0401 C.ar      1 RES1    0.0000
      3 C3        -1.9500   -2.1472    5.3743 C.ar      1 RES1    0.0000
      4 C4        -0.7389   -0.1753    5.0625 C.ar      1 RES1    0.0000
      5 C5        -0.7026   -0.3518    3.6370 C.ar      1 RES1    0.0000
      6 C6        -0.0856    0.4558    2.7466 C.ar      1 RES1    0.0000
      7 C7        -0.0904    0.3032    1.3776 C.ar      1 RES1    0.0000
      8 C8         0.6176    1.1704    0.4858 C.ar      1 RES1    0.0000
      9 C9        -0.5826   -0.9036    0.8222 C.ar      1 RES1    0.0000
     10 C10       -1.2835   -1.7553    1.7764 C.ar      1 RES1    0.0000
     11 C11       -1.2710   -1.5305    3.1164 C.ar      1 RES1    0.0000
     12 H1        -1.3311   -0.8519    6.9898 H         1 RES1    0.0000
     13 H2        -2.4053   -3.2981    3.6399 H         1 RES1    0.0000
     14 H3        -2.4441   -2.8444    6.0907 H         1 RES1    0.0000
     15 H4        -0.2026    0.7192    5.3656 H         1 RES1    0.0000
     16 H5         0.3970    1.3169    3.1613 H         1 RES1    0.0000
     17 H6         1.0652    2.0135    0.8846 H         1 RES1    0.0000
     18 H7        -1.7421   -2.6674    1.4212 H         1 RES1    0.0000
     19 C12       -6.1137   -3.7262    5.8209 C.ar      2 RES2    0.0000
     20 C13       -6.0859   -2.8702    4.7652 C.ar      2 RES2    0.0000
     21 C14       -5.4647   -3.1882    3.5297 C.ar      2 RES2    0.0000
     22 C15       -5.4502   -2.2890    2.4450 C.ar      2 RES2    0.0000
     23 C16       -4.7954   -2.6218    1.2268 C.ar      2 RES2    0.0000
     24 C17       -4.7461   -1.7583    0.1450 C.ar      2 RES2    0.0000
     25 C18       -4.1980   -3.9663    1.0934 C.ar      2 RES2    0.0000
     26 C19       -4.3131   -4.8098    2.1506 C.ar      2 RES2    0.0000
     27 C20       -4.8345   -4.5060    3.3963 C.ar      2 RES2    0.0000
     28 C21       -4.9597   -5.3749    4.4868 C.ar      2 RES2    0.0000
     29 C22       -5.4721   -5.0582    5.6919 C.ar      2 RES2    0.0000
     30 H8        -6.6042   -3.4066    6.8882 H         2 RES2    0.0000
     31 H9        -6.4951   -1.8460    4.8580 H         2 RES2    0.0000
     32 H10       -5.8836   -1.2763    2.5813 H         2 RES2    0.0000
     33 H11       -5.2134   -0.7401    0.2900 H         2 RES2    0.0000
     34 H12       -3.8546   -5.8211    2.0592 H         2 RES2    0.0000
     35 H13       -4.5029   -6.3808    4.4085 H         2 RES2    0.0000
     36 H14       -5.4833   -5.7370    6.5692 H         2 RES2    0.0000
     37 C9A        0.5826    0.9036   -0.8222 C.ar      1 RES1    0.0000
     38 C8A       -0.6176   -1.1704   -0.4858 C.ar      1 RES1    0.0000
     39 C7A        0.0904   -0.3032   -1.3776 C.ar      1 RES1    0.0000
     40 C10A       1.2835    1.7553   -1.7764 C.ar      1 RES1    0.0000
     41 H6A       -1.0652   -2.0135   -0.8846 H         1 RES1    0.0000
     42 C6A        0.0856   -0.4558   -2.7466 C.ar      1 RES1    0.0000
     43 C11A       1.2710    1.5305   -3.1164 C.ar      1 RES1    0.0000
     44 H7A        1.7421    2.6674   -1.4212 H         1 RES1    0.0000
     45 C5A        0.7026    0.3518   -3.6370 C.ar      1 RES1    0.0000
     46 H5A       -0.3970   -1.3169   -3.1613 H         1 RES1    0.0000
     47 C2A        1.9511    2.3883   -4.0401 C.ar      1 RES1    0.0000
     48 C4A        0.7389    0.1753   -5.0625 C.ar      1 RES1    0.0000
     49 C3A        1.9500    2.1472   -5.3743 C.ar      1 RES1    0.0000
     50 H2A        2.4053    3.2981   -3.6399 H         1 RES1    0.0000
     51 C1A        1.3242    1.0531   -5.9036 C.ar      1 RES1    0.0000
     52 H4A        0.2026   -0.7192   -5.3656 H         1 RES1    0.0000
     53 H3A        2.4441    2.8444   -6.0907 H         1 RES1    0.0000
     54 H1A        1.3311    0.8519   -6.9898 H         1 RES1    0.0000
     55 C18A      -4.1459   -2.0775   -1.0934 C.ar      2 RES2    0.0000
     56 C17A      -3.5978   -4.2854   -0.1450 C.ar      2 RES2    0.0000
     57 C16A      -3.5484   -3.4219   -1.2268 C.ar      2 RES2    0.0000
     58 C19A      -4.0307   -1.2339   -2.1506 C.ar      2 RES2    0.0000
     59 H11A      -3.1304   -5.3036   -0.2900 H         2 RES2    0.0000
     60 C15A      -2.8936   -3.7547   -2.4450 C.ar      2 RES2    0.0000
     61 C20A      -3.5093   -1.5377   -3.3963 C.ar      2 RES2    0.0000
     62 H12A      -4.4892   -0.2227   -2.0592 H         2 RES2    0.0000
     63 C14A      -2.8792   -2.8556   -3.5297 C.ar      2 RES2    0.0000
     64 H10A      -2.4602   -4.7674   -2.5813 H         2 RES2    0.0000
     65 C21A      -3.3842   -0.6688   -4.4868 C.ar      2 RES2    0.0000
     66 C13A      -2.2579   -3.1735   -4.7652 C.ar      2 RES2    0.0000
     67 C22A      -2.8717   -0.9855   -5.6919 C.ar      2 RES2    0.0000
     68 H13A      -3.8409    0.3371   -4.4085 H         2 RES2    0.0000
     69 C12A      -2.2301   -2.3175   -5.8209 C.ar      2 RES2    0.0000
     70 H9A       -1.8488   -4.1977   -4.8580 H         2 RES2    0.0000
     71 H14A      -2.8605   -0.3067   -6.5692 H         2 RES2    0.0000
     72 H8A       -1.7396   -2.6372   -6.8882 H         2 RES2    0.0000
@<TRIPOS>BOND
     1    1    3 ar
     2    2    3 ar
     3    3   14 1
     4    4    1 ar
     5    5    4 ar
     6    6    5 ar
     7    7    6 ar
     8    8    7 ar
     9    9    7 ar
    10   10    9 ar
    11   11    2 ar
    12   12    1 1
    13   13    2 1
    14   15    4 1
    15   16    6 1
    16   17    8 1
    17   18   10 1
    18   19   20 ar
    19   20   21 ar
    20   21   22 ar
    21   22   23 ar
    22   23   24 ar
    23   24   33 1
    24   25   23 ar
    25   26   25 ar
    26   27   21 ar
    27   28   27 ar
    28   29   19 ar
    29   30   19 1
    30   31   20 1
    31   32   22 1
    32   34   26 1
    33   35   28 1
    34   36   29 1
    35   37    8 ar
    36   38    9 ar
    37   39   37 ar
    38   40   37 ar
    39   41   38 1
    40   42   39 ar
    41   43   40 ar
    42   44   40 1
    43   45   42 ar
    44   46   42 1
    45   47   43 ar
    46   48   45 ar
    47   49   47 ar
    48   50   47 1
    49   51   48 ar
    50   52   48 1
    51   53   49 1
    52   54   51 1
    53   55   24 ar
    54   56   25 ar
    55   57   55 ar
    56   58   55 ar
    57   59   56 1
    58   60   57 ar
    59   61   58 ar
    60   62   58 1
    61   63   60 ar
    62   64   60 1
    63   65   61 ar
    64   66   63 ar
    65   67   65 ar
    66   68   65 1
    67   69   66 ar
    68   70   66 1
    69   71   67 1
    70   72   69 1
    71    5   11 ar
    72   10   11 ar
    73   26   27 ar
    74   28   29 ar
    75   38   39 ar
    76   43   45 ar
    77   49   51 ar
    78   56   57 ar
    79   61   63 ar
    80   67   69 ar
@<TRIPOS>SUBSTRUCTURE
     1 RES1 1
     2 RES2 19

@<TRIPOS>CRYSIN
   7.9000    6.0600   16.0100 101.9000 112.6000  85.8000   2 1

