# MOL2 file generated by ConQuest
# Please check atom types

@<TRIPOS>MOLECULE
PENCEN01
    72    80     2
SMALL
NO_CHARGES
****
Generated from CSD

@<TRIPOS>ATOM
      1 C1         5.6271    3.2657    0.8069 C.ar      1 RES1    0.0000
      2 C2         4.6352    2.6941    1.6390 C.ar      1 RES1    0.0000
      3 C3         4.8138    2.5930    3.0138 C.ar      1 RES1    0.0000
      4 C4         3.8178    2.0072    3.8769 C.ar      1 RES1    0.0000
      5 C5         4.0158    1.9100    5.2123 C.ar      1 RES1    0.0000
      6 C6         5.2232    2.3926    5.7970 C.ar      1 RES1    0.0000
      7 C7         6.2022    2.9437    5.0352 C.ar      1 RES1    0.0000
      8 C8         6.0384    3.0689    3.6126 C.ar      1 RES1    0.0000
      9 C9         7.0143    3.6342    2.8029 C.ar      1 RES1    0.0000
     10 C10        6.8579    3.7536    1.4113 C.ar      1 RES1    0.0000
     11 C11        5.4477    3.3676   -0.5805 C.ar      1 RES1    0.0000
     12 H1         3.8298    2.3730    1.2497 H         1 RES1    0.0000
     13 H2         3.0080    1.6832    3.5016 H         1 RES1    0.0000
     14 H3         3.3473    1.5182    5.7619 H         1 RES1    0.0000
     15 H4         5.3444    2.3277    6.7374 H         1 RES1    0.0000
     16 H5         7.0020    3.2501    5.4470 H         1 RES1    0.0000
     17 H6         7.8157    3.9518    3.2035 H         1 RES1    0.0000
     18 H7         4.6342    3.0504   -0.9531 H         1 RES1    0.0000
     19 C12        2.1130    0.0271    0.9924 C.ar      2 RES2    0.0000
     20 C13        1.1287    0.0320    2.0115 C.ar      2 RES2    0.0000
     21 C14        1.3243   -0.6272    3.2120 C.ar      2 RES2    0.0000
     22 C15        0.3401   -0.6104    4.2494 C.ar      2 RES2    0.0000
     23 C16        0.5513   -1.2539    5.4217 C.ar      2 RES2    0.0000
     24 C17        1.7691   -1.9684    5.6508 C.ar      2 RES2    0.0000
     25 C18        2.7268   -2.0114    4.6922 C.ar      2 RES2    0.0000
     26 C19        2.5550   -1.3516    3.4383 C.ar      2 RES2    0.0000
     27 C20        3.5275   -1.3788    2.4487 C.ar      2 RES2    0.0000
     28 C21        3.3571   -0.7021    1.2243 C.ar      2 RES2    0.0000
     29 C22        1.9424    0.7072   -0.2207 C.ar      2 RES2    0.0000
     30 H8         0.3143    0.4997    1.8667 H         2 RES2    0.0000
     31 H9        -0.4746   -0.1415    4.1130 H         2 RES2    0.0000
     32 H10       -0.1152   -1.2307    6.0978 H         2 RES2    0.0000
     33 H11        1.9075   -2.4135    6.4788 H         2 RES2    0.0000
     34 H12        3.5294   -2.4926    4.8580 H         2 RES2    0.0000
     35 H13        4.3287   -1.8663    2.6005 H         2 RES2    0.0000
     36 H14        1.1288    1.1797   -0.3514 H         2 RES2    0.0000
     37 C10A       6.4288    3.9249   -1.4113 C.ar      1 RES1    0.0000
     38 C1A        7.6597    4.4129   -0.8069 C.ar      1 RES1    0.0000
     39 C2A        8.6516    4.9845   -1.6390 C.ar      1 RES1    0.0000
     40 C3A        8.4729    5.0856   -3.0138 C.ar      1 RES1    0.0000
     41 C4A        9.4689    5.6714   -3.8769 C.ar      1 RES1    0.0000
     42 C5A        9.2709    5.7686   -5.2123 C.ar      1 RES1    0.0000
     43 C6A        8.0635    5.2860   -5.7970 C.ar      1 RES1    0.0000
     44 C7A        7.0845    4.7349   -5.0352 C.ar      1 RES1    0.0000
     45 C8A        7.2483    4.6097   -3.6126 C.ar      1 RES1    0.0000
     46 C9A        6.2724    4.0444   -2.8029 C.ar      1 RES1    0.0000
     47 H6A        5.4710    3.7268   -3.2035 H         1 RES1    0.0000
     48 H5A        6.2847    4.4285   -5.4470 H         1 RES1    0.0000
     49 H4A        7.9423    5.3509   -6.7374 H         1 RES1    0.0000
     50 H3A        9.9394    6.1604   -5.7619 H         1 RES1    0.0000
     51 H2A       10.2787    5.9954   -3.5016 H         1 RES1    0.0000
     52 H1A        9.4569    5.3056   -1.2497 H         1 RES1    0.0000
     53 C11A       7.8390    4.3110    0.5805 C.ar      1 RES1    0.0000
     54 H7A        8.6525    4.6281    0.9531 H         1 RES1    0.0000
     55 C21A       2.9182    0.7021   -1.2243 C.ar      2 RES2    0.0000
     56 C12A       4.1623   -0.0271   -0.9924 C.ar      2 RES2    0.0000
     57 C13A       5.1466   -0.0320   -2.0115 C.ar      2 RES2    0.0000
     58 C14A       4.9510    0.6272   -3.2120 C.ar      2 RES2    0.0000
     59 C15A       5.9352    0.6104   -4.2494 C.ar      2 RES2    0.0000
     60 C16A       5.7240    1.2539   -5.4217 C.ar      2 RES2    0.0000
     61 C17A       4.5062    1.9684   -5.6508 C.ar      2 RES2    0.0000
     62 C18A       3.5485    2.0114   -4.6922 C.ar      2 RES2    0.0000
     63 C19A       3.7203    1.3516   -3.4383 C.ar      2 RES2    0.0000
     64 C20A       2.7478    1.3788   -2.4487 C.ar      2 RES2    0.0000
     65 H13A       1.9466    1.8663   -2.6005 H         2 RES2    0.0000
     66 H12A       2.7459    2.4926   -4.8580 H         2 RES2    0.0000
     67 H11A       4.3678    2.4135   -6.4788 H         2 RES2    0.0000
     68 H10A       6.3905    1.2307   -6.0978 H         2 RES2    0.0000
     69 H9A        6.7499    0.1415   -4.1130 H         2 RES2    0.0000
     70 H8A        5.9610   -0.4997   -1.8667 H         2 RES2    0.0000
     71 C22A       4.3329   -0.7072    0.2207 C.ar      2 RES2    0.0000
     72 H14A       5.1465   -1.1797    0.3514 H         2 RES2    0.0000
@<TRIPOS>BOND
     1    1    2 ar
     2    2    3 ar
     3    3    4 ar
     4    4    5 ar
     5    5    6 ar
     6    6    7 ar
     7    7    8 ar
     8    8    3 ar
     9    9    8 ar
    10   10    1 ar
    11   11    1 ar
    12   12    2 1
    13   13    4 1
    14   14    5 1
    15   15    6 1
    16   16    7 1
    17   17    9 1
    18   18   11 1
    19   19   20 ar
    20   20   21 ar
    21   21   22 ar
    22   22   23 ar
    23   23   24 ar
    24   24   25 ar
    25   25   26 ar
    26   26   21 ar
    27   27   26 ar
    28   28   19 ar
    29   29   19 ar
    30   30   20 1
    31   31   22 1
    32   32   23 1
    33   33   24 1
    34   34   25 1
    35   35   27 1
    36   36   29 1
    37   37   11 ar
    38   38   37 ar
    39   39   38 ar
    40   40   39 ar
    41   41   40 ar
    42   42   41 ar
    43   43   42 ar
    44   44   43 ar
    45   45   40 ar
    46   46   37 ar
    47   47   46 1
    48   48   44 1
    49   49   43 1
    50   50   42 1
    51   51   41 1
    52   52   39 1
    53   53   10 ar
    54   54   53 1
    55   55   29 ar
    56   56   55 ar
    57   57   56 ar
    58   58   57 ar
    59   59   58 ar
    60   60   59 ar
    61   61   60 ar
    62   62   61 ar
    63   63   58 ar
    64   64   55 ar
    65   65   64 1
    66   66   62 1
    67   67   61 1
    68   68   60 1
    69   69   59 1
    70   70   57 1
    71   71   28 ar
    72   72   71 1
    73    9   10 ar
    74   27   28 ar
    75   38   53 ar
    76   44   45 ar
    77   45   46 ar
    78   56   71 ar
    79   62   63 ar
    80   63   64 ar
@<TRIPOS>SUBSTRUCTURE
     1 RES1 1
     2 RES2 19

@<TRIPOS>CRYSIN
   6.2753    7.7138   14.4424  76.7520  88.0110  84.5240   2 1

