# MOL2 file generated by ConQuest
# Please check atom types

@<TRIPOS>MOLECULE
PENCEN04
    72    80     2
SMALL
NO_CHARGES
****
Generated from CSD

@<TRIPOS>ATOM
      1 C1         4.6831    3.0960    0.2217 C.ar      1 RES1    0.0000
      2 C2         3.7027    3.0965    1.2189 C.ar      1 RES1    0.0000
      3 C3         3.8719    2.4246    2.4423 C.ar      1 RES1    0.0000
      4 C4         2.9020    2.4382    3.4238 C.ar      1 RES1    0.0000
      5 C5         3.0744    1.7760    4.6765 C.ar      1 RES1    0.0000
      6 C6         2.1128    1.8215    5.6213 C.ar      1 RES1    0.0000
      7 C7         0.8993    2.5360    5.3962 C.ar      1 RES1    0.0000
      8 C8         0.6878    3.1771    4.2306 C.ar      1 RES1    0.0000
      9 C9         1.6765    3.1633    3.1955 C.ar      1 RES1    0.0000
     10 C10        1.4872    3.8250    1.9971 C.ar      1 RES1    0.0000
     11 C11        4.5104    3.7755   -0.9853 C.ar      1 RES1    0.0000
     12 H1         5.5367    2.6012    0.3741 H         1 RES1    0.0000
     13 H2         4.7346    1.9356    2.5771 H         1 RES1    0.0000
     14 H3         3.9159    1.2838    4.8402 H         1 RES1    0.0000
     15 H4         2.2034    1.3877    6.4875 H         1 RES1    0.0000
     16 H5         0.2274    2.5296    6.1315 H         1 RES1    0.0000
     17 H6        -0.1595    3.6559    4.0486 H         1 RES1    0.0000
     18 H7         0.6569    4.3424    1.8372 H         1 RES1    0.0000
     19 C12       -1.1898   -0.4644   -0.5841 C.ar      2 RES2    0.0000
     20 C13       -1.0182   -0.5742    0.7977 C.ar      2 RES2    0.0000
     21 C14       -2.0045   -1.1393    1.6348 C.ar      2 RES2    0.0000
     22 C15       -1.8273   -1.2483    3.0031 C.ar      2 RES2    0.0000
     23 C16       -2.8243   -1.8287    3.8499 C.ar      2 RES2    0.0000
     24 C17       -2.6252   -1.9324    5.1787 C.ar      2 RES2    0.0000
     25 C18       -1.4235   -1.4563    5.7772 C.ar      2 RES2    0.0000
     26 C19       -0.4440   -0.9049    5.0126 C.ar      2 RES2    0.0000
     27 C20       -0.6080   -0.7773    3.5995 C.ar      2 RES2    0.0000
     28 C21        0.3715   -0.2148    2.7938 C.ar      2 RES2    0.0000
     29 C22       -0.2090    0.0935   -1.4030 C.ar      2 RES2    0.0000
     30 H8        -2.0512   -0.7695   -0.9703 H         2 RES2    0.0000
     31 H9        -2.8487   -1.4494    1.2034 H         2 RES2    0.0000
     32 H10       -3.6651   -2.1374    3.4413 H         2 RES2    0.0000
     33 H11       -3.3243   -2.3582    5.7616 H         2 RES2    0.0000
     34 H12       -1.3117   -1.5417    6.7709 H         2 RES2    0.0000
     35 H13        0.3924   -0.5543    5.4419 H         2 RES2    0.0000
     36 H14        1.2510    0.1188    3.2054 H         2 RES2    0.0000
     37 C11A       2.4717    3.8242    0.9853 C.ar      1 RES1    0.0000
     38 C1A        2.2991    4.5037   -0.2217 C.ar      1 RES1    0.0000
     39 C2A        3.2794    4.5032   -1.2189 C.ar      1 RES1    0.0000
     40 C3A        3.1102    5.1752   -2.4423 C.ar      1 RES1    0.0000
     41 C4A        4.0801    5.1616   -3.4238 C.ar      1 RES1    0.0000
     42 C5A        3.9078    5.8237   -4.6765 C.ar      1 RES1    0.0000
     43 C6A        4.8694    5.7783   -5.6213 C.ar      1 RES1    0.0000
     44 C7A        6.0828    5.0638   -5.3962 C.ar      1 RES1    0.0000
     45 C8A        6.2943    4.4227   -4.2306 C.ar      1 RES1    0.0000
     46 C9A        5.3057    4.4364   -3.1955 C.ar      1 RES1    0.0000
     47 C10A       5.4950    3.7747   -1.9971 C.ar      1 RES1    0.0000
     48 H7A        6.3252    3.2573   -1.8372 H         1 RES1    0.0000
     49 H6A        7.1417    3.9438   -4.0486 H         1 RES1    0.0000
     50 H5A        6.7548    5.0701   -6.1315 H         1 RES1    0.0000
     51 H4A        4.7787    6.2121   -6.4875 H         1 RES1    0.0000
     52 H3A        3.0663    6.3160   -4.8402 H         1 RES1    0.0000
     53 H2A        2.2475    5.6641   -2.5771 H         1 RES1    0.0000
     54 H1A        1.4455    4.9985   -0.3741 H         1 RES1    0.0000
     55 C22A       0.2090   -0.0935    1.4030 C.ar      2 RES2    0.0000
     56 C12A       1.1898    0.4644    0.5841 C.ar      2 RES2    0.0000
     57 C13A       1.0182    0.5742   -0.7977 C.ar      2 RES2    0.0000
     58 C14A       2.0045    1.1393   -1.6348 C.ar      2 RES2    0.0000
     59 C15A       1.8273    1.2483   -3.0031 C.ar      2 RES2    0.0000
     60 C16A       2.8243    1.8287   -3.8499 C.ar      2 RES2    0.0000
     61 C17A       2.6252    1.9324   -5.1787 C.ar      2 RES2    0.0000
     62 C18A       1.4235    1.4563   -5.7772 C.ar      2 RES2    0.0000
     63 C19A       0.4440    0.9049   -5.0126 C.ar      2 RES2    0.0000
     64 C20A       0.6080    0.7773   -3.5995 C.ar      2 RES2    0.0000
     65 C21A      -0.3715    0.2148   -2.7938 C.ar      2 RES2    0.0000
     66 H14A      -1.2510   -0.1188   -3.2054 H         2 RES2    0.0000
     67 H13A      -0.3924    0.5543   -5.4419 H         2 RES2    0.0000
     68 H12A       1.3117    1.5417   -6.7709 H         2 RES2    0.0000
     69 H11A       3.3243    2.3582   -5.7616 H         2 RES2    0.0000
     70 H10A       3.6651    2.1374   -3.4413 H         2 RES2    0.0000
     71 H9A        2.8487    1.4494   -1.2034 H         2 RES2    0.0000
     72 H8A        2.0512    0.7695    0.9703 H         2 RES2    0.0000
@<TRIPOS>BOND
     1    1    2 ar
     2    2    3 ar
     3    3    4 ar
     4    4    5 ar
     5    5    6 ar
     6    6    7 ar
     7    7    8 ar
     8    8    9 ar
     9    9    4 ar
    10   10    9 ar
    11   11    1 ar
    12   12    1 1
    13   13    3 1
    14   14    5 1
    15   15    6 1
    16   16    7 1
    17   17    8 1
    18   18   10 1
    19   19   20 ar
    20   20   21 ar
    21   21   22 ar
    22   22   23 ar
    23   23   24 ar
    24   24   25 ar
    25   25   26 ar
    26   26   27 ar
    27   27   22 ar
    28   28   27 ar
    29   29   19 ar
    30   30   19 1
    31   31   21 1
    32   32   23 1
    33   33   24 1
    34   34   25 1
    35   35   26 1
    36   36   28 1
    37   37    2 ar
    38   38   37 ar
    39   39   11 ar
    40   40   39 ar
    41   41   40 ar
    42   42   41 ar
    43   43   42 ar
    44   44   43 ar
    45   45   44 ar
    46   46   41 ar
    47   47   11 ar
    48   48   47 1
    49   49   45 1
    50   50   44 1
    51   51   43 1
    52   52   42 1
    53   53   40 1
    54   54   38 1
    55   55   20 ar
    56   56   55 ar
    57   57   29 ar
    58   58   57 ar
    59   59   58 ar
    60   60   59 ar
    61   61   60 ar
    62   62   61 ar
    63   63   62 ar
    64   64   59 ar
    65   65   29 ar
    66   66   65 1
    67   67   63 1
    68   68   62 1
    69   69   61 1
    70   70   60 1
    71   71   58 1
    72   72   56 1
    73   10   37 ar
    74   28   55 ar
    75   38   39 ar
    76   45   46 ar
    77   46   47 ar
    78   56   57 ar
    79   63   64 ar
    80   64   65 ar
@<TRIPOS>SUBSTRUCTURE
     1 RES1 1
     2 RES2 19

@<TRIPOS>CRYSIN
   6.2390    7.6360   14.3300  76.9780  88.1360  84.4150   2 1

