# MOL2 file generated by ConQuest
# Please check atom types

@<TRIPOS>MOLECULE
PENCEN08
    72    80     2
SMALL
NO_CHARGES
****
Generated from CSD

@<TRIPOS>ATOM
      1 C1         0.7264    2.5880    2.0988 C.ar      1 RES1    0.0000
      2 C2         1.6765    3.1343    1.2969 C.ar      1 RES1    0.0000
      3 C3         2.8903    3.6333    1.8691 C.ar      1 RES1    0.0000
      4 C4         3.1039    3.5598    3.1946 C.ar      1 RES1    0.0000
      5 C5         2.1390    2.9855    4.0934 C.ar      1 RES1    0.0000
      6 C6         0.9142    2.4874    3.5056 C.ar      1 RES1    0.0000
      7 C7         2.3238    2.8942    5.4517 C.ar      1 RES1    0.0000
      8 C8         1.3476    2.3208    6.3035 C.ar      1 RES1    0.0000
      9 C9         0.1135    1.8147    5.7214 C.ar      1 RES1    0.0000
     10 C10       -0.0453    1.9208    4.3274 C.ar      1 RES1    0.0000
     11 C11        1.5503    2.2428    7.6775 C.ar      1 RES1    0.0000
     12 H1        -0.0614    2.2673    1.7050 H         1 RES1    0.0000
     13 H2         1.5366    3.1805    0.3339 H         1 RES1    0.0000
     14 H3         3.5675    4.0121    1.2556 H         1 RES1    0.0000
     15 H4         3.9070    3.8908    3.5855 H         1 RES1    0.0000
     16 H5         3.1163    3.2436    5.8569 H         1 RES1    0.0000
     17 H6        -0.8330    1.5885    3.9279 H         1 RES1    0.0000
     18 H7         2.3385    2.5785    8.0841 H         1 RES1    0.0000
     19 C12        6.5464    6.2480    2.8393 C.ar      2 RES2    0.0000
     20 C13        6.3289    6.8693    1.6551 C.ar      2 RES2    0.0000
     21 C14        5.1163    7.5854    1.4482 C.ar      2 RES2    0.0000
     22 C15        4.1610    7.6512    2.4098 C.ar      2 RES2    0.0000
     23 C16        4.3370    7.0068    3.6854 C.ar      2 RES2    0.0000
     24 C17        5.5659    6.2874    3.8823 C.ar      2 RES2    0.0000
     25 C18        3.4069    7.0391    4.6898 C.ar      2 RES2    0.0000
     26 C19        3.6352    6.3587    5.9083 C.ar      2 RES2    0.0000
     27 C20        4.8623    5.6350    6.1195 C.ar      2 RES2    0.0000
     28 C21        5.8070    5.6309    5.0765 C.ar      2 RES2    0.0000
     29 C22        2.6516    6.3894    6.9127 C.ar      2 RES2    0.0000
     30 H8         7.3638    5.7629    2.9791 H         2 RES2    0.0000
     31 H9         6.9961    6.8036    0.9531 H         2 RES2    0.0000
     32 H10        4.9485    8.0366    0.5950 H         2 RES2    0.0000
     33 H11        3.3655    8.1362    2.2443 H         2 RES2    0.0000
     34 H12        2.6023    7.5251    4.5571 H         2 RES2    0.0000
     35 H13        6.6161    5.1560    5.2035 H         2 RES2    0.0000
     36 H14        1.8661    6.8768    6.7601 H         2 RES2    0.0000
     37 C1A       -0.0163    0.9185   12.1690 C.ar      1 RES1    0.0000
     38 C2A       -0.9664    0.3722   12.9708 C.ar      1 RES1    0.0000
     39 C3A       -2.1802   -0.1268   12.3987 C.ar      1 RES1    0.0000
     40 C4A       -2.3938   -0.0533   11.0732 C.ar      1 RES1    0.0000
     41 C5A       -1.4289    0.5210   10.1744 C.ar      1 RES1    0.0000
     42 C6A       -0.2041    1.0191   10.7622 C.ar      1 RES1    0.0000
     43 C7A       -1.6137    0.6123    8.8161 C.ar      1 RES1    0.0000
     44 C8A       -0.6375    1.1857    7.9643 C.ar      1 RES1    0.0000
     45 C9A        0.5966    1.6918    8.5464 C.ar      1 RES1    0.0000
     46 C10A       0.7554    1.5856    9.9404 C.ar      1 RES1    0.0000
     47 C11A      -0.8402    1.2637    6.5903 C.ar      1 RES1    0.0000
     48 H1A        0.7715    1.2392   12.5628 H         1 RES1    0.0000
     49 H2A       -0.8265    0.3260   13.9339 H         1 RES1    0.0000
     50 H3A       -2.8574   -0.5056   13.0122 H         1 RES1    0.0000
     51 H4A       -3.1969   -0.3844   10.6823 H         1 RES1    0.0000
     52 H5A       -2.4062    0.2628    8.4109 H         1 RES1    0.0000
     53 H6A        1.5431    1.9180   10.3399 H         1 RES1    0.0000
     54 H7A       -1.6284    0.9280    6.1837 H         1 RES1    0.0000
     55 C12A       1.1267    5.1166   11.4285 C.ar      2 RES2    0.0000
     56 C13A       1.3442    4.4953   12.6127 C.ar      2 RES2    0.0000
     57 C14A       2.5567    3.7792   12.8196 C.ar      2 RES2    0.0000
     58 C15A       3.5121    3.7134   11.8580 C.ar      2 RES2    0.0000
     59 C16A       3.3361    4.3578   10.5824 C.ar      2 RES2    0.0000
     60 C17A       2.1071    5.0772   10.3855 C.ar      2 RES2    0.0000
     61 C18A       4.2662    4.3255    9.5780 C.ar      2 RES2    0.0000
     62 C19A       4.0378    5.0060    8.3595 C.ar      2 RES2    0.0000
     63 C20A       2.8108    5.7297    8.1483 C.ar      2 RES2    0.0000
     64 C21A       1.8661    5.7337    9.1913 C.ar      2 RES2    0.0000
     65 C22A       5.0214    4.9752    7.3550 C.ar      2 RES2    0.0000
     66 H8A        0.3093    5.6017   11.2887 H         2 RES2    0.0000
     67 H9A        0.6770    4.5610   13.3147 H         2 RES2    0.0000
     68 H10A       2.7245    3.3281   13.6728 H         2 RES2    0.0000
     69 H11A       4.3076    3.2284   12.0235 H         2 RES2    0.0000
     70 H12A       5.0707    3.8395    9.7107 H         2 RES2    0.0000
     71 H13A       1.0570    6.2086    9.0643 H         2 RES2    0.0000
     72 H14A       5.8069    4.4878    7.5077 H         2 RES2    0.0000
@<TRIPOS>BOND
     1    1    2 ar
     2    2    3 ar
     3    3    4 ar
     4    4    5 ar
     5    5    6 ar
     6    6    1 ar
     7    7    5 ar
     8    8    7 ar
     9    9    8 ar
    10   10    6 ar
    11   11    8 ar
    12   12    1 1
    13   13    2 1
    14   14    3 1
    15   15    4 1
    16   16    7 1
    17   17   10 1
    18   18   11 1
    19   19   20 ar
    20   20   21 ar
    21   21   22 ar
    22   22   23 ar
    23   23   24 ar
    24   24   19 ar
    25   25   23 ar
    26   26   25 ar
    27   27   26 ar
    28   28   24 ar
    29   29   26 ar
    30   30   19 1
    31   31   20 1
    32   32   21 1
    33   33   22 1
    34   34   25 1
    35   35   28 1
    36   36   29 1
    37   37   38 ar
    38   38   39 ar
    39   39   40 ar
    40   40   41 ar
    41   41   42 ar
    42   42   37 ar
    43   43   41 ar
    44   44   43 ar
    45   45   11 ar
    46   46   42 ar
    47   47    9 ar
    48   48   37 1
    49   49   38 1
    50   50   39 1
    51   51   40 1
    52   52   43 1
    53   53   46 1
    54   54   47 1
    55   55   56 ar
    56   56   57 ar
    57   57   58 ar
    58   58   59 ar
    59   59   60 ar
    60   60   55 ar
    61   61   59 ar
    62   62   61 ar
    63   63   29 ar
    64   64   60 ar
    65   65   27 ar
    66   66   55 1
    67   67   56 1
    68   68   57 1
    69   69   58 1
    70   70   61 1
    71   71   64 1
    72   72   65 1
    73    9   10 ar
    74   27   28 ar
    75   44   45 ar
    76   44   47 ar
    77   45   46 ar
    78   62   63 ar
    79   62   65 ar
    80   63   64 ar
@<TRIPOS>SUBSTRUCTURE
     1 RES1 1
     2 RES2 19

@<TRIPOS>CRYSIN
   6.2749    7.8882   14.7095  76.0140  87.2330  84.9960   2 1

