# MOL2 file generated by ConQuest
# Please check atom types

@<TRIPOS>MOLECULE
PENCEN03
    72    80     2
SMALL
NO_CHARGES
****
Generated from CSD

@<TRIPOS>ATOM
      1 C1         4.6819    3.1738    0.2105 C.ar      1 RES1    0.0000
      2 C2         3.7086    3.1692    1.2203 C.ar      1 RES1    0.0000
      3 C3         3.8992    2.4951    2.4520 C.ar      1 RES1    0.0000
      4 C4         2.9346    2.5328    3.4506 C.ar      1 RES1    0.0000
      5 C5         3.1177    1.8751    4.6992 C.ar      1 RES1    0.0000
      6 C6         2.1617    1.9377    5.6625 C.ar      1 RES1    0.0000
      7 C7         0.9576    2.6410    5.4393 C.ar      1 RES1    0.0000
      8 C8         0.7307    3.2693    4.2656 C.ar      1 RES1    0.0000
      9 C9         1.7017    3.2563    3.2246 C.ar      1 RES1    0.0000
     10 C10        1.5034    3.9150    2.0226 C.ar      1 RES1    0.0000
     11 C11        4.5003    3.8533   -1.0014 C.ar      1 RES1    0.0000
     12 H1         5.4751    2.7088    0.3501 H         1 RES1    0.0000
     13 H2         4.6846    2.0185    2.5944 H         1 RES1    0.0000
     14 H3         3.8995    1.3965    4.8572 H         1 RES1    0.0000
     15 H4         2.3019    1.5130    6.4779 H         1 RES1    0.0000
     16 H5         0.3134    2.6725    6.1095 H         1 RES1    0.0000
     17 H6        -0.0732    3.7184    4.1360 H         1 RES1    0.0000
     18 H7         0.7115    4.3818    1.8819 H         1 RES1    0.0000
     19 C12       -1.1925   -0.4792   -0.5763 C.ar      2 RES2    0.0000
     20 C13       -1.0072   -0.5717    0.8220 C.ar      2 RES2    0.0000
     21 C14       -1.9878   -1.1439    1.6554 C.ar      2 RES2    0.0000
     22 C15       -1.8097   -1.2437    3.0071 C.ar      2 RES2    0.0000
     23 C16       -2.7939   -1.8172    3.8899 C.ar      2 RES2    0.0000
     24 C17       -2.5888   -1.9139    5.2317 C.ar      2 RES2    0.0000
     25 C18       -1.3554   -1.4333    5.8108 C.ar      2 RES2    0.0000
     26 C19       -0.4104   -0.8787    5.0339 C.ar      2 RES2    0.0000
     27 C20       -0.5996   -0.7549    3.6074 C.ar      2 RES2    0.0000
     28 C21        0.3847   -0.1896    2.8037 C.ar      2 RES2    0.0000
     29 C22       -0.2284    0.0786   -1.4181 C.ar      2 RES2    0.0000
     30 H8        -1.9822   -0.8007   -0.9480 H         2 RES2    0.0000
     31 H9        -2.7760   -1.4616    1.2776 H         2 RES2    0.0000
     32 H10       -3.5933   -2.1306    3.5317 H         2 RES2    0.0000
     33 H11       -3.2430   -2.2890    5.7757 H         2 RES2    0.0000
     34 H12       -1.2151   -1.5084    6.7267 H         2 RES2    0.0000
     35 H13        0.3776   -0.5705    5.4195 H         2 RES2    0.0000
     36 H14        1.1668    0.1232    3.1972 H         2 RES2    0.0000
     37 C11A       2.4861    3.8882    1.0014 C.ar      1 RES1    0.0000
     38 C1A        2.3045    4.5678   -0.2105 C.ar      1 RES1    0.0000
     39 C2A        3.2778    4.5723   -1.2203 C.ar      1 RES1    0.0000
     40 C3A        3.0872    5.2464   -2.4520 C.ar      1 RES1    0.0000
     41 C4A        4.0517    5.2087   -3.4506 C.ar      1 RES1    0.0000
     42 C5A        3.8686    5.8664   -4.6992 C.ar      1 RES1    0.0000
     43 C6A        4.8247    5.8038   -5.6625 C.ar      1 RES1    0.0000
     44 C7A        6.0287    5.1005   -5.4393 C.ar      1 RES1    0.0000
     45 C8A        6.2557    4.4723   -4.2656 C.ar      1 RES1    0.0000
     46 C9A        5.2846    4.4852   -3.2246 C.ar      1 RES1    0.0000
     47 C10A       5.4830    3.8265   -2.0226 C.ar      1 RES1    0.0000
     48 H7A        6.2748    3.3598   -1.8819 H         1 RES1    0.0000
     49 H6A        7.0595    4.0232   -4.1360 H         1 RES1    0.0000
     50 H5A        6.6729    5.0691   -6.1095 H         1 RES1    0.0000
     51 H4A        4.6844    6.2286   -6.4779 H         1 RES1    0.0000
     52 H3A        3.0868    6.3450   -4.8572 H         1 RES1    0.0000
     53 H2A        2.3017    5.7231   -2.5944 H         1 RES1    0.0000
     54 H1A        1.5112    5.0328   -0.3501 H         1 RES1    0.0000
     55 C22A       0.2284   -0.0786    1.4181 C.ar      2 RES2    0.0000
     56 C12A       1.1925    0.4792    0.5763 C.ar      2 RES2    0.0000
     57 C13A       1.0072    0.5717   -0.8220 C.ar      2 RES2    0.0000
     58 C14A       1.9878    1.1439   -1.6554 C.ar      2 RES2    0.0000
     59 C15A       1.8097    1.2437   -3.0071 C.ar      2 RES2    0.0000
     60 C16A       2.7939    1.8172   -3.8899 C.ar      2 RES2    0.0000
     61 C17A       2.5888    1.9139   -5.2317 C.ar      2 RES2    0.0000
     62 C18A       1.3554    1.4333   -5.8108 C.ar      2 RES2    0.0000
     63 C19A       0.4104    0.8787   -5.0339 C.ar      2 RES2    0.0000
     64 C20A       0.5996    0.7549   -3.6074 C.ar      2 RES2    0.0000
     65 C21A      -0.3847    0.1896   -2.8037 C.ar      2 RES2    0.0000
     66 H14A      -1.1668   -0.1232   -3.1972 H         2 RES2    0.0000
     67 H13A      -0.3776    0.5705   -5.4195 H         2 RES2    0.0000
     68 H12A       1.2151    1.5084   -6.7267 H         2 RES2    0.0000
     69 H11A       3.2430    2.2890   -5.7757 H         2 RES2    0.0000
     70 H10A       3.5933    2.1306   -3.5317 H         2 RES2    0.0000
     71 H9A        2.7760    1.4616   -1.2776 H         2 RES2    0.0000
     72 H8A        1.9822    0.8007    0.9480 H         2 RES2    0.0000
@<TRIPOS>BOND
     1    1    2 ar
     2    2    3 ar
     3    3    4 ar
     4    4    5 ar
     5    5    6 ar
     6    6    7 ar
     7    7    8 ar
     8    8    9 ar
     9    9    4 ar
    10   10    9 ar
    11   11    1 ar
    12   12    1 1
    13   13    3 1
    14   14    5 1
    15   15    6 1
    16   16    7 1
    17   17    8 1
    18   18   10 1
    19   19   20 ar
    20   20   21 ar
    21   21   22 ar
    22   22   23 ar
    23   23   24 ar
    24   24   25 ar
    25   25   26 ar
    26   26   27 ar
    27   27   22 ar
    28   28   27 ar
    29   29   19 ar
    30   30   19 1
    31   31   21 1
    32   32   23 1
    33   33   24 1
    34   34   25 1
    35   35   26 1
    36   36   28 1
    37   37    2 ar
    38   38   37 ar
    39   39   11 ar
    40   40   39 ar
    41   41   40 ar
    42   42   41 ar
    43   43   42 ar
    44   44   43 ar
    45   45   44 ar
    46   46   41 ar
    47   47   11 ar
    48   48   47 1
    49   49   45 1
    50   50   44 1
    51   51   43 1
    52   52   42 1
    53   53   40 1
    54   54   38 1
    55   55   20 ar
    56   56   55 ar
    57   57   29 ar
    58   58   57 ar
    59   59   58 ar
    60   60   59 ar
    61   61   60 ar
    62   62   61 ar
    63   63   62 ar
    64   64   59 ar
    65   65   29 ar
    66   66   65 1
    67   67   63 1
    68   68   62 1
    69   69   61 1
    70   70   60 1
    71   71   58 1
    72   72   56 1
    73   10   37 ar
    74   28   55 ar
    75   38   39 ar
    76   45   46 ar
    77   46   47 ar
    78   56   57 ar
    79   63   64 ar
    80   64   65 ar
@<TRIPOS>SUBSTRUCTURE
     1 RES1 1
     2 RES2 19

@<TRIPOS>CRYSIN
   6.2660    7.7750   14.5300  76.4750  87.6820  84.6840   2 1

