# MOL2 file generated by ConQuest
# Please check atom types

@<TRIPOS>MOLECULE
PENCEN06
    72    80     2
SMALL
NO_CHARGES
****
Generated from CSD

@<TRIPOS>ATOM
      1 C1         0.6909    2.5243    1.9832 C.ar      1 RES1    0.0000
      2 C2         1.6744    3.0818    1.2073 C.ar      1 RES1    0.0000
      3 C3         2.8859    3.5580    1.8137 C.ar      1 RES1    0.0000
      4 C4         3.0789    3.4570    3.1503 C.ar      1 RES1    0.0000
      5 C5         2.0775    2.8757    4.0053 C.ar      1 RES1    0.0000
      6 C6         0.8452    2.4002    3.3918 C.ar      1 RES1    0.0000
      7 C7         2.2547    2.7713    5.3744 C.ar      1 RES1    0.0000
      8 C8         1.2577    2.1966    6.2205 C.ar      1 RES1    0.0000
      9 C9         0.0278    1.7202    5.6010 C.ar      1 RES1    0.0000
     10 C10       -0.1381    1.8337    4.2055 C.ar      1 RES1    0.0000
     11 C11        1.4303    2.0932    7.5987 C.ar      1 RES1    0.0000
     12 H1        -0.1265    2.2148    1.5716 H         1 RES1    0.0000
     13 H2         1.5509    3.1555    0.2259 H         1 RES1    0.0000
     14 H3         3.6007    3.9531    1.2587 H         1 RES1    0.0000
     15 H4         3.8789    3.7750    3.5558 H         1 RES1    0.0000
     16 H5         3.0584    3.0902    5.7631 H         1 RES1    0.0000
     17 H6        -0.9477    1.5073    3.8000 H         1 RES1    0.0000
     18 H7         2.2370    2.4062    7.9872 H         1 RES1    0.0000
     19 C12        6.5778    6.0700    2.7682 C.ar      2 RES2    0.0000
     20 C13        6.3726    6.7116    1.5915 C.ar      2 RES2    0.0000
     21 C14        5.1562    7.4351    1.3578 C.ar      2 RES2    0.0000
     22 C15        4.1793    7.4801    2.3132 C.ar      2 RES2    0.0000
     23 C16        4.3553    6.8083    3.5687 C.ar      2 RES2    0.0000
     24 C17        5.5878    6.0830    3.8144 C.ar      2 RES2    0.0000
     25 C18        3.3736    6.8318    4.5650 C.ar      2 RES2    0.0000
     26 C19        3.5451    6.1514    5.7930 C.ar      2 RES2    0.0000
     27 C20        4.7823    5.4195    6.0298 C.ar      2 RES2    0.0000
     28 C21        5.7770    5.4138    5.0142 C.ar      2 RES2    0.0000
     29 C22        2.5556    6.1610    6.7966 C.ar      2 RES2    0.0000
     30 H8         7.3790    5.5976    2.9257 H         2 RES2    0.0000
     31 H9         7.0595    6.6742    0.8840 H         2 RES2    0.0000
     32 H10        5.0120    7.8983    0.4953 H         2 RES2    0.0000
     33 H11        3.3715    7.9682    2.1540 H         2 RES2    0.0000
     34 H12        2.5611    7.3123    4.3935 H         2 RES2    0.0000
     35 H13        6.5885    4.9382    5.1667 H         2 RES2    0.0000
     36 H14        1.7459    6.6429    6.6541 H         2 RES2    0.0000
     37 C1A       -0.2282    0.7217   12.0492 C.ar      1 RES1    0.0000
     38 C2A       -1.2117    0.1641   12.8250 C.ar      1 RES1    0.0000
     39 C3A       -2.4232   -0.3121   12.2187 C.ar      1 RES1    0.0000
     40 C4A       -2.6162   -0.2110   10.8821 C.ar      1 RES1    0.0000
     41 C5A       -1.6148    0.3702   10.0271 C.ar      1 RES1    0.0000
     42 C6A       -0.3825    0.8457   10.6406 C.ar      1 RES1    0.0000
     43 C7A       -1.7920    0.4746    8.6580 C.ar      1 RES1    0.0000
     44 C8A       -0.7950    1.0493    7.8118 C.ar      1 RES1    0.0000
     45 C9A        0.4349    1.5257    8.4313 C.ar      1 RES1    0.0000
     46 C10A       0.6008    1.4122    9.8269 C.ar      1 RES1    0.0000
     47 C11A      -0.9676    1.1527    6.4337 C.ar      1 RES1    0.0000
     48 H1A        0.5892    1.0311   12.4607 H         1 RES1    0.0000
     49 H2A       -1.0882    0.0904   13.8064 H         1 RES1    0.0000
     50 H3A       -3.1380   -0.7072   12.7736 H         1 RES1    0.0000
     51 H4A       -3.4162   -0.5291   10.4765 H         1 RES1    0.0000
     52 H5A       -2.5957    0.1557    8.2693 H         1 RES1    0.0000
     53 H6A        1.4104    1.7386   10.2324 H         1 RES1    0.0000
     54 H7A       -1.7743    0.8397    6.0451 H         1 RES1    0.0000
     55 C12A       0.9326    4.8287   11.2642 C.ar      2 RES2    0.0000
     56 C13A       1.1379    4.1872   12.4408 C.ar      2 RES2    0.0000
     57 C14A       2.3543    3.4637   12.6746 C.ar      2 RES2    0.0000
     58 C15A       3.3311    3.4187   11.7191 C.ar      2 RES2    0.0000
     59 C16A       3.1551    4.0905   10.4636 C.ar      2 RES2    0.0000
     60 C17A       1.9226    4.8158   10.2179 C.ar      2 RES2    0.0000
     61 C18A       4.1368    4.0670    9.4673 C.ar      2 RES2    0.0000
     62 C19A       3.9654    4.7473    8.2394 C.ar      2 RES2    0.0000
     63 C20A       2.7282    5.4793    8.0025 C.ar      2 RES2    0.0000
     64 C21A       1.7335    5.4850    9.0182 C.ar      2 RES2    0.0000
     65 C22A       4.9548    4.7378    7.2358 C.ar      2 RES2    0.0000
     66 H8A        0.1314    5.3012   11.1066 H         2 RES2    0.0000
     67 H9A        0.4510    4.2245   13.1483 H         2 RES2    0.0000
     68 H10A       2.4985    3.0005   13.5370 H         2 RES2    0.0000
     69 H11A       4.1390    2.9306   11.8784 H         2 RES2    0.0000
     70 H12A       4.9493    3.5865    9.6388 H         2 RES2    0.0000
     71 H13A       0.9220    5.9606    8.8656 H         2 RES2    0.0000
     72 H14A       5.7646    4.2559    7.3782 H         2 RES2    0.0000
@<TRIPOS>BOND
     1    1    2 ar
     2    2    3 ar
     3    3    4 ar
     4    4    5 ar
     5    5    6 ar
     6    6    1 ar
     7    7    5 ar
     8    8    7 ar
     9    9    8 ar
    10   10    6 ar
    11   11    8 ar
    12   12    1 1
    13   13    2 1
    14   14    3 1
    15   15    4 1
    16   16    7 1
    17   17   10 1
    18   18   11 1
    19   19   20 ar
    20   20   21 ar
    21   21   22 ar
    22   22   23 ar
    23   23   24 ar
    24   24   19 ar
    25   25   23 ar
    26   26   25 ar
    27   27   26 ar
    28   28   24 ar
    29   29   26 ar
    30   30   19 1
    31   31   20 1
    32   32   21 1
    33   33   22 1
    34   34   25 1
    35   35   28 1
    36   36   29 1
    37   37   38 ar
    38   38   39 ar
    39   39   40 ar
    40   40   41 ar
    41   41   42 ar
    42   42   37 ar
    43   43   41 ar
    44   44   43 ar
    45   45   11 ar
    46   46   42 ar
    47   47    9 ar
    48   48   37 1
    49   49   38 1
    50   50   39 1
    51   51   40 1
    52   52   43 1
    53   53   46 1
    54   54   47 1
    55   55   56 ar
    56   56   57 ar
    57   57   58 ar
    58   58   59 ar
    59   59   60 ar
    60   60   55 ar
    61   61   59 ar
    62   62   61 ar
    63   63   29 ar
    64   64   60 ar
    65   65   27 ar
    66   66   55 1
    67   67   56 1
    68   68   57 1
    69   69   58 1
    70   70   61 1
    71   71   64 1
    72   72   65 1
    73    9   10 ar
    74   27   28 ar
    75   44   45 ar
    76   44   47 ar
    77   45   46 ar
    78   62   63 ar
    79   62   65 ar
    80   63   64 ar
@<TRIPOS>SUBSTRUCTURE
     1 RES1 1
     2 RES2 19

@<TRIPOS>CRYSIN
   6.2920    7.6901   14.4103  76.8610  88.1600  84.3600   2 1

