# MOL2 file generated by ConQuest
# Please check atom types

@<TRIPOS>MOLECULE
PENCEN02
    72    80     2
SMALL
NO_CHARGES
****
Generated from CSD

@<TRIPOS>ATOM
      1 C1         6.5566    6.1419    2.7948 C.ar      1 RES1    0.0000
      2 C2         6.3459    6.7825    1.6148 C.ar      1 RES1    0.0000
      3 C3         5.1212    7.4898    1.4143 C.ar      1 RES1    0.0000
      4 C4         4.1752    7.5361    2.3502 C.ar      1 RES1    0.0000
      5 C5         4.3516    6.8882    3.6248 C.ar      1 RES1    0.0000
      6 C6         5.5860    6.1531    3.8422 C.ar      1 RES1    0.0000
      7 C7         3.4096    6.9158    4.6199 C.ar      1 RES1    0.0000
      8 C8         3.6032    6.2296    5.8437 C.ar      1 RES1    0.0000
      9 C9         4.8392    5.4982    6.0639 C.ar      1 RES1    0.0000
     10 C10        5.8026    5.5001    5.0293 C.ar      1 RES1    0.0000
     11 C11        2.6216    6.2258    6.8304 C.ar      1 RES1    0.0000
     12 H1         7.4178    5.7339    2.9360 H         1 RES1    0.0000
     13 H2         7.0949    6.7849    0.9034 H         1 RES1    0.0000
     14 H3         5.0063    7.8937    0.6070 H         1 RES1    0.0000
     15 H4         3.2221    7.9882    2.2020 H         1 RES1    0.0000
     16 H5         2.5116    7.4209    4.4463 H         1 RES1    0.0000
     17 H6         6.6817    4.9472    5.2368 H         1 RES1    0.0000
     18 H7         1.7738    6.7415    6.7753 H         1 RES1    0.0000
     19 C12       -1.7266    7.5723   10.9549 C.ar      2 RES2    0.0000
     20 C13       -1.5259    7.4607   12.2789 C.ar      2 RES2    0.0000
     21 C14       -0.3227    7.9635   12.8534 C.ar      2 RES2    0.0000
     22 C15        0.6440    8.5082   12.0813 C.ar      2 RES2    0.0000
     23 C16        0.4800    8.6303   10.6697 C.ar      2 RES2    0.0000
     24 C17       -0.7459    8.1555   10.0854 C.ar      2 RES2    0.0000
     25 C18        1.4412    9.2045    9.8680 C.ar      2 RES2    0.0000
     26 C19        1.2699    9.3205    8.4635 C.ar      2 RES2    0.0000
     27 C20        0.0371    8.8247    7.8820 C.ar      2 RES2    0.0000
     28 C21       -0.9503    8.2472    8.7063 C.ar      2 RES2    0.0000
     29 C22        2.2453    9.8874    7.6237 C.ar      2 RES2    0.0000
     30 H8        -2.5791    7.1746   10.5441 H         2 RES2    0.0000
     31 H9        -2.3092    6.9671   12.8025 H         2 RES2    0.0000
     32 H10       -0.1554    7.8794   13.9176 H         2 RES2    0.0000
     33 H11        1.4546    8.9663   12.4355 H         2 RES2    0.0000
     34 H12        2.3030    9.6510   10.2618 H         2 RES2    0.0000
     35 H13       -1.7821    7.8760    8.2433 H         2 RES2    0.0000
     36 H14        3.1062   10.2682    8.0316 H         2 RES2    0.0000
     37 C9A        2.7901    5.5591    8.0513 C.ar      1 RES1    0.0000
     38 C8A        4.0261    4.8277    8.2715 C.ar      1 RES1    0.0000
     39 C7A        4.2198    4.1415    9.4953 C.ar      1 RES1    0.0000
     40 C5A        3.2777    4.1691   10.4905 C.ar      1 RES1    0.0000
     41 C4A        3.4542    3.5212   11.7651 C.ar      1 RES1    0.0000
     42 C3A        2.5081    3.5675   12.7009 C.ar      1 RES1    0.0000
     43 C2A        1.2835    4.2748   12.5005 C.ar      1 RES1    0.0000
     44 C1A        1.0727    4.9154   11.3204 C.ar      1 RES1    0.0000
     45 C6A        2.0434    4.9042   10.2731 C.ar      1 RES1    0.0000
     46 C10A       1.8267    5.5572    9.0860 C.ar      1 RES1    0.0000
     47 H6A        0.9476    6.1101    8.8785 H         1 RES1    0.0000
     48 H1A        0.2115    5.3234   11.1793 H         1 RES1    0.0000
     49 H2A        0.5345    4.2724   13.2119 H         1 RES1    0.0000
     50 H3A        2.6231    3.1636   13.5083 H         1 RES1    0.0000
     51 H4A        4.4073    3.0691   11.9133 H         1 RES1    0.0000
     52 H5A        5.1177    3.6365    9.6690 H         1 RES1    0.0000
     53 C11A       5.0077    4.8315    7.2849 C.ar      1 RES1    0.0000
     54 H7A        5.8555    4.3158    7.3399 H         1 RES1    0.0000
     55 C20A       2.0586    9.9842    6.2333 C.ar      2 RES2    0.0000
     56 C19A       0.8258    9.4883    5.6518 C.ar      2 RES2    0.0000
     57 C18A       0.6545    9.6044    4.2473 C.ar      2 RES2    0.0000
     58 C16A       1.6157   10.1786    3.4455 C.ar      2 RES2    0.0000
     59 C15A       1.4517   10.3007    2.0340 C.ar      2 RES2    0.0000
     60 C14A       2.4184   10.8454    1.2619 C.ar      2 RES2    0.0000
     61 C13A       3.6216   11.3482    1.8364 C.ar      2 RES2    0.0000
     62 C12A       3.8223   11.2366    3.1604 C.ar      2 RES2    0.0000
     63 C17A       2.8416   10.6534    4.0299 C.ar      2 RES2    0.0000
     64 C21A       3.0460   10.5617    5.4090 C.ar      2 RES2    0.0000
     65 H13A       3.8778   10.9329    5.8719 H         2 RES2    0.0000
     66 H8A        4.6748   11.6343    3.5712 H         2 RES2    0.0000
     67 H9A        4.4050   11.8418    1.3127 H         2 RES2    0.0000
     68 H10A       2.2511   10.9295    0.1976 H         2 RES2    0.0000
     69 H11A       0.6411    9.8426    1.6797 H         2 RES2    0.0000
     70 H12A      -0.2073    9.1579    3.8535 H         2 RES2    0.0000
     71 C22A      -0.1496    8.9215    6.4916 C.ar      2 RES2    0.0000
     72 H14A      -1.0105    8.5407    6.0837 H         2 RES2    0.0000
@<TRIPOS>BOND
     1    1    2 ar
     2    2    3 ar
     3    3    4 ar
     4    4    5 ar
     5    5    6 ar
     6    6    1 ar
     7    7    5 ar
     8    8    7 ar
     9    9    8 ar
    10   10    6 ar
    11   11    8 ar
    12   12    1 1
    13   13    2 1
    14   14    3 1
    15   15    4 1
    16   16    7 1
    17   17   10 1
    18   18   11 1
    19   19   20 ar
    20   20   21 ar
    21   21   22 ar
    22   22   23 ar
    23   23   24 ar
    24   24   19 ar
    25   25   23 ar
    26   26   25 ar
    27   27   26 ar
    28   28   24 ar
    29   29   26 ar
    30   30   19 1
    31   31   20 1
    32   32   21 1
    33   33   22 1
    34   34   25 1
    35   35   28 1
    36   36   29 1
    37   37   11 ar
    38   38   37 ar
    39   39   38 ar
    40   40   39 ar
    41   41   40 ar
    42   42   41 ar
    43   43   42 ar
    44   44   43 ar
    45   45   40 ar
    46   46   37 ar
    47   47   46 1
    48   48   44 1
    49   49   43 1
    50   50   42 1
    51   51   41 1
    52   52   39 1
    53   53    9 ar
    54   54   53 1
    55   55   29 ar
    56   56   55 ar
    57   57   56 ar
    58   58   57 ar
    59   59   58 ar
    60   60   59 ar
    61   61   60 ar
    62   62   61 ar
    63   63   58 ar
    64   64   55 ar
    65   65   64 1
    66   66   62 1
    67   67   61 1
    68   68   60 1
    69   69   59 1
    70   70   57 1
    71   71   27 ar
    72   72   71 1
    73    9   10 ar
    74   27   28 ar
    75   38   53 ar
    76   44   45 ar
    77   45   46 ar
    78   56   71 ar
    79   62   63 ar
    80   63   64 ar
@<TRIPOS>SUBSTRUCTURE
     1 RES1 1
     2 RES2 19

@<TRIPOS>CRYSIN
   6.2650    7.7860   14.5110  76.6500  87.5000  84.6100   2 1

