# MOL2 file generated by ConQuest
# Please check atom types

@<TRIPOS>MOLECULE
PENCEN07
    72    80     2
SMALL
NO_CHARGES
****
Generated from CSD

@<TRIPOS>ATOM
      1 C1         1.3116    5.9317   16.2112 C.ar      1 RES1    0.0000
      2 C2         2.2816    6.4840   15.4288 C.ar      1 RES1    0.0000
      3 C3         3.4912    6.9772   16.0155 C.ar      1 RES1    0.0000
      4 C4         3.7014    6.8858   17.3562 C.ar      1 RES1    0.0000
      5 C5         2.7134    6.3049   18.2238 C.ar      1 RES1    0.0000
      6 C6         1.4851    5.8149   17.6247 C.ar      1 RES1    0.0000
      7 C7         2.9000    6.2040   19.5929 C.ar      1 RES1    0.0000
      8 C8         1.9187    5.6360   20.4463 C.ar      1 RES1    0.0000
      9 C9         0.6855    5.1411   19.8494 C.ar      1 RES1    0.0000
     10 C10        0.5145    5.2482   18.4474 C.ar      1 RES1    0.0000
     11 C11        2.1034    5.5391   21.8291 C.ar      1 RES1    0.0000
     12 H1         0.4906    5.6152   15.8086 H         1 RES1    0.0000
     13 H2         2.1259    6.5396   14.4538 H         1 RES1    0.0000
     14 H3         4.1954    7.3785   15.4316 H         1 RES1    0.0000
     15 H4         4.5329    7.2040   17.7459 H         1 RES1    0.0000
     16 H5         3.7171    6.5268   19.9893 H         1 RES1    0.0000
     17 H6        -0.3027    4.9218   18.0591 H         1 RES1    0.0000
     18 H7         2.9270    5.8718   22.2213 H         1 RES1    0.0000
     19 C12        6.9518   10.1814   15.8015 C.ar      2 RES2    0.0000
     20 C13        5.7372   10.8972   15.5790 C.ar      2 RES2    0.0000
     21 C14        4.7784   10.9486   16.5399 C.ar      2 RES2    0.0000
     22 C15        4.9581   10.2879   17.8039 C.ar      2 RES2    0.0000
     23 C16        6.1957    9.5624   18.0247 C.ar      2 RES2    0.0000
     24 C17        7.1769    9.5415   16.9767 C.ar      2 RES2    0.0000
     25 C18        3.9967   10.3166   18.8033 C.ar      2 RES2    0.0000
     26 C19        4.1876    9.6420   20.0320 C.ar      2 RES2    0.0000
     27 C20        5.4274    8.9122   20.2571 C.ar      2 RES2    0.0000
     28 C21        6.4002    8.9043   19.2278 C.ar      2 RES2    0.0000
     29 C22        3.2099    9.6555   21.0423 C.ar      2 RES2    0.0000
     30 H8         7.6437   10.1637   15.1000 H         2 RES2    0.0000
     31 H9         5.5781   11.3587   14.7160 H         2 RES2    0.0000
     32 H10        3.9519   11.4324   16.3911 H         2 RES2    0.0000
     33 H11        8.0012    9.0534   17.1266 H         2 RES2    0.0000
     34 H12        3.1707   10.8053   18.6586 H         2 RES2    0.0000
     35 H13        7.2295    8.4232   19.3813 H         2 RES2    0.0000
     36 H14        2.3863   10.1380   20.8850 H         2 RES2    0.0000
     37 C1A        0.4979    4.1842   26.3041 C.ar      1 RES1    0.0000
     38 C2A       -0.4721    3.6320   27.0865 C.ar      1 RES1    0.0000
     39 C3A       -1.6817    3.1388   26.4998 C.ar      1 RES1    0.0000
     40 C4A       -1.8918    3.2302   25.1592 C.ar      1 RES1    0.0000
     41 C5A       -0.9039    3.8111   24.2916 C.ar      1 RES1    0.0000
     42 C6A        0.3245    4.3011   24.8906 C.ar      1 RES1    0.0000
     43 C7A       -1.0905    3.9120   22.9224 C.ar      1 RES1    0.0000
     44 C8A       -0.1092    4.4800   22.0690 C.ar      1 RES1    0.0000
     45 C9A        1.1240    4.9749   22.6659 C.ar      1 RES1    0.0000
     46 C10A       1.2950    4.8678   24.0679 C.ar      1 RES1    0.0000
     47 C11A      -0.2939    4.5769   20.6863 C.ar      1 RES1    0.0000
     48 H1A        1.3189    4.5008   26.7067 H         1 RES1    0.0000
     49 H2A       -0.3164    3.5764   28.0615 H         1 RES1    0.0000
     50 H3A       -2.3859    2.7375   27.0837 H         1 RES1    0.0000
     51 H4A       -2.7234    2.9120   24.7694 H         1 RES1    0.0000
     52 H5A       -1.9076    3.5892   22.5260 H         1 RES1    0.0000
     53 H6A        2.1122    5.1941   24.4562 H         1 RES1    0.0000
     54 H7A       -1.1175    4.2442   20.2940 H         1 RES1    0.0000
     55 C12A       1.8651    7.7071   26.7138 C.ar      2 RES2    0.0000
     56 C13A       3.0797    6.9913   26.9363 C.ar      2 RES2    0.0000
     57 C14A       4.0385    6.9399   25.9755 C.ar      2 RES2    0.0000
     58 C15A       3.8588    7.6006   24.7115 C.ar      2 RES2    0.0000
     59 C16A       2.6212    8.3261   24.4907 C.ar      2 RES2    0.0000
     60 C17A       1.6400    8.3470   25.5387 C.ar      2 RES2    0.0000
     61 C18A       4.8202    7.5719   23.7121 C.ar      2 RES2    0.0000
     62 C19A       4.6292    8.2465   22.4834 C.ar      2 RES2    0.0000
     63 C20A       3.3895    8.9763   22.2582 C.ar      2 RES2    0.0000
     64 C21A       2.4167    8.9842   23.2875 C.ar      2 RES2    0.0000
     65 C22A       5.6069    8.2330   21.4731 C.ar      2 RES2    0.0000
     66 H8A        1.1732    7.7248   27.4153 H         2 RES2    0.0000
     67 H9A        3.2388    6.5298   27.7994 H         2 RES2    0.0000
     68 H10A       4.8650    6.4561   26.1243 H         2 RES2    0.0000
     69 H11A       0.8157    8.8351   25.3887 H         2 RES2    0.0000
     70 H12A       5.6462    7.0832   23.8568 H         2 RES2    0.0000
     71 H13A       1.5873    9.4653   23.1340 H         2 RES2    0.0000
     72 H14A       6.4306    7.7505   21.6304 H         2 RES2    0.0000
@<TRIPOS>BOND
     1    1    2 ar
     2    2    3 ar
     3    3    4 ar
     4    4    5 ar
     5    5    6 ar
     6    6    1 ar
     7    7    5 ar
     8    8    7 ar
     9    9    8 ar
    10   10    6 ar
    11   11    8 ar
    12   12    1 1
    13   13    2 1
    14   14    3 1
    15   15    4 1
    16   16    7 1
    17   17   10 1
    18   18   11 1
    19   19   20 ar
    20   20   21 ar
    21   21   22 ar
    22   22   23 ar
    23   23   24 ar
    24   24   19 ar
    25   25   22 ar
    26   26   25 ar
    27   27   26 ar
    28   28   23 ar
    29   29   26 ar
    30   30   19 1
    31   31   20 1
    32   32   21 1
    33   33   24 1
    34   34   25 1
    35   35   28 1
    36   36   29 1
    37   37   38 ar
    38   38   39 ar
    39   39   40 ar
    40   40   41 ar
    41   41   42 ar
    42   42   37 ar
    43   43   41 ar
    44   44   43 ar
    45   45   11 ar
    46   46   42 ar
    47   47    9 ar
    48   48   37 1
    49   49   38 1
    50   50   39 1
    51   51   40 1
    52   52   43 1
    53   53   46 1
    54   54   47 1
    55   55   56 ar
    56   56   57 ar
    57   57   58 ar
    58   58   59 ar
    59   59   60 ar
    60   60   55 ar
    61   61   58 ar
    62   62   61 ar
    63   63   29 ar
    64   64   59 ar
    65   65   27 ar
    66   66   55 1
    67   67   56 1
    68   68   57 1
    69   69   60 1
    70   70   61 1
    71   71   64 1
    72   72   65 1
    73    9   10 ar
    74   27   28 ar
    75   44   45 ar
    76   44   47 ar
    77   45   46 ar
    78   62   63 ar
    79   62   65 ar
    80   63   64 ar
@<TRIPOS>SUBSTRUCTURE
     1 RES1 1
     2 RES2 19

@<TRIPOS>CRYSIN
   6.2873    7.8058   14.5799  76.4610  87.6290  84.7070   2 1

