# MOL2 file generated by ConQuest
# Please check atom types

@<TRIPOS>MOLECULE
PERLEN
    20    24     1
SMALL
NO_CHARGES
****
Generated from CSD

@<TRIPOS>ATOM
      1 C1         1.0213    0.9996    0.4243 C.ar      1 RES1    0.0000
      2 C2         0.4453    0.0588    1.3790 C.ar      1 RES1    0.0000
      3 C3         1.8633    1.8992    1.1283 C.ar      1 RES1    0.0000
      4 C4         2.3163    1.9463    2.6038 C.ar      1 RES1    0.0000
      5 C5         1.8731    1.1172    3.3174 C.ar      1 RES1    0.0000
      6 C6         0.9223    0.1176    2.8159 C.ar      1 RES1    0.0000
      7 C7         0.3668   -0.7762    3.5199 C.ar      1 RES1    0.0000
      8 C8        -0.6774   -1.6758    3.1052 C.ar      1 RES1    0.0000
      9 C9        -0.9973   -1.8228    1.6876 C.ar      1 RES1    0.0000
     10 C10        0.4513    0.8820   -0.9354 C.ar      1 RES1    0.0000
     11 C10B      -0.4513   -0.8820    0.9354 C.ar      1 RES1    0.0000
     12 C2B       -0.4453   -0.0588   -1.3790 C.ar      1 RES1    0.0000
     13 C9B        0.9973    1.8228   -1.6876 C.ar      1 RES1    0.0000
     14 C1B       -1.0213   -0.9996   -0.4243 C.ar      1 RES1    0.0000
     15 C6B       -0.9223   -0.1176   -2.8159 C.ar      1 RES1    0.0000
     16 C8B        0.6774    1.6758   -3.1052 C.ar      1 RES1    0.0000
     17 C3B       -1.8633   -1.8992   -1.1283 C.ar      1 RES1    0.0000
     18 C5B       -1.8731   -1.1172   -3.3174 C.ar      1 RES1    0.0000
     19 C7B       -0.3668    0.7762   -3.5199 C.ar      1 RES1    0.0000
     20 C4B       -2.3163   -1.9463   -2.6038 C.ar      1 RES1    0.0000
@<TRIPOS>BOND
     1    1    2 ar
     2    2    6 ar
     3    3    1 ar
     4    4    3 ar
     5    5    4 ar
     6    6    5 ar
     7    7    6 ar
     8    8    7 ar
     9    9    8 ar
    10   10    1 ar
    11   11    2 ar
    12   12   10 ar
    13   13   10 ar
    14   14   11 ar
    15   15   12 ar
    16   16   13 ar
    17   17   14 ar
    18   18   15 ar
    19   19   15 ar
    20   20   17 ar
    21    9   11 ar
    22   12   14 ar
    23   16   19 ar
    24   18   20 ar
@<TRIPOS>SUBSTRUCTURE
     1 RES1 1

@<TRIPOS>CRYSIN
  11.2700    5.8800    9.6500  90.0000  92.1000  90.0000  14 2

