# MOL2 file generated by ConQuest
# Please check atom types

@<TRIPOS>MOLECULE
PERLEN05
    32    36     1
SMALL
NO_CHARGES
****
Generated from CSD

@<TRIPOS>ATOM
      1 C1         8.9692    2.4980    1.5718 C.ar      1 RES1    0.0000
      2 C2         8.5333    3.4699    0.7159 C.ar      1 RES1    0.0000
      3 C3         7.1975    3.4903    0.2842 C.ar      1 RES1    0.0000
      4 C4         4.3879    3.5464   -0.5968 C.ar      1 RES1    0.0000
      5 C5         3.0584    3.5680   -1.0296 C.ar      1 RES1    0.0000
      6 C6         2.1962    2.6188   -0.5837 C.ar      1 RES1    0.0000
      7 C7         1.7396    0.5630    0.7378 C.ar      1 RES1    0.0000
      8 C8         2.1891   -0.4401    1.5335 C.ar      1 RES1    0.0000
      9 C9         3.5230   -0.4692    1.9489 C.ar      1 RES1    0.0000
     10 C10        6.3141   -0.4843    2.8780 C.ar      1 RES1    0.0000
     11 C11        7.6454   -0.4962    3.3065 C.ar      1 RES1    0.0000
     12 C12        8.5152    0.4713    2.8955 C.ar      1 RES1    0.0000
     13 C13        8.0707    1.5025    2.0254 C.ar      1 RES1    0.0000
     14 C14        6.2827    2.5455    0.6952 C.ar      1 RES1    0.0000
     15 C15        4.8756    2.5773    0.2558 C.ar      1 RES1    0.0000
     16 C16        2.6251    1.5801    0.2929 C.ar      1 RES1    0.0000
     17 C17        4.4284    0.5080    1.5762 C.ar      1 RES1    0.0000
     18 C18        5.8343    0.4983    2.0374 C.ar      1 RES1    0.0000
     19 C19        6.7155    1.5241    1.5882 C.ar      1 RES1    0.0000
     20 C20        3.9864    1.5672    0.7149 C.ar      1 RES1    0.0000
     21 H1         9.9828    2.4420    1.9544 H         1 RES1    0.0000
     22 H2         9.1572    4.1742    0.4591 H         1 RES1    0.0000
     23 H3         6.9346    4.2378   -0.2798 H         1 RES1    0.0000
     24 H4         5.0294    4.2044   -0.9608 H         1 RES1    0.0000
     25 H5         2.6984    4.3252   -1.7270 H         1 RES1    0.0000
     26 H6         1.2670    2.5940   -0.8515 H         1 RES1    0.0000
     27 H7         0.8056    0.6213    0.4044 H         1 RES1    0.0000
     28 H8         1.5544   -1.1530    1.8145 H         1 RES1    0.0000
     29 H9         3.8887   -1.1951    2.5370 H         1 RES1    0.0000
     30 H10        5.7663   -1.2436    3.1698 H         1 RES1    0.0000
     31 H11        7.9389   -1.2328    3.9240 H         1 RES1    0.0000
     32 H12        9.5633    0.4757    3.1097 H         1 RES1    0.0000
@<TRIPOS>BOND
     1    1    2 ar
     2    2    3 ar
     3    3   14 ar
     4    4    5 ar
     5    5    6 ar
     6    6   16 ar
     7    7    8 ar
     8    8    9 ar
     9    9   17 ar
    10   10   11 ar
    11   11   12 ar
    12   12   13 ar
    13   13    1 ar
    14   14   15 ar
    15   15    4 ar
    16   16    7 ar
    17   17   18 ar
    18   18   10 ar
    19   19   13 ar
    20   20   15 ar
    21   21    1 1
    22   22    2 1
    23   23    3 1
    24   24    4 1
    25   25    5 1
    26   26    6 1
    27   27    7 1
    28   28    8 1
    29   29    9 1
    30   30   10 1
    31   31   11 1
    32   32   12 1
    33   14   19 ar
    34   16   20 ar
    35   17   20 ar
    36   18   19 ar
@<TRIPOS>SUBSTRUCTURE
     1 RES1 1

@<TRIPOS>CRYSIN
  10.2390   10.7860   11.1320  90.0000 100.9200  90.0000  14 1

