# MOL2 file generated by ConQuest
# Please check atom types

@<TRIPOS>MOLECULE
PERLEN04
    32    36     1
SMALL
NO_CHARGES
****
Generated from CSD

@<TRIPOS>ATOM
      1 C1        -4.1348    7.3413   10.7909 C.ar      1 RES1    0.0000
      2 C2        -5.4573    7.3640   10.3474 C.ar      1 RES1    0.0000
      3 C3        -5.8858    8.3178    9.4925 C.ar      1 RES1    0.0000
      4 C4        -5.0066    9.3194    9.0390 C.ar      1 RES1    0.0000
      5 C5        -5.4409   10.3393    8.1708 C.ar      1 RES1    0.0000
      6 C6        -4.5849   11.3018    7.7539 C.ar      1 RES1    0.0000
      7 C7        -3.2571   11.3018    8.1797 C.ar      1 RES1    0.0000
      8 C8        -2.7641   10.3296    9.0301 C.ar      1 RES1    0.0000
      9 C9        -3.6502    9.3020    9.4770 C.ar      1 RES1    0.0000
     10 C10       -3.2145    8.2821   10.3762 C.ar      1 RES1    0.0000
     11 C11       -1.3284    7.3044   11.6879 C.ar      1 RES1    0.0000
     12 C12        0.0028    7.2892   12.1015 C.ar      1 RES1    0.0000
     13 C13        0.8719    8.2333   11.6635 C.ar      1 RES1    0.0000
     14 C14        0.4432    9.2554   10.7931 C.ar      1 RES1    0.0000
     15 C15        1.3162   10.2710   10.3396 C.ar      1 RES1    0.0000
     16 C16        0.8716   11.2650    9.5269 C.ar      1 RES1    0.0000
     17 C17       -0.4583   11.2932    9.1122 C.ar      1 RES1    0.0000
     18 C18       -1.3615   10.3220    9.4903 C.ar      1 RES1    0.0000
     19 C19       -0.9157    9.2738   10.3574 C.ar      1 RES1    0.0000
     20 C20       -1.8091    8.2647   10.8264 C.ar      1 RES1    0.0000
     21 H1        -3.8665    6.6747   11.3808 H         1 RES1    0.0000
     22 H2        -6.0519    6.7137   10.6457 H         1 RES1    0.0000
     23 H3        -6.7695    8.3124    9.2020 H         1 RES1    0.0000
     24 H4        -6.3248   10.3512    7.8814 H         1 RES1    0.0000
     25 H5        -4.8857   11.9684    7.1784 H         1 RES1    0.0000
     26 H6        -2.6865   11.9749    7.8836 H         1 RES1    0.0000
     27 H7        -1.9068    6.6486   12.0039 H         1 RES1    0.0000
     28 H8         0.2974    6.6259   12.6825 H         1 RES1    0.0000
     29 H9         1.7590    8.2062   11.9407 H         1 RES1    0.0000
     30 H10        2.2079   10.2591   10.6035 H         1 RES1    0.0000
     31 H11        1.4580   11.9294    9.2452 H         1 RES1    0.0000
     32 H12       -0.7459   11.9879    8.5655 H         1 RES1    0.0000
@<TRIPOS>BOND
     1    1    2 ar
     2    2    3 ar
     3    3    4 ar
     4    4    5 ar
     5    5    6 ar
     6    6    7 ar
     7    7    8 ar
     8    8    9 ar
     9    9    4 ar
    10   10    1 ar
    11   11   12 ar
    12   12   13 ar
    13   13   14 ar
    14   14   15 ar
    15   15   16 ar
    16   16   17 ar
    17   17   18 ar
    18   18    8 ar
    19   19   14 ar
    20   20   10 ar
    21   21    1 1
    22   22    2 1
    23   23    3 1
    24   24    5 1
    25   25    6 1
    26   26    7 1
    27   27   11 1
    28   28   12 1
    29   29   13 1
    30   30   15 1
    31   31   16 1
    32   32   17 1
    33    9   10 ar
    34   11   20 ar
    35   18   19 ar
    36   19   20 ar
@<TRIPOS>SUBSTRUCTURE
     1 RES1 1

@<TRIPOS>CRYSIN
  10.2700   10.8390   11.2780  90.0000 100.5300  90.0000  14 1

