# MOL2 file generated by ConQuest
# Please check atom types

@<TRIPOS>MOLECULE
PERLEN03
    20    24     1
SMALL
NO_CHARGES
****
Generated from CSD

@<TRIPOS>ATOM
      1 C1         0.8670   -2.5170    4.0602 C.ar      1 RES1    0.0000
      2 C2         0.0987   -3.4741    3.4799 C.ar      1 RES1    0.0000
      3 C3        -0.0887   -3.4936    2.0972 C.ar      1 RES1    0.0000
      4 C4        -0.4614   -3.5379   -0.8306 C.ar      1 RES1    0.0000
      5 C5        -0.6241   -3.5488   -2.2133 C.ar      1 RES1    0.0000
      6 C6        -0.0273   -2.6026   -2.9924 C.ar      1 RES1    0.0000
      7 C7         1.3524   -0.5640   -3.1852 C.ar      1 RES1    0.0000
      8 C8         2.0675    0.4276   -2.5978 C.ar      1 RES1    0.0000
      9 C9         2.2336    0.4590   -1.2151 C.ar      1 RES1    0.0000
     10 C10        2.6405    0.4623    1.7107 C.ar      1 RES1    0.0000
     11 C11        2.8098    0.4612    3.0933 C.ar      1 RES1    0.0000
     12 C12        2.2412   -0.5023    3.8664 C.ar      1 RES1    0.0000
     13 C13        1.4731   -1.5189    3.2730 C.ar      1 RES1    0.0000
     14 C14        0.4889   -2.5528    1.2636 C.ar      1 RES1    0.0000
     15 C15        0.3034   -2.5733   -0.1958 C.ar      1 RES1    0.0000
     16 C16        0.7562   -1.5849   -2.4030 C.ar      1 RES1    0.0000
     17 C17        1.8915   -0.5077    1.0627 C.ar      1 RES1    0.0000
     18 C18        1.6991   -0.5175   -0.3956 C.ar      1 RES1    0.0000
     19 C19        1.2910   -1.5319    1.8560 C.ar      1 RES1    0.0000
     20 C20        0.9280   -1.5611   -0.9911 C.ar      1 RES1    0.0000
@<TRIPOS>BOND
     1    1    2 ar
     2    2    3 ar
     3    3   14 ar
     4    4    5 ar
     5    5    6 ar
     6    6   16 ar
     7    7    8 ar
     8    8    9 ar
     9    9   18 ar
    10   10   11 ar
    11   11   12 ar
    12   12   13 ar
    13   13    1 ar
    14   14   15 ar
    15   15    4 ar
    16   16    7 ar
    17   17   10 ar
    18   18   17 ar
    19   19   13 ar
    20   20   15 ar
    21   14   19 ar
    22   16   20 ar
    23   17   19 ar
    24   18   20 ar
@<TRIPOS>SUBSTRUCTURE
     1 RES1 1

@<TRIPOS>CRYSIN
  11.2640   10.8260   10.2660  90.0000 100.5500  90.0000  14 2

