# MOL2 file generated by ConQuest
# Please check atom types

@<TRIPOS>MOLECULE
PERLEN01
    32    36     1
SMALL
NO_CHARGES
****
Generated from CSD

@<TRIPOS>ATOM
      1 C1         2.2420   -0.5132    3.8502 C.ar      1 RES1    0.0000
      2 C2         1.8968   -0.5045    1.0594 C.ar      1 RES1    0.0000
      3 C3        -0.0270   -2.5842   -2.9855 C.ar      1 RES1    0.0000
      4 C4        -0.6278   -3.5444   -2.2177 C.ar      1 RES1    0.0000
      5 C5        -0.4669   -3.5563   -0.8051 C.ar      1 RES1    0.0000
      6 C6        -0.0933   -3.4990    2.0754 C.ar      1 RES1    0.0000
      7 C7         0.1005   -3.4827    3.4809 C.ar      1 RES1    0.0000
      8 C8         0.8807   -2.5105    4.0570 C.ar      1 RES1    0.0000
      9 C9         1.4675   -1.5362    3.2680 C.ar      1 RES1    0.0000
     10 C10        1.2913   -1.5200    1.8585 C.ar      1 RES1    0.0000
     11 C11        0.5002   -2.5474    1.2622 C.ar      1 RES1    0.0000
     12 C12        2.8119    0.4677    3.0975 C.ar      1 RES1    0.0000
     13 C13        0.3248   -2.5614   -0.2058 C.ar      1 RES1    0.0000
     14 C14        2.6564    0.4839    1.6981 C.ar      1 RES1    0.0000
     15 C15        2.2480    0.4634   -1.1956 C.ar      1 RES1    0.0000
     16 C16        2.0831    0.4179   -2.6051 C.ar      1 RES1    0.0000
     17 C17        1.3499   -0.5738   -3.2034 C.ar      1 RES1    0.0000
     18 C18        0.7506   -1.5763   -2.4195 C.ar      1 RES1    0.0000
     19 C19        0.9213   -1.5719   -1.0049 C.ar      1 RES1    0.0000
     20 C20        1.7032   -0.5337   -0.3895 C.ar      1 RES1    0.0000
     21 H1         2.3439   -0.4980    4.9741 H         1 RES1    0.0000
     22 H2        -0.1242   -2.5549   -4.0560 H         1 RES1    0.0000
     23 H3        -1.2255   -4.3304   -2.6838 H         1 RES1    0.0000
     24 H4        -0.9398   -4.3304   -0.1614 H         1 RES1    0.0000
     25 H5        -0.7198   -4.2546    1.6244 H         1 RES1    0.0000
     26 H6        -0.4020   -4.3196    4.1569 H         1 RES1    0.0000
     27 H7         1.0565   -2.5116    5.1658 H         1 RES1    0.0000
     28 H8         3.3475    1.2342    3.7028 H         1 RES1    0.0000
     29 H9         3.1463    1.2991    1.0897 H         1 RES1    0.0000
     30 H10        2.8718    1.2342   -0.7063 H         1 RES1    0.0000
     31 H11        2.5616    1.2017   -3.2791 H         1 RES1    0.0000
     32 H12        1.2234   -0.6820   -4.2679 H         1 RES1    0.0000
@<TRIPOS>BOND
     1    1    9 ar
     2    2   10 ar
     3    3    4 ar
     4    4    5 ar
     5    5   13 ar
     6    6    7 ar
     7    7    8 ar
     8    8    9 ar
     9    9   10 ar
    10   10   11 ar
    11   11    6 ar
    12   12    1 ar
    13   13   11 ar
    14   14    2 ar
    15   15   16 ar
    16   16   17 ar
    17   17   18 ar
    18   18    3 ar
    19   19   13 ar
    20   20    2 ar
    21   21    1 1
    22   22    3 1
    23   23    4 1
    24   24    5 1
    25   25    6 1
    26   26    7 1
    27   27    8 1
    28   28   12 1
    29   29   14 1
    30   30   15 1
    31   31   16 1
    32   32   17 1
    33   12   14 ar
    34   15   20 ar
    35   18   19 ar
    36   19   20 ar
@<TRIPOS>SUBSTRUCTURE
     1 RES1 1

@<TRIPOS>CRYSIN
  11.2770   10.8260   10.2630  90.0000 100.5500  90.0000  14 2

