# MOL2 file generated by ConQuest
# Please check atom types

@<TRIPOS>MOLECULE
PEVNUC02
    70    79     1
SMALL
NO_CHARGES
****
Generated from CSD

@<TRIPOS>ATOM
      1 C1         6.9821    3.5386   20.4958 C.ar      1 RES1    0.0000
      2 C2         7.1932    4.9022   20.5501 C.ar      1 RES1    0.0000
      3 C3         8.3434    5.4423   21.3033 C.ar      1 RES1    0.0000
      4 C4         9.2157    4.6446   21.9520 C.ar      1 RES1    0.0000
      5 C5         8.9785    3.3023   21.8847 C.ar      1 RES1    0.0000
      6 C6         9.9107    2.4760   22.5556 C.ar      1 RES1    0.0000
      7 C7         9.7307    1.1346   22.5047 C.ar      1 RES1    0.0000
      8 C8         8.6410    0.5872   21.7918 C.ar      1 RES1    0.0000
      9 C9         7.7328    1.3913   21.1322 C.ar      1 RES1    0.0000
     10 C10        7.9024    2.7631   21.1888 C.ar      1 RES1    0.0000
     11 C11       10.4755    4.8246   22.7644 C.3       1 RES1    0.0000
     12 C12       10.9359    3.4066   23.1574 C.3       1 RES1    0.0000
     13 C13        5.9328    2.6431   19.8051 C.3       1 RES1    0.0000
     14 C14        5.9763    2.8250   18.2798 C.ar      1 RES1    0.0000
     15 C15        6.8620    3.7279   17.6960 C.ar      1 RES1    0.0000
     16 C16        7.0257    3.8414   16.3391 C.ar      1 RES1    0.0000
     17 C17        6.3130    3.0115   15.5049 C.ar      1 RES1    0.0000
     18 C18        5.4369    2.1261   16.0251 C.ar      1 RES1    0.0000
     19 C19        5.2155    2.0255   17.4185 C.ar      1 RES1    0.0000
     20 C20        4.1992    1.0765   17.8358 C.2       1 RES1    0.0000
     21 C21        3.4267    1.1198   18.9225 C.2       1 RES1    0.0000
     22 C22        3.4049    2.1455   19.9639 C.ar      1 RES1    0.0000
     23 C23        2.1874    2.3468   20.6209 C.ar      1 RES1    0.0000
     24 C24        2.0254    3.3171   21.5735 C.ar      1 RES1    0.0000
     25 C25        3.0866    4.1212   21.9005 C.ar      1 RES1    0.0000
     26 C26        4.3053    3.9144   21.2938 C.ar      1 RES1    0.0000
     27 C27        4.5171    2.9210   20.3396 C.ar      1 RES1    0.0000
     28 C28        6.5068    1.0386   20.2905 C.3       1 RES1    0.0000
     29 C29        7.0655    0.2862   19.0695 C.ar      1 RES1    0.0000
     30 C30        8.1901    0.8890   18.4836 C.ar      1 RES1    0.0000
     31 C31        8.8167    0.4127   17.3621 C.ar      1 RES1    0.0000
     32 C32        8.3641   -0.7247   16.7750 C.ar      1 RES1    0.0000
     33 C33        7.2917   -1.3553   17.3066 C.ar      1 RES1    0.0000
     34 C34        6.5962   -0.8798   18.4559 C.ar      1 RES1    0.0000
     35 C35        5.4739   -1.6691   18.8446 C.2       1 RES1    0.0000
     36 C36        4.7208   -1.6442   19.9158 C.2       1 RES1    0.0000
     37 C37        4.7425   -0.7810   21.0952 C.ar      1 RES1    0.0000
     38 C38        3.8987   -1.1725   22.1413 C.ar      1 RES1    0.0000
     39 C39        3.7553   -0.4838   23.2908 C.ar      1 RES1    0.0000
     40 C40        4.4821    0.6749   23.4508 C.ar      1 RES1    0.0000
     41 C41        5.3476    1.0838   22.4592 C.ar      1 RES1    0.0000
     42 C42        5.5129    0.3914   21.2635 C.ar      1 RES1    0.0000
     43 H1         6.6104    5.4810   20.1125 H         1 RES1    0.0000
     44 H2         8.4701    6.3636   21.3308 H         1 RES1    0.0000
     45 H3        10.3262    0.5705   22.9424 H         1 RES1    0.0000
     46 H4         8.5330   -0.3360   21.7669 H         1 RES1    0.0000
     47 H5        10.2974    5.3555   23.5563 H         1 RES1    0.0000
     48 H6        11.1583    5.2696   22.2385 H         1 RES1    0.0000
     49 H7        11.8187    3.2210   22.8002 H         1 RES1    0.0000
     50 H8        10.9620    3.3087   24.1227 H         1 RES1    0.0000
     51 H9         7.3648    4.2790   18.2520 H         1 RES1    0.0000
     52 H10        7.6113    4.4720   15.9862 H         1 RES1    0.0000
     53 H11        6.4350    3.0613   14.5831 H         1 RES1    0.0000
     54 H12        4.9654    1.5657   15.4506 H         1 RES1    0.0000
     55 H13        4.0703    0.3453   17.2756 H         1 RES1    0.0000
     56 H14        2.8313    0.4145   19.0294 H         1 RES1    0.0000
     57 H15        1.4643    1.8049   20.4041 H         1 RES1    0.0000
     58 H16        1.2028    3.4297   21.9944 H         1 RES1    0.0000
     59 H17        2.9851    4.7997   22.5277 H         1 RES1    0.0000
     60 H18        5.0185    4.4627   21.5299 H         1 RES1    0.0000
     61 H19        8.5309    1.6581   18.8801 H         1 RES1    0.0000
     62 H20        9.5461    0.8660   17.0054 H         1 RES1    0.0000
     63 H21        8.7850   -1.0654   16.0194 H         1 RES1    0.0000
     64 H22        6.9946   -2.1381   16.9011 H         1 RES1    0.0000
     65 H23        5.2327   -2.3200   18.2260 H         1 RES1    0.0000
     66 H24        4.0528   -2.2914   19.9277 H         1 RES1    0.0000
     67 H25        3.4086   -1.9553   22.0371 H         1 RES1    0.0000
     68 H26        3.1812   -0.7838   23.9592 H         1 RES1    0.0000
     69 H27        4.3890    1.1808   24.2246 H         1 RES1    0.0000
     70 H28        5.8446    1.8575   22.5964 H         1 RES1    0.0000
@<TRIPOS>BOND
     1    1    2 ar
     2    2    3 ar
     3    3    4 ar
     4    4    5 ar
     5    5    6 ar
     6    6    7 ar
     7    7    8 ar
     8    8    9 ar
     9    9   10 ar
    10   10    1 ar
    11   11    4 1
    12   12    6 1
    13   13    1 1
    14   14   13 1
    15   15   14 ar
    16   16   15 ar
    17   17   16 ar
    18   18   17 ar
    19   19   14 ar
    20   20   19 1
    21   21   20 2
    22   22   21 1
    23   23   22 ar
    24   24   23 ar
    25   25   24 ar
    26   26   25 ar
    27   27   13 1
    28   28    9 1
    29   29   28 1
    30   30   29 ar
    31   31   30 ar
    32   32   31 ar
    33   33   32 ar
    34   34   29 ar
    35   35   34 1
    36   36   35 2
    37   37   36 1
    38   38   37 ar
    39   39   38 ar
    40   40   39 ar
    41   41   40 ar
    42   42   28 1
    43   43    2 1
    44   44    3 1
    45   45    7 1
    46   46    8 1
    47   47   11 1
    48   48   11 1
    49   49   12 1
    50   50   12 1
    51   51   15 1
    52   52   16 1
    53   53   17 1
    54   54   18 1
    55   55   20 1
    56   56   21 1
    57   57   23 1
    58   58   24 1
    59   59   25 1
    60   60   26 1
    61   61   30 1
    62   62   31 1
    63   63   32 1
    64   64   33 1
    65   65   35 1
    66   66   36 1
    67   67   38 1
    68   68   39 1
    69   69   40 1
    70   70   41 1
    71    5   10 ar
    72   11   12 1
    73   13   28 1
    74   18   19 ar
    75   22   27 ar
    76   26   27 ar
    77   33   34 ar
    78   37   42 ar
    79   41   42 ar
@<TRIPOS>SUBSTRUCTURE
     1 RES1 1

@<TRIPOS>CRYSIN
  12.7800    9.2320   24.0740  90.0000 100.1010  90.0000  14 1

