# MOL2 file generated by ConQuest
# Please check atom types

@<TRIPOS>MOLECULE
PEVNUC01
    70    79     1
SMALL
NO_CHARGES
****
Generated from CSD

@<TRIPOS>ATOM
      1 C1         6.9711    3.5368   20.5091 C.ar      1 RES1    0.0000
      2 C2         7.1815    4.9028   20.5672 C.ar      1 RES1    0.0000
      3 C3         8.3290    5.4436   21.3161 C.ar      1 RES1    0.0000
      4 C4         9.2020    4.6416   21.9696 C.ar      1 RES1    0.0000
      5 C5         8.9643    3.2996   21.9039 C.ar      1 RES1    0.0000
      6 C6         9.8963    2.4735   22.5691 C.ar      1 RES1    0.0000
      7 C7         9.7134    1.1334   22.5209 C.ar      1 RES1    0.0000
      8 C8         8.6262    0.5852   21.8102 C.ar      1 RES1    0.0000
      9 C9         7.7197    1.3891   21.1453 C.ar      1 RES1    0.0000
     10 C10        7.8898    2.7606   21.2010 C.ar      1 RES1    0.0000
     11 C11       10.4686    4.8169   22.7891 C.3       1 RES1    0.0000
     12 C12       10.9249    3.4030   23.1769 C.3       1 RES1    0.0000
     13 C13        5.9223    2.6434   19.8164 C.3       1 RES1    0.0000
     14 C14        5.9653    2.8261   18.2871 C.ar      1 RES1    0.0000
     15 C15        6.8532    3.7334   17.7075 C.ar      1 RES1    0.0000
     16 C16        7.0256    3.8524   16.3521 C.ar      1 RES1    0.0000
     17 C17        6.3143    3.0282   15.5169 C.ar      1 RES1    0.0000
     18 C18        5.4279    2.1219   16.0314 C.ar      1 RES1    0.0000
     19 C19        5.2010    2.0259   17.4270 C.ar      1 RES1    0.0000
     20 C20        4.1891    1.0789   17.8417 C.2       1 RES1    0.0000
     21 C21        3.4150    1.1214   18.9309 C.2       1 RES1    0.0000
     22 C22        3.3929    2.1431   19.9660 C.ar      1 RES1    0.0000
     23 C23        2.1691    2.3452   20.6314 C.ar      1 RES1    0.0000
     24 C24        2.0065    3.3171   21.5800 C.ar      1 RES1    0.0000
     25 C25        3.0714    4.1210   21.9120 C.ar      1 RES1    0.0000
     26 C26        4.2886    3.9124   21.3047 C.ar      1 RES1    0.0000
     27 C27        4.5028    2.9202   20.3454 C.ar      1 RES1    0.0000
     28 C28        6.4951    1.0383   20.3002 C.3       1 RES1    0.0000
     29 C29        7.0577    0.2861   19.0782 C.ar      1 RES1    0.0000
     30 C30        8.1815    0.8925   18.4970 C.ar      1 RES1    0.0000
     31 C31        8.8082    0.4181   17.3687 C.ar      1 RES1    0.0000
     32 C32        8.3660   -0.7227   16.7813 C.ar      1 RES1    0.0000
     33 C33        7.2843   -1.3503   17.3075 C.ar      1 RES1    0.0000
     34 C34        6.5875   -0.8796   18.4628 C.ar      1 RES1    0.0000
     35 C35        5.4638   -1.6715   18.8520 C.2       1 RES1    0.0000
     36 C36        4.7063   -1.6475   19.9250 C.2       1 RES1    0.0000
     37 C37        4.7283   -0.7836   21.0984 C.ar      1 RES1    0.0000
     38 C38        3.8813   -1.1777   22.1392 C.ar      1 RES1    0.0000
     39 C39        3.7371   -0.4947   23.2943 C.ar      1 RES1    0.0000
     40 C40        4.4595    0.6682   23.4602 C.ar      1 RES1    0.0000
     41 C41        5.3297    1.0789   22.4714 C.ar      1 RES1    0.0000
     42 C42        5.4994    0.3895   21.2722 C.ar      1 RES1    0.0000
     43 H1         6.5967    5.4805   20.1330 H         1 RES1    0.0000
     44 H2         8.4578    6.3638   21.3400 H         1 RES1    0.0000
     45 H3        10.3089    0.5695   22.9597 H         1 RES1    0.0000
     46 H4         8.5169   -0.3378   21.7882 H         1 RES1    0.0000
     47 H5        10.2906    5.3458   23.5833 H         1 RES1    0.0000
     48 H6        11.1531    5.2636   22.2672 H         1 RES1    0.0000
     49 H7        11.8075    3.2174   22.8197 H         1 RES1    0.0000
     50 H8        10.9493    3.3033   24.1406 H         1 RES1    0.0000
     51 H9         7.3517    4.2844   18.2667 H         1 RES1    0.0000
     52 H10        7.6161    4.4810   16.0044 H         1 RES1    0.0000
     53 H11        6.4345    3.0864   14.5958 H         1 RES1    0.0000
     54 H12        4.9646    1.5580   15.4542 H         1 RES1    0.0000
     55 H13        4.0620    0.3489   17.2802 H         1 RES1    0.0000
     56 H14        2.8208    0.4153   19.0398 H         1 RES1    0.0000
     57 H15        1.4468    1.7988   20.4199 H         1 RES1    0.0000
     58 H16        1.1823    3.4334   21.9969 H         1 RES1    0.0000
     59 H17        2.9691    4.7994   22.5399 H         1 RES1    0.0000
     60 H18        5.0022    4.4579   21.5439 H         1 RES1    0.0000
     61 H19        8.5229    1.6586   18.8975 H         1 RES1    0.0000
     62 H20        9.5338    0.8768   17.0099 H         1 RES1    0.0000
     63 H21        8.7968   -1.0669   16.0329 H         1 RES1    0.0000
     64 H22        6.9806   -2.1265   16.8960 H         1 RES1    0.0000
     65 H23        5.2267   -2.3231   18.2335 H         1 RES1    0.0000
     66 H24        4.0387   -2.2945   19.9385 H         1 RES1    0.0000
     67 H25        3.3866   -1.9567   22.0301 H         1 RES1    0.0000
     68 H26        3.1659   -0.8011   23.9627 H         1 RES1    0.0000
     69 H27        4.3603    1.1740   24.2355 H         1 RES1    0.0000
     70 H28        5.8267    1.8524   22.6111 H         1 RES1    0.0000
@<TRIPOS>BOND
     1    1    2 ar
     2    2    3 ar
     3    3    4 ar
     4    4    5 ar
     5    5    6 ar
     6    6    7 ar
     7    7    8 ar
     8    8    9 ar
     9    9   10 ar
    10   10    1 ar
    11   11    4 1
    12   12    6 1
    13   13    1 1
    14   14   13 1
    15   15   14 ar
    16   16   15 ar
    17   17   16 ar
    18   18   17 ar
    19   19   14 ar
    20   20   19 1
    21   21   20 2
    22   22   21 1
    23   23   22 ar
    24   24   23 ar
    25   25   24 ar
    26   26   25 ar
    27   27   13 1
    28   28    9 1
    29   29   28 1
    30   30   29 ar
    31   31   30 ar
    32   32   31 ar
    33   33   32 ar
    34   34   29 ar
    35   35   34 1
    36   36   35 2
    37   37   36 1
    38   38   37 ar
    39   39   38 ar
    40   40   39 ar
    41   41   40 ar
    42   42   28 1
    43   43    2 1
    44   44    3 1
    45   45    7 1
    46   46    8 1
    47   47   11 1
    48   48   11 1
    49   49   12 1
    50   50   12 1
    51   51   15 1
    52   52   16 1
    53   53   17 1
    54   54   18 1
    55   55   20 1
    56   56   21 1
    57   57   23 1
    58   58   24 1
    59   59   25 1
    60   60   26 1
    61   61   30 1
    62   62   31 1
    63   63   32 1
    64   64   33 1
    65   65   35 1
    66   66   36 1
    67   67   38 1
    68   68   39 1
    69   69   40 1
    70   70   41 1
    71    5   10 ar
    72   11   12 1
    73   13   28 1
    74   18   19 ar
    75   22   27 ar
    76   26   27 ar
    77   33   34 ar
    78   37   42 ar
    79   41   42 ar
@<TRIPOS>SUBSTRUCTURE
     1 RES1 1

@<TRIPOS>CRYSIN
  12.7910    9.2296   24.0910  90.0000 100.1530  90.0000  14 1

