# MOL2 file generated by ConQuest
# Please check atom types

@<TRIPOS>MOLECULE
PEVNUC05
    70    79     1
SMALL
NO_CHARGES
****
Generated from CSD

@<TRIPOS>ATOM
      1 C1         6.9643    3.5352   20.5037 C.ar      1 RES1    0.0000
      2 C2         7.1718    4.9010   20.5587 C.ar      1 RES1    0.0000
      3 C3         8.3205    5.4473   21.3104 C.ar      1 RES1    0.0000
      4 C4         9.1935    4.6398   21.9664 C.ar      1 RES1    0.0000
      5 C5         8.9580    3.2926   21.9038 C.ar      1 RES1    0.0000
      6 C6         9.8842    2.4722   22.5668 C.ar      1 RES1    0.0000
      7 C7         9.7070    1.1360   22.5178 C.ar      1 RES1    0.0000
      8 C8         8.6176    0.5823   21.8042 C.ar      1 RES1    0.0000
      9 C9         7.7121    1.3870   21.1411 C.ar      1 RES1    0.0000
     10 C10        7.8804    2.7536   21.1992 C.ar      1 RES1    0.0000
     11 C11       10.4600    4.8179   22.7878 C.3       1 RES1    0.0000
     12 C12       10.9192    3.4005   23.1782 C.3       1 RES1    0.0000
     13 C13        5.9186    2.6465   19.8091 C.3       1 RES1    0.0000
     14 C14        5.9666    2.8302   18.2826 C.ar      1 RES1    0.0000
     15 C15        6.8480    3.7355   17.7009 C.ar      1 RES1    0.0000
     16 C16        7.0248    3.8601   16.3503 C.ar      1 RES1    0.0000
     17 C17        6.3147    3.0323   15.5054 C.ar      1 RES1    0.0000
     18 C18        5.4300    2.1363   16.0201 C.ar      1 RES1    0.0000
     19 C19        5.2025    2.0292   17.4180 C.ar      1 RES1    0.0000
     20 C20        4.1909    1.0815   17.8275 C.2       1 RES1    0.0000
     21 C21        3.4136    1.1212   18.9149 C.2       1 RES1    0.0000
     22 C22        3.3876    2.1437   19.9537 C.ar      1 RES1    0.0000
     23 C23        2.1616    2.3402   20.6134 C.ar      1 RES1    0.0000
     24 C24        1.9981    3.3101   21.5619 C.ar      1 RES1    0.0000
     25 C25        3.0619    4.1175   21.8955 C.ar      1 RES1    0.0000
     26 C26        4.2792    3.9108   21.2931 C.ar      1 RES1    0.0000
     27 C27        4.4965    2.9216   20.3363 C.ar      1 RES1    0.0000
     28 C28        6.4910    1.0383   20.2894 C.3       1 RES1    0.0000
     29 C29        7.0527    0.2935   19.0664 C.ar      1 RES1    0.0000
     30 C30        8.1749    0.8988   18.4855 C.ar      1 RES1    0.0000
     31 C31        8.8071    0.4319   17.3607 C.ar      1 RES1    0.0000
     32 C32        8.3679   -0.7023   16.7730 C.ar      1 RES1    0.0000
     33 C33        7.2894   -1.3436   17.2917 C.ar      1 RES1    0.0000
     34 C34        6.5886   -0.8776   18.4495 C.ar      1 RES1    0.0000
     35 C35        5.4670   -1.6675   18.8312 C.2       1 RES1    0.0000
     36 C36        4.7062   -1.6490   19.9022 C.2       1 RES1    0.0000
     37 C37        4.7231   -0.7927   21.0759 C.ar      1 RES1    0.0000
     38 C38        3.8744   -1.1886   22.1193 C.ar      1 RES1    0.0000
     39 C39        3.7255   -0.5066   23.2709 C.ar      1 RES1    0.0000
     40 C40        4.4441    0.6626   23.4411 C.ar      1 RES1    0.0000
     41 C41        5.3163    1.0704   22.4531 C.ar      1 RES1    0.0000
     42 C42        5.4932    0.3857   21.2549 C.ar      1 RES1    0.0000
     43 H1         6.5743    5.4888   20.1125 H         1 RES1    0.0000
     44 H2         8.4527    6.3885   21.3358 H         1 RES1    0.0000
     45 H3        10.3167    0.5620   22.9668 H         1 RES1    0.0000
     46 H4         8.5070   -0.3608   21.7815 H         1 RES1    0.0000
     47 H5        10.2753    5.3578   23.5974 H         1 RES1    0.0000
     48 H6        11.1578    5.2738   22.2532 H         1 RES1    0.0000
     49 H7        11.8207    3.2104   22.8127 H         1 RES1    0.0000
     50 H8        10.9463    3.2981   24.1616 H         1 RES1    0.0000
     51 H9         7.3552    4.2984   18.2729 H         1 RES1    0.0000
     52 H10        7.6271    4.5060   15.9995 H         1 RES1    0.0000
     53 H11        6.4436    3.0877   14.5652 H         1 RES1    0.0000
     54 H12        4.9519    1.5669   15.4281 H         1 RES1    0.0000
     55 H13        4.0624    0.3359   17.2535 H         1 RES1    0.0000
     56 H14        2.8061    0.3986   19.0220 H         1 RES1    0.0000
     57 H15        1.4255    1.7819   20.3923 H         1 RES1    0.0000
     58 H16        1.1562    3.4264   21.9877 H         1 RES1    0.0000
     59 H17        2.9562    4.8106   22.5353 H         1 RES1    0.0000
     60 H18        5.0072    4.4682   21.5396 H         1 RES1    0.0000
     61 H19        8.5204    1.6832   18.8964 H         1 RES1    0.0000
     62 H20        9.5483    0.9025   16.9975 H         1 RES1    0.0000
     63 H21        8.8094   -1.0474   16.0066 H         1 RES1    0.0000
     64 H22        6.9872   -2.1372   16.8671 H         1 RES1    0.0000
     65 H23        5.2257   -2.3301   18.1947 H         1 RES1    0.0000
     66 H24        4.0247   -2.3116   19.9110 H         1 RES1    0.0000
     67 H25        3.3730   -1.9868   22.0067 H         1 RES1    0.0000
     68 H26        3.1410   -0.8213   23.9506 H         1 RES1    0.0000
     69 H27        4.3384    1.1803   24.2303 H         1 RES1    0.0000
     70 H28        5.8232    1.8604   22.5993 H         1 RES1    0.0000
@<TRIPOS>BOND
     1    1    2 ar
     2    2    3 ar
     3    3    4 ar
     4    4    5 ar
     5    5    6 ar
     6    6    7 ar
     7    7    8 ar
     8    8    9 ar
     9    9   10 ar
    10   10    1 ar
    11   11    4 1
    12   12    6 1
    13   13    1 1
    14   14   13 1
    15   15   14 ar
    16   16   15 ar
    17   17   16 ar
    18   18   17 ar
    19   19   14 ar
    20   20   19 1
    21   21   20 2
    22   22   21 1
    23   23   22 ar
    24   24   23 ar
    25   25   24 ar
    26   26   25 ar
    27   27   13 1
    28   28    9 1
    29   29   28 1
    30   30   29 ar
    31   31   30 ar
    32   32   31 ar
    33   33   32 ar
    34   34   29 ar
    35   35   34 1
    36   36   35 2
    37   37   36 1
    38   38   37 ar
    39   39   38 ar
    40   40   39 ar
    41   41   40 ar
    42   42   28 1
    43   43    2 1
    44   44    3 1
    45   45    7 1
    46   46    8 1
    47   47   11 1
    48   48   11 1
    49   49   12 1
    50   50   12 1
    51   51   15 1
    52   52   16 1
    53   53   17 1
    54   54   18 1
    55   55   20 1
    56   56   21 1
    57   57   23 1
    58   58   24 1
    59   59   25 1
    60   60   26 1
    61   61   30 1
    62   62   31 1
    63   63   32 1
    64   64   33 1
    65   65   35 1
    66   66   36 1
    67   67   38 1
    68   68   39 1
    69   69   40 1
    70   70   41 1
    71    5   10 ar
    72   11   12 1
    73   13   28 1
    74   18   19 ar
    75   22   27 ar
    76   26   27 ar
    77   33   34 ar
    78   37   42 ar
    79   41   42 ar
@<TRIPOS>SUBSTRUCTURE
     1 RES1 1

@<TRIPOS>CRYSIN
  12.7820    9.2280   24.0840  90.0000 100.1590  90.0000  14 1

