# MOL2 file generated by ConQuest
# Please check atom types

@<TRIPOS>MOLECULE
PEVNUC
    70    79     1
SMALL
NO_CHARGES
****
Generated from CSD

@<TRIPOS>ATOM
      1 C1         6.9872    3.5373   20.5062 C.ar      1 RES1    0.0000
      2 C2         7.1940    4.9041   20.5636 C.ar      1 RES1    0.0000
      3 C3         8.3522    5.4421   21.3194 C.ar      1 RES1    0.0000
      4 C4         9.2203    4.6383   21.9739 C.ar      1 RES1    0.0000
      5 C5         8.9830    3.2983   21.9061 C.ar      1 RES1    0.0000
      6 C6         9.9112    2.4687   22.5679 C.ar      1 RES1    0.0000
      7 C7         9.7389    1.1268   22.5305 C.ar      1 RES1    0.0000
      8 C8         8.6439    0.5805   21.8069 C.ar      1 RES1    0.0000
      9 C9         7.7381    1.3871   21.1496 C.ar      1 RES1    0.0000
     10 C10        7.9095    2.7566   21.2124 C.ar      1 RES1    0.0000
     11 C11       10.4877    4.8118   22.7994 C.3       1 RES1    0.0000
     12 C12       10.9461    3.3980   23.1835 C.3       1 RES1    0.0000
     13 C13        5.9412    2.6449   19.8180 C.3       1 RES1    0.0000
     14 C14        5.9829    2.8276   18.2882 C.ar      1 RES1    0.0000
     15 C15        6.8731    3.7385   17.7141 C.ar      1 RES1    0.0000
     16 C16        7.0398    3.8585   16.3557 C.ar      1 RES1    0.0000
     17 C17        6.3216    3.0279   15.5134 C.ar      1 RES1    0.0000
     18 C18        5.4399    2.1253   16.0327 C.ar      1 RES1    0.0000
     19 C19        5.2137    2.0238   17.4238 C.ar      1 RES1    0.0000
     20 C20        4.2046    1.0779   17.8402 C.2       1 RES1    0.0000
     21 C21        3.4299    1.1213   18.9221 C.2       1 RES1    0.0000
     22 C22        3.4065    2.1429   19.9653 C.ar      1 RES1    0.0000
     23 C23        2.1880    2.3413   20.6305 C.ar      1 RES1    0.0000
     24 C24        2.0203    3.3121   21.5710 C.ar      1 RES1    0.0000
     25 C25        3.0844    4.1206   21.9080 C.ar      1 RES1    0.0000
     26 C26        4.3071    3.9129   21.3047 C.ar      1 RES1    0.0000
     27 C27        4.5193    2.9199   20.3426 C.ar      1 RES1    0.0000
     28 C28        6.5122    1.0382   20.3030 C.3       1 RES1    0.0000
     29 C29        7.0756    0.2889   19.0758 C.ar      1 RES1    0.0000
     30 C30        8.1998    0.8979   18.5009 C.ar      1 RES1    0.0000
     31 C31        8.8248    0.4245   17.3695 C.ar      1 RES1    0.0000
     32 C32        8.3852   -0.7051   16.7788 C.ar      1 RES1    0.0000
     33 C33        7.3077   -1.3428   17.2993 C.ar      1 RES1    0.0000
     34 C34        6.6016   -0.8776   18.4554 C.ar      1 RES1    0.0000
     35 C35        5.4800   -1.6722   18.8431 C.2       1 RES1    0.0000
     36 C36        4.7249   -1.6501   19.9152 C.2       1 RES1    0.0000
     37 C37        4.7458   -0.7854   21.0957 C.ar      1 RES1    0.0000
     38 C38        3.8966   -1.1813   22.1373 C.ar      1 RES1    0.0000
     39 C39        3.7517   -0.4993   23.2874 C.ar      1 RES1    0.0000
     40 C40        4.4740    0.6645   23.4539 C.ar      1 RES1    0.0000
     41 C41        5.3452    1.0751   22.4693 C.ar      1 RES1    0.0000
     42 C42        5.5146    0.3867   21.2658 C.ar      1 RES1    0.0000
     43 H1         6.6031    5.4892   20.1263 H         1 RES1    0.0000
     44 H2         8.4858    6.3723   21.3452 H         1 RES1    0.0000
     45 H3        10.3393    0.5602   22.9791 H         1 RES1    0.0000
     46 H4         8.5342   -0.3525   21.7768 H         1 RES1    0.0000
     47 H5        10.3048    5.3424   23.6028 H         1 RES1    0.0000
     48 H6        11.1797    5.2658   22.2748 H         1 RES1    0.0000
     49 H7        11.8379    3.2125   22.8226 H         1 RES1    0.0000
     50 H8        10.9707    3.2937   24.1577 H         1 RES1    0.0000
     51 H9         7.3782    4.2931   18.2813 H         1 RES1    0.0000
     52 H10        7.6335    4.4962   16.0024 H         1 RES1    0.0000
     53 H11        6.4415    3.0851   14.5819 H         1 RES1    0.0000
     54 H12        4.9721    1.5559   15.4498 H         1 RES1    0.0000
     55 H13        4.0801    0.3368   17.2758 H         1 RES1    0.0000
     56 H14        2.8244    0.4097   19.0260 H         1 RES1    0.0000
     57 H15        1.4606    1.7848   20.4204 H         1 RES1    0.0000
     58 H16        1.1864    3.4293   21.9879 H         1 RES1    0.0000
     59 H17        2.9789    4.8053   22.5428 H         1 RES1    0.0000
     60 H18        5.0284    4.4639   21.5492 H         1 RES1    0.0000
     61 H19        8.5451    1.6704   18.9098 H         1 RES1    0.0000
     62 H20        9.5594    0.8887   17.0079 H         1 RES1    0.0000
     63 H21        8.8191   -1.0456   16.0166 H         1 RES1    0.0000
     64 H22        7.0090   -2.1290   16.8798 H         1 RES1    0.0000
     65 H23        5.2385   -2.3302   18.2173 H         1 RES1    0.0000
     66 H24        4.0514   -2.3053   19.9271 H         1 RES1    0.0000
     67 H25        3.3989   -1.9712   22.0234 H         1 RES1    0.0000
     68 H26        3.1721   -0.8075   23.9633 H         1 RES1    0.0000
     69 H27        4.3717    1.1748   24.2360 H         1 RES1    0.0000
     70 H28        5.8502    1.8549   22.6139 H         1 RES1    0.0000
@<TRIPOS>BOND
     1    1    2 ar
     2    2    3 ar
     3    3    4 ar
     4    4    5 ar
     5    5    6 ar
     6    6    7 ar
     7    7    8 ar
     8    8    9 ar
     9    9   10 ar
    10   10    1 ar
    11   11    4 1
    12   12    6 1
    13   13    1 1
    14   14   13 1
    15   15   14 ar
    16   16   15 ar
    17   17   16 ar
    18   18   17 ar
    19   19   14 ar
    20   20   19 1
    21   21   20 2
    22   22   21 1
    23   23   22 ar
    24   24   23 ar
    25   25   24 ar
    26   26   25 ar
    27   27   13 1
    28   28    9 1
    29   29   28 1
    30   30   29 ar
    31   31   30 ar
    32   32   31 ar
    33   33   32 ar
    34   34   29 ar
    35   35   34 1
    36   36   35 2
    37   37   36 1
    38   38   37 ar
    39   39   38 ar
    40   40   39 ar
    41   41   40 ar
    42   42   28 1
    43   43    2 1
    44   44    3 1
    45   45    7 1
    46   46    8 1
    47   47   11 1
    48   48   11 1
    49   49   12 1
    50   50   12 1
    51   51   15 1
    52   52   16 1
    53   53   17 1
    54   54   18 1
    55   55   20 1
    56   56   21 1
    57   57   23 1
    58   58   24 1
    59   59   25 1
    60   60   26 1
    61   61   30 1
    62   62   31 1
    63   63   32 1
    64   64   33 1
    65   65   35 1
    66   66   36 1
    67   67   38 1
    68   68   39 1
    69   69   40 1
    70   70   41 1
    71    5   10 ar
    72   11   12 1
    73   13   28 1
    74   18   19 ar
    75   22   27 ar
    76   26   27 ar
    77   33   34 ar
    78   37   42 ar
    79   41   42 ar
@<TRIPOS>SUBSTRUCTURE
     1 RES1 1

@<TRIPOS>CRYSIN
  12.7890    9.2286   24.0880  90.0000 100.1060  90.0000  14 1

