# MOL2 file generated by ConQuest
# Please check atom types

@<TRIPOS>MOLECULE
PEVNUC04
    70    79     1
SMALL
NO_CHARGES
****
Generated from CSD

@<TRIPOS>ATOM
      1 C1         6.9837    3.5382   20.4924 C.ar      1 RES1    0.0000
      2 C2         7.1915    4.9044   20.5457 C.ar      1 RES1    0.0000
      3 C3         8.3448    5.4472   21.2969 C.ar      1 RES1    0.0000
      4 C4         9.2148    4.6460   21.9451 C.ar      1 RES1    0.0000
      5 C5         8.9820    3.3047   21.8816 C.ar      1 RES1    0.0000
      6 C6         9.9111    2.4794   22.5496 C.ar      1 RES1    0.0000
      7 C7         9.7323    1.1373   22.4987 C.ar      1 RES1    0.0000
      8 C8         8.6444    0.5871   21.7913 C.ar      1 RES1    0.0000
      9 C9         7.7365    1.3930   21.1327 C.ar      1 RES1    0.0000
     10 C10        7.9026    2.7647   21.1822 C.ar      1 RES1    0.0000
     11 C11       10.4820    4.8250   22.7601 C.3       1 RES1    0.0000
     12 C12       10.9356    3.4081   23.1487 C.3       1 RES1    0.0000
     13 C13        5.9344    2.6428   19.8039 C.3       1 RES1    0.0000
     14 C14        5.9739    2.8201   18.2773 C.ar      1 RES1    0.0000
     15 C15        6.8634    3.7266   17.6943 C.ar      1 RES1    0.0000
     16 C16        7.0274    3.8401   16.3350 C.ar      1 RES1    0.0000
     17 C17        6.3192    3.0093   15.5029 C.ar      1 RES1    0.0000
     18 C18        5.4361    2.1222   16.0267 C.ar      1 RES1    0.0000
     19 C19        5.2127    2.0216   17.4180 C.ar      1 RES1    0.0000
     20 C20        4.1959    1.0773   17.8382 C.2       1 RES1    0.0000
     21 C21        3.4298    1.1197   18.9252 C.2       1 RES1    0.0000
     22 C22        3.4052    2.1444   19.9618 C.ar      1 RES1    0.0000
     23 C23        2.1883    2.3484   20.6218 C.ar      1 RES1    0.0000
     24 C24        2.0275    3.3195   21.5749 C.ar      1 RES1    0.0000
     25 C25        3.0913    4.1207   21.9029 C.ar      1 RES1    0.0000
     26 C26        4.3083    3.9112   21.2910 C.ar      1 RES1    0.0000
     27 C27        4.5178    2.9207   20.3367 C.ar      1 RES1    0.0000
     28 C28        6.5099    1.0394   20.2874 C.3       1 RES1    0.0000
     29 C29        7.0662    0.2862   19.0698 C.ar      1 RES1    0.0000
     30 C30        8.1924    0.8853   18.4849 C.ar      1 RES1    0.0000
     31 C31        8.8149    0.4117   17.3573 C.ar      1 RES1    0.0000
     32 C32        8.3662   -0.7292   16.7767 C.ar      1 RES1    0.0000
     33 C33        7.2905   -1.3570   17.3050 C.ar      1 RES1    0.0000
     34 C34        6.5958   -0.8816   18.4579 C.ar      1 RES1    0.0000
     35 C35        5.4700   -1.6690   18.8510 C.2       1 RES1    0.0000
     36 C36        4.7195   -1.6413   19.9220 C.2       1 RES1    0.0000
     37 C37        4.7454   -0.7782   21.0976 C.ar      1 RES1    0.0000
     38 C38        3.9030   -1.1668   22.1460 C.ar      1 RES1    0.0000
     39 C39        3.7653   -0.4809   23.2930 C.ar      1 RES1    0.0000
     40 C40        4.4846    0.6757   23.4523 C.ar      1 RES1    0.0000
     41 C41        5.3541    1.0865   22.4598 C.ar      1 RES1    0.0000
     42 C42        5.5160    0.3942   21.2647 C.ar      1 RES1    0.0000
     43 H1         6.6070    5.4814   20.1104 H         1 RES1    0.0000
     44 H2         8.4747    6.3675   21.3213 H         1 RES1    0.0000
     45 H3        10.3324    0.5751   22.9328 H         1 RES1    0.0000
     46 H4         8.5359   -0.3360   21.7669 H         1 RES1    0.0000
     47 H5        10.3049    5.3549   23.5537 H         1 RES1    0.0000
     48 H6        11.1649    5.2691   22.2337 H         1 RES1    0.0000
     49 H7        11.8173    3.2207   22.7906 H         1 RES1    0.0000
     50 H8        10.9632    3.3102   24.1130 H         1 RES1    0.0000
     51 H9         7.3651    4.2767   18.2500 H         1 RES1    0.0000
     52 H10        7.6130    4.4715   15.9821 H         1 RES1    0.0000
     53 H11        6.4424    3.0555   14.5815 H         1 RES1    0.0000
     54 H12        4.9656    1.5628   15.4536 H         1 RES1    0.0000
     55 H13        4.0634    0.3489   17.2760 H         1 RES1    0.0000
     56 H14        2.8386    0.4108   19.0368 H         1 RES1    0.0000
     57 H15        1.4636    1.8065   20.4066 H         1 RES1    0.0000
     58 H16        1.2051    3.4339   21.9944 H         1 RES1    0.0000
     59 H17        2.9920    4.7983   22.5323 H         1 RES1    0.0000
     60 H18        5.0229    4.4576   21.5275 H         1 RES1    0.0000
     61 H19        8.5378    1.6505   18.8852 H         1 RES1    0.0000
     62 H20        9.5391    0.8686   16.9940 H         1 RES1    0.0000
     63 H21        8.7923   -1.0754   16.0271 H         1 RES1    0.0000
     64 H22        6.9887   -2.1370   16.8969 H         1 RES1    0.0000
     65 H23        5.2272   -2.3207   18.2334 H         1 RES1    0.0000
     66 H24        4.0509   -2.2874   19.9374 H         1 RES1    0.0000
     67 H25        3.4078   -1.9477   22.0418 H         1 RES1    0.0000
     68 H26        3.1960   -0.7837   23.9637 H         1 RES1    0.0000
     69 H27        4.3863    1.1825   24.2267 H         1 RES1    0.0000
     70 H28        5.8512    1.8600   22.5963 H         1 RES1    0.0000
@<TRIPOS>BOND
     1    1    2 ar
     2    2    3 ar
     3    3    4 ar
     4    4    5 ar
     5    5    6 ar
     6    6    7 ar
     7    7    8 ar
     8    8    9 ar
     9    9   10 ar
    10   10    1 ar
    11   11    4 1
    12   12    6 1
    13   13    1 1
    14   14   13 1
    15   15   14 ar
    16   16   15 ar
    17   17   16 ar
    18   18   17 ar
    19   19   14 ar
    20   20   19 1
    21   21   20 2
    22   22   21 1
    23   23   22 ar
    24   24   23 ar
    25   25   24 ar
    26   26   25 ar
    27   27   13 1
    28   28    9 1
    29   29   28 1
    30   30   29 ar
    31   31   30 ar
    32   32   31 ar
    33   33   32 ar
    34   34   29 ar
    35   35   34 1
    36   36   35 2
    37   37   36 1
    38   38   37 ar
    39   39   38 ar
    40   40   39 ar
    41   41   40 ar
    42   42   28 1
    43   43    2 1
    44   44    3 1
    45   45    7 1
    46   46    8 1
    47   47   11 1
    48   48   11 1
    49   49   12 1
    50   50   12 1
    51   51   15 1
    52   52   16 1
    53   53   17 1
    54   54   18 1
    55   55   20 1
    56   56   21 1
    57   57   23 1
    58   58   24 1
    59   59   25 1
    60   60   26 1
    61   61   30 1
    62   62   31 1
    63   63   32 1
    64   64   33 1
    65   65   35 1
    66   66   36 1
    67   67   38 1
    68   68   39 1
    69   69   40 1
    70   70   41 1
    71    5   10 ar
    72   11   12 1
    73   13   28 1
    74   18   19 ar
    75   22   27 ar
    76   26   27 ar
    77   33   34 ar
    78   37   42 ar
    79   41   42 ar
@<TRIPOS>SUBSTRUCTURE
     1 RES1 1

@<TRIPOS>CRYSIN
  12.7810    9.2310   24.0710  90.0000 100.0960  90.0000  14 1

