# MOL2 file generated by ConQuest
# Please check atom types

@<TRIPOS>MOLECULE
PEVNUC03
    70    79     1
SMALL
NO_CHARGES
****
Generated from CSD

@<TRIPOS>ATOM
      1 C1         6.9883    3.5395   20.4949 C.ar      1 RES1    0.0000
      2 C2         7.1979    4.9031   20.5489 C.ar      1 RES1    0.0000
      3 C3         8.3473    5.4469   21.2952 C.ar      1 RES1    0.0000
      4 C4         9.2181    4.6474   21.9479 C.ar      1 RES1    0.0000
      5 C5         8.9841    3.3069   21.8832 C.ar      1 RES1    0.0000
      6 C6         9.9157    2.4834   22.5502 C.ar      1 RES1    0.0000
      7 C7         9.7370    1.1392   22.5016 C.ar      1 RES1    0.0000
      8 C8         8.6478    0.5872   21.7944 C.ar      1 RES1    0.0000
      9 C9         7.7399    1.3913   21.1338 C.ar      1 RES1    0.0000
     10 C10        7.9076    2.7631   21.1848 C.ar      1 RES1    0.0000
     11 C11       10.4879    4.8274   22.7647 C.3       1 RES1    0.0000
     12 C12       10.9433    3.4121   23.1512 C.3       1 RES1    0.0000
     13 C13        5.9388    2.6431   19.8047 C.3       1 RES1    0.0000
     14 C14        5.9809    2.8231   18.2786 C.ar      1 RES1    0.0000
     15 C15        6.8694    3.7279   17.6968 C.ar      1 RES1    0.0000
     16 C16        7.0357    3.8414   16.3387 C.ar      1 RES1    0.0000
     17 C17        6.3250    3.0179   15.5047 C.ar      1 RES1    0.0000
     18 C18        5.4406    2.1224   16.0275 C.ar      1 RES1    0.0000
     19 C19        5.2161    2.0227   17.4183 C.ar      1 RES1    0.0000
     20 C20        4.2017    1.0774   17.8387 C.2       1 RES1    0.0000
     21 C21        3.4323    1.1245   18.9252 C.2       1 RES1    0.0000
     22 C22        3.4116    2.1446   19.9616 C.ar      1 RES1    0.0000
     23 C23        2.1918    2.3495   20.6224 C.ar      1 RES1    0.0000
     24 C24        2.0319    3.3189   21.5763 C.ar      1 RES1    0.0000
     25 C25        3.0937    4.1202   21.9022 C.ar      1 RES1    0.0000
     26 C26        4.3130    3.9134   21.2936 C.ar      1 RES1    0.0000
     27 C27        4.5209    2.9210   20.3382 C.ar      1 RES1    0.0000
     28 C28        6.5148    1.0386   20.2908 C.3       1 RES1    0.0000
     29 C29        7.0726    0.2862   19.0697 C.ar      1 RES1    0.0000
     30 C30        8.1968    0.8890   18.4848 C.ar      1 RES1    0.0000
     31 C31        8.8199    0.4117   17.3614 C.ar      1 RES1    0.0000
     32 C32        8.3694   -0.7321   16.7748 C.ar      1 RES1    0.0000
     33 C33        7.2915   -1.3553   17.3078 C.ar      1 RES1    0.0000
     34 C34        6.6025   -0.8780   18.4568 C.ar      1 RES1    0.0000
     35 C35        5.4782   -1.6719   18.8477 C.2       1 RES1    0.0000
     36 C36        4.7244   -1.6405   19.9227 C.2       1 RES1    0.0000
     37 C37        4.7494   -0.7783   21.0964 C.ar      1 RES1    0.0000
     38 C38        3.9061   -1.1660   22.1435 C.ar      1 RES1    0.0000
     39 C39        3.7616   -0.4810   23.2930 C.ar      1 RES1    0.0000
     40 C40        4.4874    0.6758   23.4525 C.ar      1 RES1    0.0000
     41 C41        5.3567    1.0848   22.4613 C.ar      1 RES1    0.0000
     42 C42        5.5212    0.3924   21.2670 C.ar      1 RES1    0.0000
     43 H1         6.6134    5.4801   20.1123 H         1 RES1    0.0000
     44 H2         8.4765    6.3682   21.3163 H         1 RES1    0.0000
     45 H3        10.3370    0.5779   22.9374 H         1 RES1    0.0000
     46 H4         8.5400   -0.3360   21.7714 H         1 RES1    0.0000
     47 H5        10.3096    5.3564   23.5584 H         1 RES1    0.0000
     48 H6        11.1692    5.2733   22.2407 H         1 RES1    0.0000
     49 H7        11.8252    3.2266   22.7929 H         1 RES1    0.0000
     50 H8        10.9724    3.3134   24.1154 H         1 RES1    0.0000
     51 H9         7.3711    4.2790   18.2542 H         1 RES1    0.0000
     52 H10        7.6247    4.4711   15.9884 H         1 RES1    0.0000
     53 H11        6.4469    3.0706   14.5830 H         1 RES1    0.0000
     54 H12        4.9715    1.5611   15.4528 H         1 RES1    0.0000
     55 H13        4.0736    0.3444   17.2801 H         1 RES1    0.0000
     56 H14        2.8359    0.4201   19.0340 H         1 RES1    0.0000
     57 H15        1.4667    1.8085   20.4062 H         1 RES1    0.0000
     58 H16        1.2101    3.4325   21.9989 H         1 RES1    0.0000
     59 H17        2.9923    4.7997   22.5298 H         1 RES1    0.0000
     60 H18        5.0274    4.4591   21.5320 H         1 RES1    0.0000
     61 H19        8.5390    1.6562   18.8823 H         1 RES1    0.0000
     62 H20        9.5476    0.8669   17.0004 H         1 RES1    0.0000
     63 H21        8.7945   -1.0783   16.0240 H         1 RES1    0.0000
     64 H22        6.9855   -2.1335   16.9009 H         1 RES1    0.0000
     65 H23        5.2403   -2.3255   18.2305 H         1 RES1    0.0000
     66 H24        4.0546   -2.2849   19.9370 H         1 RES1    0.0000
     67 H25        3.4120   -1.9480   22.0392 H         1 RES1    0.0000
     68 H26        3.1875   -0.7810   23.9613 H         1 RES1    0.0000
     69 H27        4.3918    1.1817   24.2268 H         1 RES1    0.0000
     70 H28        5.8539    1.8584   22.5985 H         1 RES1    0.0000
@<TRIPOS>BOND
     1    1    2 ar
     2    2    3 ar
     3    3    4 ar
     4    4    5 ar
     5    5    6 ar
     6    6    7 ar
     7    7    8 ar
     8    8    9 ar
     9    9   10 ar
    10   10    1 ar
    11   11    4 1
    12   12    6 1
    13   13    1 1
    14   14   13 1
    15   15   14 ar
    16   16   15 ar
    17   17   16 ar
    18   18   17 ar
    19   19   14 ar
    20   20   19 1
    21   21   20 2
    22   22   21 1
    23   23   22 ar
    24   24   23 ar
    25   25   24 ar
    26   26   25 ar
    27   27   13 1
    28   28    9 1
    29   29   28 1
    30   30   29 ar
    31   31   30 ar
    32   32   31 ar
    33   33   32 ar
    34   34   29 ar
    35   35   34 1
    36   36   35 2
    37   37   36 1
    38   38   37 ar
    39   39   38 ar
    40   40   39 ar
    41   41   40 ar
    42   42   28 1
    43   43    2 1
    44   44    3 1
    45   45    7 1
    46   46    8 1
    47   47   11 1
    48   48   11 1
    49   49   12 1
    50   50   12 1
    51   51   15 1
    52   52   16 1
    53   53   17 1
    54   54   18 1
    55   55   20 1
    56   56   21 1
    57   57   23 1
    58   58   24 1
    59   59   25 1
    60   60   26 1
    61   61   30 1
    62   62   31 1
    63   63   32 1
    64   64   33 1
    65   65   35 1
    66   66   36 1
    67   67   38 1
    68   68   39 1
    69   69   40 1
    70   70   41 1
    71    5   10 ar
    72   11   12 1
    73   13   28 1
    74   18   19 ar
    75   22   27 ar
    76   26   27 ar
    77   33   34 ar
    78   37   42 ar
    79   41   42 ar
@<TRIPOS>SUBSTRUCTURE
     1 RES1 1

@<TRIPOS>CRYSIN
  12.7840    9.2320   24.0730  90.0000 100.0910  90.0000  14 1

