# MOL2 file generated by ConQuest
# Please check atom types

@<TRIPOS>MOLECULE
PEVQAL08
    68    77     1
SMALL
NO_CHARGES
****
Generated from CSD

@<TRIPOS>ATOM
      1 C1         0.1103   -3.5047    3.3096 C.ar      1 RES1    0.0000
      2 C2        -0.8147   -4.4752    2.9456 C.ar      1 RES1    0.0000
      3 C3        -1.8978   -4.1929    2.0687 C.ar      1 RES1    0.0000
      4 C4        -2.0798   -2.9230    1.5561 C.ar      1 RES1    0.0000
      5 C5        -1.1572   -1.9586    1.9666 C.ar      1 RES1    0.0000
      6 C6        -1.3689   -0.7040    1.3828 C.ar      1 RES1    0.0000
      7 C7        -0.4705    0.2854    1.7107 C.ar      1 RES1    0.0000
      8 C8         0.6312    0.0155    2.5767 C.ar      1 RES1    0.0000
      9 C9         0.8333   -1.2447    3.1097 C.ar      1 RES1    0.0000
     10 C10       -0.1014   -2.2272    2.7951 C.ar      1 RES1    0.0000
     11 C11       -2.9513   -2.2037    0.6115 C.2       1 RES1    0.0000
     12 C12       -2.5375   -0.9214    0.5134 C.2       1 RES1    0.0000
     13 C13        1.3714   -3.5219    4.1859 C.3       1 RES1    0.0000
     14 C14        2.4036   -4.5282    3.6484 C.ar      1 RES1    0.0000
     15 C15        2.1554   -5.2557    2.4815 C.ar      1 RES1    0.0000
     16 C16        3.0847   -6.1148    1.9236 C.ar      1 RES1    0.0000
     17 C17        4.3111   -6.2697    2.4953 C.ar      1 RES1    0.0000
     18 C18        4.5991   -5.5590    3.6317 C.ar      1 RES1    0.0000
     19 C19        3.6691   -4.7047    4.2428 C.ar      1 RES1    0.0000
     20 C20        4.1099   -4.0362    5.4487 C.2       1 RES1    0.0000
     21 C21        3.3838   -3.6262    6.4879 C.2       1 RES1    0.0000
     22 C22        1.9518   -3.7572    6.6897 C.ar      1 RES1    0.0000
     23 C23        1.5135   -3.8223    8.0139 C.ar      1 RES1    0.0000
     24 C24        0.2075   -4.0276    8.3456 C.ar      1 RES1    0.0000
     25 C25       -0.7187   -4.1740    7.3389 C.ar      1 RES1    0.0000
     26 C26       -0.3286   -4.0386    6.0206 C.ar      1 RES1    0.0000
     27 C27        0.9989   -3.8122    5.6521 C.ar      1 RES1    0.0000
     28 C28        1.9448   -1.8202    3.9886 C.3       1 RES1    0.0000
     29 C29        3.2278   -1.8248    3.1303 C.ar      1 RES1    0.0000
     30 C30        3.0465   -2.2013    1.7955 C.ar      1 RES1    0.0000
     31 C31        4.0781   -2.3370    0.8884 C.ar      1 RES1    0.0000
     32 C32        5.3655   -2.1152    1.2894 C.ar      1 RES1    0.0000
     33 C33        5.5790   -1.7309    2.5758 C.ar      1 RES1    0.0000
     34 C34        4.5555   -1.5495    3.5158 C.ar      1 RES1    0.0000
     35 C35        5.0063   -1.0108    4.7867 C.2       1 RES1    0.0000
     36 C36        4.3343   -0.5820    5.8476 C.2       1 RES1    0.0000
     37 C37        2.9079   -0.5555    6.1298 C.ar      1 RES1    0.0000
     38 C38        2.5791    0.0474    7.3626 C.ar      1 RES1    0.0000
     39 C39        1.3067    0.1789    7.8109 C.ar      1 RES1    0.0000
     40 C40        0.2795   -0.2744    7.0237 C.ar      1 RES1    0.0000
     41 C41        0.5658   -0.8711    5.8161 C.ar      1 RES1    0.0000
     42 C42        1.8636   -1.0615    5.3326 C.ar      1 RES1    0.0000
     43 H1        -0.7230   -5.3357    3.2851 H         1 RES1    0.0000
     44 H2        -2.4909   -4.8717    1.8377 H         1 RES1    0.0000
     45 H3        -0.5820    1.1407    1.3633 H         1 RES1    0.0000
     46 H4         1.2256    0.7008    2.7865 H         1 RES1    0.0000
     47 H5        -3.6730   -2.5742    0.1550 H         1 RES1    0.0000
     48 H6        -2.9319   -0.2720   -0.0243 H         1 RES1    0.0000
     49 H7         1.3304   -5.1581    2.0618 H         1 RES1    0.0000
     50 H8         2.8705   -6.5900    1.1523 H         1 RES1    0.0000
     51 H9         4.9402   -6.8444    2.1235 H         1 RES1    0.0000
     52 H10        5.4427   -5.6460    4.0116 H         1 RES1    0.0000
     53 H11        5.0233   -3.8702    5.5057 H         1 RES1    0.0000
     54 H12        3.8538   -3.2030    7.1697 H         1 RES1    0.0000
     55 H13        2.1366   -3.7214    8.6955 H         1 RES1    0.0000
     56 H14       -0.0524   -4.0685    9.2371 H         1 RES1    0.0000
     57 H15       -1.6051   -4.3629    7.5451 H         1 RES1    0.0000
     58 H16       -0.9743   -4.1005    5.3544 H         1 RES1    0.0000
     59 H17        2.1800   -2.3695    1.5016 H         1 RES1    0.0000
     60 H18        3.8972   -2.5774    0.0093 H         1 RES1    0.0000
     61 H19        6.0753   -2.2239    0.6985 H         1 RES1    0.0000
     62 H20        6.4549   -1.5791    2.8481 H         1 RES1    0.0000
     63 H21        5.9307   -0.9567    4.8726 H         1 RES1    0.0000
     64 H22        4.8679   -0.2400    6.5291 H         1 RES1    0.0000
     65 H23        3.2699    0.3712    7.8943 H         1 RES1    0.0000
     66 H24        1.1334    0.5696    8.6377 H         1 RES1    0.0000
     67 H25       -0.6019   -0.1792    7.3023 H         1 RES1    0.0000
     68 H26       -0.1446   -1.1647    5.2928 H         1 RES1    0.0000
@<TRIPOS>BOND
     1    1    2 ar
     2    2    3 ar
     3    3    4 ar
     4    4    5 ar
     5    5    6 ar
     6    6    7 ar
     7    7    8 ar
     8    8    9 ar
     9    9   10 ar
    10   10    1 ar
    11   11    4 1
    12   12    6 1
    13   13    1 1
    14   14   13 1
    15   15   14 ar
    16   16   15 ar
    17   17   16 ar
    18   18   17 ar
    19   19   14 ar
    20   20   19 1
    21   21   20 2
    22   22   21 1
    23   23   22 ar
    24   24   23 ar
    25   25   24 ar
    26   26   25 ar
    27   27   13 1
    28   28    9 1
    29   29   28 1
    30   30   29 ar
    31   31   30 ar
    32   32   31 ar
    33   33   32 ar
    34   34   29 ar
    35   35   34 1
    36   36   35 2
    37   37   36 1
    38   38   37 ar
    39   39   38 ar
    40   40   39 ar
    41   41   40 ar
    42   42   28 1
    43   43    2 1
    44   44    3 1
    45   45    7 1
    46   46    8 1
    47   47   11 1
    48   48   12 1
    49   49   15 1
    50   50   16 1
    51   51   17 1
    52   52   18 1
    53   53   20 1
    54   54   21 1
    55   55   23 1
    56   56   24 1
    57   57   25 1
    58   58   26 1
    59   59   30 1
    60   60   31 1
    61   61   32 1
    62   62   33 1
    63   63   35 1
    64   64   36 1
    65   65   38 1
    66   66   39 1
    67   67   40 1
    68   68   41 1
    69    5   10 ar
    70   11   12 2
    71   13   28 1
    72   18   19 ar
    73   22   27 ar
    74   26   27 ar
    75   33   34 ar
    76   37   42 ar
    77   41   42 ar
@<TRIPOS>SUBSTRUCTURE
     1 RES1 1

@<TRIPOS>CRYSIN
  18.0760   15.9990   18.6760  90.0000  90.0000  90.0000  61 1

