# MOL2 file generated by ConQuest
# Please check atom types

@<TRIPOS>MOLECULE
PEVQAL02
    68    77     1
SMALL
NO_CHARGES
****
Generated from CSD

@<TRIPOS>ATOM
      1 C1         0.0902   -3.4742    3.2815 C.ar      1 RES1    0.0000
      2 C2        -0.8434   -4.4440    2.9226 C.ar      1 RES1    0.0000
      3 C3        -1.9336   -4.1516    2.0419 C.ar      1 RES1    0.0000
      4 C4        -2.1013   -2.8750    1.5255 C.ar      1 RES1    0.0000
      5 C5        -1.1697   -1.9144    1.9357 C.ar      1 RES1    0.0000
      6 C6        -1.3689   -0.6551    1.3510 C.ar      1 RES1    0.0000
      7 C7        -0.4580    0.3333    1.6754 C.ar      1 RES1    0.0000
      8 C8         0.6480    0.0487    2.5433 C.ar      1 RES1    0.0000
      9 C9         0.8341   -1.2170    3.0727 C.ar      1 RES1    0.0000
     10 C10       -0.1130   -2.1941    2.7630 C.ar      1 RES1    0.0000
     11 C11       -2.9720   -2.1469    0.5760 C.2       1 RES1    0.0000
     12 C12       -2.5433   -0.8568    0.4759 C.2       1 RES1    0.0000
     13 C13        1.3576   -3.4950    4.1514 C.3       1 RES1    0.0000
     14 C14        2.3820   -4.5119    3.6124 C.ar      1 RES1    0.0000
     15 C15        2.1144   -5.2551    2.4530 C.ar      1 RES1    0.0000
     16 C16        3.0446   -6.1168    1.8892 C.ar      1 RES1    0.0000
     17 C17        4.2948   -6.2571    2.4587 C.ar      1 RES1    0.0000
     18 C18        4.5931   -5.5294    3.5920 C.ar      1 RES1    0.0000
     19 C19        3.6549   -4.6743    4.1958 C.ar      1 RES1    0.0000
     20 C20        4.1101   -3.9874    5.3935 C.2       1 RES1    0.0000
     21 C21        3.3896   -3.5658    6.4409 C.2       1 RES1    0.0000
     22 C22        1.9551   -3.7066    6.6564 C.ar      1 RES1    0.0000
     23 C23        1.5288   -3.7405    7.9927 C.ar      1 RES1    0.0000
     24 C24        0.2114   -3.9531    8.3357 C.ar      1 RES1    0.0000
     25 C25       -0.7224   -4.1303    7.3270 C.ar      1 RES1    0.0000
     26 C26       -0.3369   -4.0200    6.0006 C.ar      1 RES1    0.0000
     27 C27        0.9948   -3.7843    5.6221 C.ar      1 RES1    0.0000
     28 C28        1.9429   -1.8085    3.9559 C.3       1 RES1    0.0000
     29 C29        3.2269   -1.8242    3.0949 C.ar      1 RES1    0.0000
     30 C30        3.0354   -2.2172    1.7600 C.ar      1 RES1    0.0000
     31 C31        4.0687   -2.3656    0.8485 C.ar      1 RES1    0.0000
     32 C32        5.3709   -2.1354    1.2521 C.ar      1 RES1    0.0000
     33 C33        5.5909   -1.7342    2.5452 C.ar      1 RES1    0.0000
     34 C34        4.5579   -1.5409    3.4815 C.ar      1 RES1    0.0000
     35 C35        5.0152   -0.9853    4.7513 C.2       1 RES1    0.0000
     36 C36        4.3400   -0.5452    5.8102 C.2       1 RES1    0.0000
     37 C37        2.9120   -0.5270    6.0948 C.ar      1 RES1    0.0000
     38 C38        2.5870    0.0753    7.3305 C.ar      1 RES1    0.0000
     39 C39        1.3008    0.1996    7.7888 C.ar      1 RES1    0.0000
     40 C40        0.2662   -0.2702    6.9973 C.ar      1 RES1    0.0000
     41 C41        0.5582   -0.8638    5.7831 C.ar      1 RES1    0.0000
     42 C42        1.8635   -1.0451    5.2951 C.ar      1 RES1    0.0000
     43 H1        -0.7543   -5.3234    3.2724 H         1 RES1    0.0000
     44 H2        -2.5485   -4.8378    1.8083 H         1 RES1    0.0000
     45 H3        -0.5657    1.2086    1.3197 H         1 RES1    0.0000
     46 H4         1.2626    0.7404    2.7578 H         1 RES1    0.0000
     47 H5        -3.7123   -2.5201    0.1111 H         1 RES1    0.0000
     48 H6        -2.9383   -0.1898   -0.0722 H         1 RES1    0.0000
     49 H7         1.2644   -5.1652    2.0378 H         1 RES1    0.0000
     50 H8         2.8215   -6.6112    1.1105 H         1 RES1    0.0000
     51 H9         4.9372   -6.8437    2.0767 H         1 RES1    0.0000
     52 H10        5.4580   -5.6082    3.9757 H         1 RES1    0.0000
     53 H11        5.0432   -3.8142    5.4398 H         1 RES1    0.0000
     54 H12        3.8722   -3.1213    7.1278 H         1 RES1    0.0000
     55 H13        2.1696   -3.6133    8.6826 H         1 RES1    0.0000
     56 H14       -0.0521   -3.9771    9.2471 H         1 RES1    0.0000
     57 H15       -1.6254   -4.3268    7.5443 H         1 RES1    0.0000
     58 H16       -0.9968   -4.1069    5.3232 H         1 RES1    0.0000
     59 H17        2.1498   -2.3904    1.4659 H         1 RES1    0.0000
     60 H18        3.8830   -2.6230   -0.0463 H         1 RES1    0.0000
     61 H19        6.0956   -2.2528    0.6497 H         1 RES1    0.0000
     62 H20        6.4854   -1.5788    2.8226 H         1 RES1    0.0000
     63 H21        5.9591   -0.9271    4.8364 H         1 RES1    0.0000
     64 H22        4.8833   -0.1803    6.4985 H         1 RES1    0.0000
     65 H23        3.2939    0.4097    7.8700 H         1 RES1    0.0000
     66 H24        1.1225    0.5996    8.6326 H         1 RES1    0.0000
     67 H25       -0.6358   -0.1851    7.2851 H         1 RES1    0.0000
     68 H26       -0.1652   -1.1659    5.2473 H         1 RES1    0.0000
@<TRIPOS>BOND
     1    1    2 ar
     2    2    3 ar
     3    3    4 ar
     4    4    5 ar
     5    5    6 ar
     6    6    7 ar
     7    7    8 ar
     8    8    9 ar
     9    9   10 ar
    10   10    1 ar
    11   11    4 1
    12   12    6 1
    13   13    1 1
    14   14   13 1
    15   15   14 ar
    16   16   15 ar
    17   17   16 ar
    18   18   17 ar
    19   19   14 ar
    20   20   19 1
    21   21   20 2
    22   22   21 1
    23   23   22 ar
    24   24   23 ar
    25   25   24 ar
    26   26   25 ar
    27   27   13 1
    28   28    9 1
    29   29   28 1
    30   30   29 ar
    31   31   30 ar
    32   32   31 ar
    33   33   32 ar
    34   34   29 ar
    35   35   34 1
    36   36   35 2
    37   37   36 1
    38   38   37 ar
    39   39   38 ar
    40   40   39 ar
    41   41   40 ar
    42   42   28 1
    43   43    2 1
    44   44    3 1
    45   45    7 1
    46   46    8 1
    47   47   11 1
    48   48   12 1
    49   49   15 1
    50   50   16 1
    51   51   17 1
    52   52   18 1
    53   53   20 1
    54   54   21 1
    55   55   23 1
    56   56   24 1
    57   57   25 1
    58   58   26 1
    59   59   30 1
    60   60   31 1
    61   61   32 1
    62   62   33 1
    63   63   35 1
    64   64   36 1
    65   65   38 1
    66   66   39 1
    67   67   40 1
    68   68   41 1
    69    5   10 ar
    70   11   12 2
    71   13   28 1
    72   18   19 ar
    73   22   27 ar
    74   26   27 ar
    75   33   34 ar
    76   37   42 ar
    77   41   42 ar
@<TRIPOS>SUBSTRUCTURE
     1 RES1 1

@<TRIPOS>CRYSIN
  17.9600   15.8200   18.5090  90.0000  90.0000  90.0000  61 1

