# MOL2 file generated by ConQuest
# Please check atom types

@<TRIPOS>MOLECULE
PEVQAL01
    68    77     1
SMALL
NO_CHARGES
****
Generated from CSD

@<TRIPOS>ATOM
      1 C1         0.0911   -3.4719    3.2852 C.ar      1 RES1    0.0000
      2 C2        -0.8414   -4.4408    2.9248 C.ar      1 RES1    0.0000
      3 C3        -1.9294   -4.1490    2.0423 C.ar      1 RES1    0.0000
      4 C4        -2.0972   -2.8740    1.5294 C.ar      1 RES1    0.0000
      5 C5        -1.1692   -1.9142    1.9381 C.ar      1 RES1    0.0000
      6 C6        -1.3684   -0.6581    1.3529 C.ar      1 RES1    0.0000
      7 C7        -0.4591    0.3299    1.6784 C.ar      1 RES1    0.0000
      8 C8         0.6471    0.0465    2.5456 C.ar      1 RES1    0.0000
      9 C9         0.8332   -1.2179    3.0763 C.ar      1 RES1    0.0000
     10 C10       -0.1114   -2.1925    2.7666 C.ar      1 RES1    0.0000
     11 C11       -2.9677   -2.1491    0.5785 C.2       1 RES1    0.0000
     12 C12       -2.5421   -0.8596    0.4801 C.2       1 RES1    0.0000
     13 C13        1.3592   -3.4932    4.1554 C.3       1 RES1    0.0000
     14 C14        2.3829   -4.5084    3.6140 C.ar      1 RES1    0.0000
     15 C15        2.1162   -5.2494    2.4549 C.ar      1 RES1    0.0000
     16 C16        3.0467   -6.1076    1.8892 C.ar      1 RES1    0.0000
     17 C17        4.2932   -6.2504    2.4623 C.ar      1 RES1    0.0000
     18 C18        4.5917   -5.5244    3.5949 C.ar      1 RES1    0.0000
     19 C19        3.6550   -4.6697    4.1995 C.ar      1 RES1    0.0000
     20 C20        4.1067   -3.9846    5.3993 C.2       1 RES1    0.0000
     21 C21        3.3874   -3.5665    6.4456 C.2       1 RES1    0.0000
     22 C22        1.9540   -3.7058    6.6586 C.ar      1 RES1    0.0000
     23 C23        1.5282   -3.7418    7.9943 C.ar      1 RES1    0.0000
     24 C24        0.2109   -3.9532    8.3366 C.ar      1 RES1    0.0000
     25 C25       -0.7204   -4.1281    7.3290 C.ar      1 RES1    0.0000
     26 C26       -0.3348   -4.0154    6.0016 C.ar      1 RES1    0.0000
     27 C27        0.9946   -3.7834    5.6252 C.ar      1 RES1    0.0000
     28 C28        1.9429   -1.8073    3.9578 C.3       1 RES1    0.0000
     29 C29        3.2240   -1.8226    3.0982 C.ar      1 RES1    0.0000
     30 C30        3.0356   -2.2124    1.7638 C.ar      1 RES1    0.0000
     31 C31        4.0687   -2.3606    0.8539 C.ar      1 RES1    0.0000
     32 C32        5.3688   -2.1291    1.2547 C.ar      1 RES1    0.0000
     33 C33        5.5850   -1.7331    2.5484 C.ar      1 RES1    0.0000
     34 C34        4.5563   -1.5400    3.4840 C.ar      1 RES1    0.0000
     35 C35        5.0116   -0.9872    4.7536 C.2       1 RES1    0.0000
     36 C36        4.3382   -0.5486    5.8116 C.2       1 RES1    0.0000
     37 C37        2.9092   -0.5280    6.0994 C.ar      1 RES1    0.0000
     38 C38        2.5857    0.0727    7.3321 C.ar      1 RES1    0.0000
     39 C39        1.2999    0.1972    7.7913 C.ar      1 RES1    0.0000
     40 C40        0.2678   -0.2701    7.0000 C.ar      1 RES1    0.0000
     41 C41        0.5573   -0.8621    5.7860 C.ar      1 RES1    0.0000
     42 C42        1.8625   -1.0440    5.2994 C.ar      1 RES1    0.0000
     43 H1        -0.7525   -5.3195    3.2749 H         1 RES1    0.0000
     44 H2        -2.5413   -4.8356    1.8060 H         1 RES1    0.0000
     45 H3        -0.5675    1.2050    1.3244 H         1 RES1    0.0000
     46 H4         1.2626    0.7385    2.7599 H         1 RES1    0.0000
     47 H5        -3.7051   -2.5238    0.1111 H         1 RES1    0.0000
     48 H6        -2.9401   -0.1913   -0.0667 H         1 RES1    0.0000
     49 H7         1.2662   -5.1598    2.0412 H         1 RES1    0.0000
     50 H8         2.8251   -6.5972    1.1058 H         1 RES1    0.0000
     51 H9         4.9354   -6.8391    2.0820 H         1 RES1    0.0000
     52 H10        5.4580   -5.6041    3.9787 H         1 RES1    0.0000
     53 H11        5.0396   -3.8109    5.4458 H         1 RES1    0.0000
     54 H12        3.8704   -3.1246    7.1332 H         1 RES1    0.0000
     55 H13        2.1678   -3.6164    8.6854 H         1 RES1    0.0000
     56 H14       -0.0539   -3.9786    9.2485 H         1 RES1    0.0000
     57 H15       -1.6236   -4.3264    7.5463 H         1 RES1    0.0000
     58 H16       -0.9950   -4.0987    5.3235 H         1 RES1    0.0000
     59 H17        2.1498   -2.3846    1.4670 H         1 RES1    0.0000
     60 H18        3.8830   -2.6202   -0.0408 H         1 RES1    0.0000
     61 H19        6.0938   -2.2407    0.6502 H         1 RES1    0.0000
     62 H20        6.4800   -1.5813    2.8285 H         1 RES1    0.0000
     63 H21        5.9555   -0.9314    4.8401 H         1 RES1    0.0000
     64 H22        4.8833   -0.1850    6.4997 H         1 RES1    0.0000
     65 H23        3.2921    0.4080    7.8704 H         1 RES1    0.0000
     66 H24        1.1225    0.5962    8.6354 H         1 RES1    0.0000
     67 H25       -0.6340   -0.1850    7.2888 H         1 RES1    0.0000
     68 H26       -0.1670   -1.1638    5.2494 H         1 RES1    0.0000
@<TRIPOS>BOND
     1    1    2 ar
     2    2    3 ar
     3    3    4 ar
     4    4    5 ar
     5    5    6 ar
     6    6    7 ar
     7    7    8 ar
     8    8    9 ar
     9    9   10 ar
    10   10    1 ar
    11   11    4 1
    12   12    6 1
    13   13    1 1
    14   14   13 1
    15   15   14 ar
    16   16   15 ar
    17   17   16 ar
    18   18   17 ar
    19   19   14 ar
    20   20   19 1
    21   21   20 2
    22   22   21 1
    23   23   22 ar
    24   24   23 ar
    25   25   24 ar
    26   26   25 ar
    27   27   13 1
    28   28    9 1
    29   29   28 1
    30   30   29 ar
    31   31   30 ar
    32   32   31 ar
    33   33   32 ar
    34   34   29 ar
    35   35   34 1
    36   36   35 2
    37   37   36 1
    38   38   37 ar
    39   39   38 ar
    40   40   39 ar
    41   41   40 ar
    42   42   28 1
    43   43    2 1
    44   44    3 1
    45   45    7 1
    46   46    8 1
    47   47   11 1
    48   48   12 1
    49   49   15 1
    50   50   16 1
    51   51   17 1
    52   52   18 1
    53   53   20 1
    54   54   21 1
    55   55   23 1
    56   56   24 1
    57   57   25 1
    58   58   26 1
    59   59   30 1
    60   60   31 1
    61   61   32 1
    62   62   33 1
    63   63   35 1
    64   64   36 1
    65   65   38 1
    66   66   39 1
    67   67   40 1
    68   68   41 1
    69    5   10 ar
    70   11   12 2
    71   13   28 1
    72   18   19 ar
    73   22   27 ar
    74   26   27 ar
    75   33   34 ar
    76   37   42 ar
    77   41   42 ar
@<TRIPOS>SUBSTRUCTURE
     1 RES1 1

@<TRIPOS>CRYSIN
  17.9600   15.8130   18.5230  90.0000  90.0000  90.0000  61 1

