# MOL2 file generated by ConQuest
# Please check atom types

@<TRIPOS>MOLECULE
PEVQAL
    68    77     1
SMALL
NO_CHARGES
****
Generated from CSD

@<TRIPOS>ATOM
      1 C1         0.0953   -3.4833    3.2887 C.ar      1 RES1    0.0000
      2 C2        -0.8342   -4.4534    2.9277 C.ar      1 RES1    0.0000
      3 C3        -1.9229   -4.1633    2.0477 C.ar      1 RES1    0.0000
      4 C4        -2.0945   -2.8874    1.5346 C.ar      1 RES1    0.0000
      5 C5        -1.1658   -1.9252    1.9431 C.ar      1 RES1    0.0000
      6 C6        -1.3692   -0.6692    1.3580 C.ar      1 RES1    0.0000
      7 C7        -0.4609    0.3199    1.6853 C.ar      1 RES1    0.0000
      8 C8         0.6416    0.0386    2.5525 C.ar      1 RES1    0.0000
      9 C9         0.8333   -1.2253    3.0815 C.ar      1 RES1    0.0000
     10 C10       -0.1106   -2.2029    2.7710 C.ar      1 RES1    0.0000
     11 C11       -2.9631   -2.1613    0.5854 C.2       1 RES1    0.0000
     12 C12       -2.5405   -0.8748    0.4862 C.2       1 RES1    0.0000
     13 C13        1.3610   -3.5009    4.1600 C.3       1 RES1    0.0000
     14 C14        2.3876   -4.5177    3.6206 C.ar      1 RES1    0.0000
     15 C15        2.1247   -5.2525    2.4612 C.ar      1 RES1    0.0000
     16 C16        3.0533   -6.1161    1.8975 C.ar      1 RES1    0.0000
     17 C17        4.2976   -6.2580    2.4709 C.ar      1 RES1    0.0000
     18 C18        4.5929   -5.5380    3.6017 C.ar      1 RES1    0.0000
     19 C19        3.6570   -4.6809    4.2068 C.ar      1 RES1    0.0000
     20 C20        4.1088   -4.0002    5.4066 C.2       1 RES1    0.0000
     21 C21        3.3864   -3.5814    6.4515 C.2       1 RES1    0.0000
     22 C22        1.9519   -3.7206    6.6628 C.ar      1 RES1    0.0000
     23 C23        1.5233   -3.7637    7.9949 C.ar      1 RES1    0.0000
     24 C24        0.2082   -3.9746    8.3345 C.ar      1 RES1    0.0000
     25 C25       -0.7211   -4.1429    7.3276 C.ar      1 RES1    0.0000
     26 C26       -0.3330   -4.0269    6.0035 C.ar      1 RES1    0.0000
     27 C27        0.9955   -3.7912    5.6292 C.ar      1 RES1    0.0000
     28 C28        1.9429   -1.8111    3.9638 C.3       1 RES1    0.0000
     29 C29        3.2256   -1.8257    3.1036 C.ar      1 RES1    0.0000
     30 C30        3.0355   -2.2120    1.7676 C.ar      1 RES1    0.0000
     31 C31        4.0701   -2.3569    0.8592 C.ar      1 RES1    0.0000
     32 C32        5.3685   -2.1296    1.2618 C.ar      1 RES1    0.0000
     33 C33        5.5850   -1.7343    2.5541 C.ar      1 RES1    0.0000
     34 C34        4.5547   -1.5426    3.4887 C.ar      1 RES1    0.0000
     35 C35        5.0122   -0.9917    4.7586 C.2       1 RES1    0.0000
     36 C36        4.3346   -0.5578    5.8177 C.2       1 RES1    0.0000
     37 C37        2.9089   -0.5353    6.1024 C.ar      1 RES1    0.0000
     38 C38        2.5834    0.0678    7.3362 C.ar      1 RES1    0.0000
     39 C39        1.3011    0.1941    7.7921 C.ar      1 RES1    0.0000
     40 C40        0.2701   -0.2717    7.0030 C.ar      1 RES1    0.0000
     41 C41        0.5595   -0.8654    5.7898 C.ar      1 RES1    0.0000
     42 C42        1.8625   -1.0496    5.3029 C.ar      1 RES1    0.0000
     43 H1        -0.7427   -5.3323    3.2759 H         1 RES1    0.0000
     44 H2        -2.5338   -4.8515    1.8123 H         1 RES1    0.0000
     45 H3        -0.5701    1.1950    1.3300 H         1 RES1    0.0000
     46 H4         1.2534    0.7316    2.7695 H         1 RES1    0.0000
     47 H5        -3.7009   -2.5360    0.1187 H         1 RES1    0.0000
     48 H6        -2.9384   -0.2079   -0.0612 H         1 RES1    0.0000
     49 H7         1.2768   -5.1578    2.0424 H         1 RES1    0.0000
     50 H8         2.8305   -6.6083    1.1167 H         1 RES1    0.0000
     51 H9         4.9399   -6.8447    2.0906 H         1 RES1    0.0000
     52 H10        5.4578   -5.6212    3.9883 H         1 RES1    0.0000
     53 H11        5.0424   -3.8294    5.4556 H         1 RES1    0.0000
     54 H12        3.8681   -3.1391    7.1399 H         1 RES1    0.0000
     55 H13        2.1634   -3.6438    8.6870 H         1 RES1    0.0000
     56 H14       -0.0575   -4.0040    9.2472 H         1 RES1    0.0000
     57 H15       -1.6257   -4.3373    7.5424 H         1 RES1    0.0000
     58 H16       -0.9927   -4.1103    5.3239 H         1 RES1    0.0000
     59 H17        2.1490   -2.3837    1.4710 H         1 RES1    0.0000
     60 H18        3.8861   -2.6122   -0.0371 H         1 RES1    0.0000
     61 H19        6.0926   -2.2440    0.6585 H         1 RES1    0.0000
     62 H20        6.4793   -1.5807    2.8344 H         1 RES1    0.0000
     63 H21        5.9560   -0.9316    4.8453 H         1 RES1    0.0000
     64 H22        4.8770   -0.2000    6.5092 H         1 RES1    0.0000
     65 H23        3.2909    0.4015    7.8763 H         1 RES1    0.0000
     66 H24        1.1239    0.5951    8.6350 H         1 RES1    0.0000
     67 H25       -0.6312   -0.1857    7.2920 H         1 RES1    0.0000
     68 H26       -0.1654   -1.1664    5.2552 H         1 RES1    0.0000
@<TRIPOS>BOND
     1    1    2 ar
     2    2    3 ar
     3    3    4 ar
     4    4    5 ar
     5    5    6 ar
     6    6    7 ar
     7    7    8 ar
     8    8    9 ar
     9    9   10 ar
    10   10    1 ar
    11   11    4 1
    12   12    6 1
    13   13    1 1
    14   14   13 1
    15   15   14 ar
    16   16   15 ar
    17   17   16 ar
    18   18   17 ar
    19   19   14 ar
    20   20   19 1
    21   21   20 2
    22   22   21 1
    23   23   22 ar
    24   24   23 ar
    25   25   24 ar
    26   26   25 ar
    27   27   13 1
    28   28    9 1
    29   29   28 1
    30   30   29 ar
    31   31   30 ar
    32   32   31 ar
    33   33   32 ar
    34   34   29 ar
    35   35   34 1
    36   36   35 2
    37   37   36 1
    38   38   37 ar
    39   39   38 ar
    40   40   39 ar
    41   41   40 ar
    42   42   28 1
    43   43    2 1
    44   44    3 1
    45   45    7 1
    46   46    8 1
    47   47   11 1
    48   48   12 1
    49   49   15 1
    50   50   16 1
    51   51   17 1
    52   52   18 1
    53   53   20 1
    54   54   21 1
    55   55   23 1
    56   56   24 1
    57   57   25 1
    58   58   26 1
    59   59   30 1
    60   60   31 1
    61   61   32 1
    62   62   33 1
    63   63   35 1
    64   64   36 1
    65   65   38 1
    66   66   39 1
    67   67   40 1
    68   68   41 1
    69    5   10 ar
    70   11   12 2
    71   13   28 1
    72   18   19 ar
    73   22   27 ar
    74   26   27 ar
    75   33   34 ar
    76   37   42 ar
    77   41   42 ar
@<TRIPOS>SUBSTRUCTURE
     1 RES1 1

@<TRIPOS>CRYSIN
  17.9830   15.8700   18.5500  90.0000  90.0000  90.0000  61 1

