# MOL2 file generated by ConQuest
# Please check atom types

@<TRIPOS>MOLECULE
PEVQAL03
    68    77     1
SMALL
NO_CHARGES
****
Generated from CSD

@<TRIPOS>ATOM
      1 C1         0.0944   -3.4793    3.2861 C.ar      1 RES1    0.0000
      2 C2        -0.8411   -4.4484    2.9253 C.ar      1 RES1    0.0000
      3 C3        -1.9268   -4.1581    2.0446 C.ar      1 RES1    0.0000
      4 C4        -2.0981   -2.8802    1.5298 C.ar      1 RES1    0.0000
      5 C5        -1.1680   -1.9193    1.9423 C.ar      1 RES1    0.0000
      6 C6        -1.3682   -0.6614    1.3528 C.ar      1 RES1    0.0000
      7 C7        -0.4588    0.3256    1.6807 C.ar      1 RES1    0.0000
      8 C8         0.6430    0.0436    2.5472 C.ar      1 RES1    0.0000
      9 C9         0.8347   -1.2211    3.0780 C.ar      1 RES1    0.0000
     10 C10       -0.1107   -2.1999    2.7678 C.ar      1 RES1    0.0000
     11 C11       -2.9684   -2.1547    0.5812 C.2       1 RES1    0.0000
     12 C12       -2.5421   -0.8671    0.4835 C.2       1 RES1    0.0000
     13 C13        1.3605   -3.4983    4.1552 C.3       1 RES1    0.0000
     14 C14        2.3850   -4.5145    3.6180 C.ar      1 RES1    0.0000
     15 C15        2.1202   -5.2533    2.4566 C.ar      1 RES1    0.0000
     16 C16        3.0500   -6.1166    1.8934 C.ar      1 RES1    0.0000
     17 C17        4.2951   -6.2601    2.4655 C.ar      1 RES1    0.0000
     18 C18        4.5929   -5.5353    3.5980 C.ar      1 RES1    0.0000
     19 C19        3.6578   -4.6773    4.2014 C.ar      1 RES1    0.0000
     20 C20        4.1104   -3.9937    5.4024 C.2       1 RES1    0.0000
     21 C21        3.3874   -3.5764    6.4488 C.2       1 RES1    0.0000
     22 C22        1.9539   -3.7149    6.6600 C.ar      1 RES1    0.0000
     23 C23        1.5277   -3.7534    7.9943 C.ar      1 RES1    0.0000
     24 C24        0.2123   -3.9617    8.3351 C.ar      1 RES1    0.0000
     25 C25       -0.7218   -4.1350    7.3292 C.ar      1 RES1    0.0000
     26 C26       -0.3349   -4.0209    6.0010 C.ar      1 RES1    0.0000
     27 C27        0.9941   -3.7883    5.6263 C.ar      1 RES1    0.0000
     28 C28        1.9444   -1.8106    3.9612 C.3       1 RES1    0.0000
     29 C29        3.2265   -1.8231    3.1006 C.ar      1 RES1    0.0000
     30 C30        3.0376   -2.2148    1.7655 C.ar      1 RES1    0.0000
     31 C31        4.0709   -2.3612    0.8545 C.ar      1 RES1    0.0000
     32 C32        5.3712   -2.1322    1.2570 C.ar      1 RES1    0.0000
     33 C33        5.5858   -1.7343    2.5522 C.ar      1 RES1    0.0000
     34 C34        4.5579   -1.5423    3.4861 C.ar      1 RES1    0.0000
     35 C35        5.0129   -0.9875    4.7551 C.2       1 RES1    0.0000
     36 C36        4.3400   -0.5524    5.8150 C.2       1 RES1    0.0000
     37 C37        2.9117   -0.5308    6.0989 C.ar      1 RES1    0.0000
     38 C38        2.5856    0.0707    7.3339 C.ar      1 RES1    0.0000
     39 C39        1.3001    0.1987    7.7894 C.ar      1 RES1    0.0000
     40 C40        0.2700   -0.2708    6.9984 C.ar      1 RES1    0.0000
     41 C41        0.5609   -0.8654    5.7875 C.ar      1 RES1    0.0000
     42 C42        1.8628   -1.0462    5.3007 C.ar      1 RES1    0.0000
     43 H1        -0.7532   -5.3274    3.2746 H         1 RES1    0.0000
     44 H2        -2.5384   -4.8457    1.8087 H         1 RES1    0.0000
     45 H3        -0.5663    1.2011    1.3269 H         1 RES1    0.0000
     46 H4         1.2548    0.7368    2.7631 H         1 RES1    0.0000
     47 H5        -3.7069   -2.5274    0.1149 H         1 RES1    0.0000
     48 H6        -2.9410   -0.1997   -0.0630 H         1 RES1    0.0000
     49 H7         1.2728   -5.1595    2.0385 H         1 RES1    0.0000
     50 H8         2.8278   -6.6094    1.1119 H         1 RES1    0.0000
     51 H9         4.9365   -6.8486    2.0848 H         1 RES1    0.0000
     52 H10        5.4578   -5.6174    3.9825 H         1 RES1    0.0000
     53 H11        5.0425   -3.8205    5.4503 H         1 RES1    0.0000
     54 H12        3.8687   -3.1359    7.1385 H         1 RES1    0.0000
     55 H13        2.1680   -3.6319    8.6859 H         1 RES1    0.0000
     56 H14       -0.0521   -3.9869    9.2475 H         1 RES1    0.0000
     57 H15       -1.6251   -4.3307    7.5462 H         1 RES1    0.0000
     58 H16       -0.9941   -4.1041    5.3224 H         1 RES1    0.0000
     59 H17        2.1518   -2.3896    1.4714 H         1 RES1    0.0000
     60 H18        3.8866   -2.6178   -0.0408 H         1 RES1    0.0000
     61 H19        6.0960   -2.2470    0.6542 H         1 RES1    0.0000
     62 H20        6.4807   -1.5798    2.8317 H         1 RES1    0.0000
     63 H21        5.9576   -0.9270    4.8387 H         1 RES1    0.0000
     64 H22        4.8844   -0.1933    6.5066 H         1 RES1    0.0000
     65 H23        3.2916    0.4025    7.8742 H         1 RES1    0.0000
     66 H24        1.1218    0.6021    8.6304 H         1 RES1    0.0000
     67 H25       -0.6310   -0.1854    7.2849 H         1 RES1    0.0000
     68 H26       -0.1636   -1.1694    5.2538 H         1 RES1    0.0000
@<TRIPOS>BOND
     1    1    2 ar
     2    2    3 ar
     3    3    4 ar
     4    4    5 ar
     5    5    6 ar
     6    6    7 ar
     7    7    8 ar
     8    8    9 ar
     9    9   10 ar
    10   10    1 ar
    11   11    4 1
    12   12    6 1
    13   13    1 1
    14   14   13 1
    15   15   14 ar
    16   16   15 ar
    17   17   16 ar
    18   18   17 ar
    19   19   14 ar
    20   20   19 1
    21   21   20 2
    22   22   21 1
    23   23   22 ar
    24   24   23 ar
    25   25   24 ar
    26   26   25 ar
    27   27   13 1
    28   28    9 1
    29   29   28 1
    30   30   29 ar
    31   31   30 ar
    32   32   31 ar
    33   33   32 ar
    34   34   29 ar
    35   35   34 1
    36   36   35 2
    37   37   36 1
    38   38   37 ar
    39   39   38 ar
    40   40   39 ar
    41   41   40 ar
    42   42   28 1
    43   43    2 1
    44   44    3 1
    45   45    7 1
    46   46    8 1
    47   47   11 1
    48   48   12 1
    49   49   15 1
    50   50   16 1
    51   51   17 1
    52   52   18 1
    53   53   20 1
    54   54   21 1
    55   55   23 1
    56   56   24 1
    57   57   25 1
    58   58   26 1
    59   59   30 1
    60   60   31 1
    61   61   32 1
    62   62   33 1
    63   63   35 1
    64   64   36 1
    65   65   38 1
    66   66   39 1
    67   67   40 1
    68   68   41 1
    69    5   10 ar
    70   11   12 2
    71   13   28 1
    72   18   19 ar
    73   22   27 ar
    74   26   27 ar
    75   33   34 ar
    76   37   42 ar
    77   41   42 ar
@<TRIPOS>SUBSTRUCTURE
     1 RES1 1

@<TRIPOS>CRYSIN
  17.9770   15.8460   18.5320  90.0000  90.0000  90.0000  61 1

