# MOL2 file generated by ConQuest
# Please check atom types

@<TRIPOS>MOLECULE
PEVQAL07
    68    77     1
SMALL
NO_CHARGES
****
Generated from CSD

@<TRIPOS>ATOM
      1 C1         0.1072   -3.5006    3.3050 C.ar      1 RES1    0.0000
      2 C2        -0.8169   -4.4710    2.9409 C.ar      1 RES1    0.0000
      3 C3        -1.9014   -4.1843    2.0654 C.ar      1 RES1    0.0000
      4 C4        -2.0805   -2.9148    1.5514 C.ar      1 RES1    0.0000
      5 C5        -1.1562   -1.9504    1.9600 C.ar      1 RES1    0.0000
      6 C6        -1.3681   -0.6952    1.3772 C.ar      1 RES1    0.0000
      7 C7        -0.4671    0.2940    1.7065 C.ar      1 RES1    0.0000
      8 C8         0.6323    0.0187    2.5703 C.ar      1 RES1    0.0000
      9 C9         0.8332   -1.2412    3.1037 C.ar      1 RES1    0.0000
     10 C10       -0.1033   -2.2240    2.7891 C.ar      1 RES1    0.0000
     11 C11       -2.9522   -2.1975    0.6059 C.2       1 RES1    0.0000
     12 C12       -2.5384   -0.9117    0.5086 C.2       1 RES1    0.0000
     13 C13        1.3678   -3.5148    4.1785 C.3       1 RES1    0.0000
     14 C14        2.3999   -4.5240    3.6408 C.ar      1 RES1    0.0000
     15 C15        2.1495   -5.2538    2.4776 C.ar      1 RES1    0.0000
     16 C16        3.0778   -6.1127    1.9172 C.ar      1 RES1    0.0000
     17 C17        4.3062   -6.2642    2.4912 C.ar      1 RES1    0.0000
     18 C18        4.5978   -5.5513    3.6264 C.ar      1 RES1    0.0000
     19 C19        3.6642   -4.6963    4.2350 C.ar      1 RES1    0.0000
     20 C20        4.1080   -4.0270    5.4385 C.2       1 RES1    0.0000
     21 C21        3.3808   -3.6180    6.4779 C.2       1 RES1    0.0000
     22 C22        1.9491   -3.7502    6.6824 C.ar      1 RES1    0.0000
     23 C23        1.5142   -3.8093    8.0055 C.ar      1 RES1    0.0000
     24 C24        0.2092   -4.0152    8.3376 C.ar      1 RES1    0.0000
     25 C25       -0.7202   -4.1679    7.3318 C.ar      1 RES1    0.0000
     26 C26       -0.3295   -4.0358    6.0132 C.ar      1 RES1    0.0000
     27 C27        0.9987   -3.8082    5.6443 C.ar      1 RES1    0.0000
     28 C28        1.9439   -1.8174    3.9818 C.3       1 RES1    0.0000
     29 C29        3.2259   -1.8263    3.1234 C.ar      1 RES1    0.0000
     30 C30        3.0435   -2.2011    1.7876 C.ar      1 RES1    0.0000
     31 C31        4.0762   -2.3382    0.8820 C.ar      1 RES1    0.0000
     32 C32        5.3651   -2.1179    1.2823 C.ar      1 RES1    0.0000
     33 C33        5.5792   -1.7331    2.5704 C.ar      1 RES1    0.0000
     34 C34        4.5520   -1.5473    3.5109 C.ar      1 RES1    0.0000
     35 C35        5.0058   -1.0103    4.7792 C.2       1 RES1    0.0000
     36 C36        4.3312   -0.5776    5.8410 C.2       1 RES1    0.0000
     37 C37        2.9080   -0.5524    6.1231 C.ar      1 RES1    0.0000
     38 C38        2.5788    0.0508    7.3538 C.ar      1 RES1    0.0000
     39 C39        1.3051    0.1838    7.8023 C.ar      1 RES1    0.0000
     40 C40        0.2782   -0.2732    7.0165 C.ar      1 RES1    0.0000
     41 C41        0.5662   -0.8688    5.8074 C.ar      1 RES1    0.0000
     42 C42        1.8623   -1.0601    5.3253 C.ar      1 RES1    0.0000
     43 H1        -0.7240   -5.3324    3.2795 H         1 RES1    0.0000
     44 H2        -2.4969   -4.8613    1.8364 H         1 RES1    0.0000
     45 H3        -0.5777    1.1498    1.3610 H         1 RES1    0.0000
     46 H4         1.2277    0.7011    2.7798 H         1 RES1    0.0000
     47 H5        -3.6722   -2.5680    0.1492 H         1 RES1    0.0000
     48 H6        -2.9338   -0.2619   -0.0261 H         1 RES1    0.0000
     49 H7         1.3234   -5.1583    2.0620 H         1 RES1    0.0000
     50 H8         2.8634   -6.5876    1.1466 H         1 RES1    0.0000
     51 H9         4.9342   -6.8400    2.1198 H         1 RES1    0.0000
     52 H10        5.4433   -5.6374    4.0066 H         1 RES1    0.0000
     53 H11        5.0208   -3.8599    5.4944 H         1 RES1    0.0000
     54 H12        3.8509   -3.1940    7.1593 H         1 RES1    0.0000
     55 H13        2.1376   -3.7034    8.6862 H         1 RES1    0.0000
     56 H14       -0.0506   -4.0516    9.2288 H         1 RES1    0.0000
     57 H15       -1.6068   -4.3582    7.5396 H         1 RES1    0.0000
     58 H16       -0.9749   -4.1011    5.3471 H         1 RES1    0.0000
     59 H17        2.1773   -2.3668    1.4934 H         1 RES1    0.0000
     60 H18        3.8961   -2.5792    0.0019 H         1 RES1    0.0000
     61 H19        6.0752   -2.2278    0.6917 H         1 RES1    0.0000
     62 H20        6.4561   -1.5842    2.8432 H         1 RES1    0.0000
     63 H21        5.9307   -0.9598    4.8661 H         1 RES1    0.0000
     64 H22        4.8637   -0.2316    6.5198 H         1 RES1    0.0000
     65 H23        3.2696    0.3737    7.8845 H         1 RES1    0.0000
     66 H24        1.1320    0.5781    8.6266 H         1 RES1    0.0000
     67 H25       -0.6030   -0.1821    7.2973 H         1 RES1    0.0000
     68 H26       -0.1444   -1.1594    5.2818 H         1 RES1    0.0000
@<TRIPOS>BOND
     1    1    2 ar
     2    2    3 ar
     3    3    4 ar
     4    4    5 ar
     5    5    6 ar
     6    6    7 ar
     7    7    8 ar
     8    8    9 ar
     9    9   10 ar
    10   10    1 ar
    11   11    4 1
    12   12    6 1
    13   13    1 1
    14   14   13 1
    15   15   14 ar
    16   16   15 ar
    17   17   16 ar
    18   18   17 ar
    19   19   14 ar
    20   20   19 1
    21   21   20 2
    22   22   21 1
    23   23   22 ar
    24   24   23 ar
    25   25   24 ar
    26   26   25 ar
    27   27   13 1
    28   28    9 1
    29   29   28 1
    30   30   29 ar
    31   31   30 ar
    32   32   31 ar
    33   33   32 ar
    34   34   29 ar
    35   35   34 1
    36   36   35 2
    37   37   36 1
    38   38   37 ar
    39   39   38 ar
    40   40   39 ar
    41   41   40 ar
    42   42   28 1
    43   43    2 1
    44   44    3 1
    45   45    7 1
    46   46    8 1
    47   47   11 1
    48   48   12 1
    49   49   15 1
    50   50   16 1
    51   51   17 1
    52   52   18 1
    53   53   20 1
    54   54   21 1
    55   55   23 1
    56   56   24 1
    57   57   25 1
    58   58   26 1
    59   59   30 1
    60   60   31 1
    61   61   32 1
    62   62   33 1
    63   63   35 1
    64   64   36 1
    65   65   38 1
    66   66   39 1
    67   67   40 1
    68   68   41 1
    69    5   10 ar
    70   11   12 2
    71   13   28 1
    72   18   19 ar
    73   22   27 ar
    74   26   27 ar
    75   33   34 ar
    76   37   42 ar
    77   41   42 ar
@<TRIPOS>SUBSTRUCTURE
     1 RES1 1

@<TRIPOS>CRYSIN
  18.0540   15.9700   18.6440  90.0000  90.0000  90.0000  61 1

