# MOL2 file generated by ConQuest
# Please check atom types

@<TRIPOS>MOLECULE
PEVQAL04
    68    77     1
SMALL
NO_CHARGES
****
Generated from CSD

@<TRIPOS>ATOM
      1 C1         0.1003   -3.4895    3.2946 C.ar      1 RES1    0.0000
      2 C2        -0.8295   -4.4578    2.9316 C.ar      1 RES1    0.0000
      3 C3        -1.9163   -4.1697    2.0532 C.ar      1 RES1    0.0000
      4 C4        -2.0895   -2.8952    1.5382 C.ar      1 RES1    0.0000
      5 C5        -1.1629   -1.9330    1.9495 C.ar      1 RES1    0.0000
      6 C6        -1.3698   -0.6759    1.3630 C.ar      1 RES1    0.0000
      7 C7        -0.4638    0.3131    1.6916 C.ar      1 RES1    0.0000
      8 C8         0.6381    0.0332    2.5580 C.ar      1 RES1    0.0000
      9 C9         0.8333   -1.2292    3.0882 C.ar      1 RES1    0.0000
     10 C10       -0.1095   -2.2073    2.7779 C.ar      1 RES1    0.0000
     11 C11       -2.9591   -2.1723    0.5930 C.2       1 RES1    0.0000
     12 C12       -2.5378   -0.8853    0.4909 C.2       1 RES1    0.0000
     13 C13        1.3635   -3.5046    4.1656 C.3       1 RES1    0.0000
     14 C14        2.3909   -4.5190    3.6261 C.ar      1 RES1    0.0000
     15 C15        2.1313   -5.2533    2.4662 C.ar      1 RES1    0.0000
     16 C16        3.0607   -6.1159    1.9055 C.ar      1 RES1    0.0000
     17 C17        4.3001   -6.2605    2.4753 C.ar      1 RES1    0.0000
     18 C18        4.5929   -5.5438    3.6092 C.ar      1 RES1    0.0000
     19 C19        3.6592   -4.6850    4.2156 C.ar      1 RES1    0.0000
     20 C20        4.1073   -4.0083    5.4162 C.2       1 RES1    0.0000
     21 C21        3.3846   -3.5922    6.4599 C.2       1 RES1    0.0000
     22 C22        1.9514   -3.7294    6.6689 C.ar      1 RES1    0.0000
     23 C23        1.5202   -3.7787    7.9981 C.ar      1 RES1    0.0000
     24 C24        0.2080   -3.9868    8.3351 C.ar      1 RES1    0.0000
     25 C25       -0.7200   -4.1496    7.3281 C.ar      1 RES1    0.0000
     26 C26       -0.3336   -4.0272    6.0060 C.ar      1 RES1    0.0000
     27 C27        0.9959   -3.7962    5.6332 C.ar      1 RES1    0.0000
     28 C28        1.9435   -1.8133    3.9694 C.3       1 RES1    0.0000
     29 C29        3.2258   -1.8223    3.1103 C.ar      1 RES1    0.0000
     30 C30        3.0403   -2.2073    1.7734 C.ar      1 RES1    0.0000
     31 C31        4.0713   -2.3519    0.8663 C.ar      1 RES1    0.0000
     32 C32        5.3669   -2.1244    1.2701 C.ar      1 RES1    0.0000
     33 C33        5.5837   -1.7333    2.5607 C.ar      1 RES1    0.0000
     34 C34        4.5545   -1.5440    3.4951 C.ar      1 RES1    0.0000
     35 C35        5.0085   -0.9986    4.7633 C.2       1 RES1    0.0000
     36 C36        4.3334   -0.5625    5.8238 C.2       1 RES1    0.0000
     37 C37        2.9080   -0.5385    6.1090 C.ar      1 RES1    0.0000
     38 C38        2.5830    0.0620    7.3406 C.ar      1 RES1    0.0000
     39 C39        1.3018    0.1919    7.7939 C.ar      1 RES1    0.0000
     40 C40        0.2724   -0.2720    7.0065 C.ar      1 RES1    0.0000
     41 C41        0.5621   -0.8676    5.7946 C.ar      1 RES1    0.0000
     42 C42        1.8628   -1.0536    5.3102 C.ar      1 RES1    0.0000
     43 H1        -0.7400   -5.3278    3.2755 H         1 RES1    0.0000
     44 H2        -2.5207   -4.8508    1.8207 H         1 RES1    0.0000
     45 H3        -0.5726    1.1781    1.3414 H         1 RES1    0.0000
     46 H4         1.2423    0.7218    2.7720 H         1 RES1    0.0000
     47 H5        -3.6892   -2.5438    0.1338 H         1 RES1    0.0000
     48 H6        -2.9312   -0.2289   -0.0539 H         1 RES1    0.0000
     49 H7         1.2946   -5.1592    2.0493 H         1 RES1    0.0000
     50 H8         2.8412   -6.6029    1.1315 H         1 RES1    0.0000
     51 H9         4.9370   -6.8397    2.0976 H         1 RES1    0.0000
     52 H10        5.4465   -5.6298    3.9926 H         1 RES1    0.0000
     53 H11        5.0306   -3.8396    5.4678 H         1 RES1    0.0000
     54 H12        3.8603   -3.1575    7.1436 H         1 RES1    0.0000
     55 H13        2.1516   -3.6647    8.6838 H         1 RES1    0.0000
     56 H14       -0.0558   -4.0177    9.2375 H         1 RES1    0.0000
     57 H15       -1.6150   -4.3436    7.5394 H         1 RES1    0.0000
     58 H16       -0.9867   -4.1019    5.3340 H         1 RES1    0.0000
     59 H17        2.1642   -2.3769    1.4789 H         1 RES1    0.0000
     60 H18        3.8891   -2.6043   -0.0204 H         1 RES1    0.0000
     61 H19        6.0839   -2.2354    0.6726 H         1 RES1    0.0000
     62 H20        6.4692   -1.5835    2.8370 H         1 RES1    0.0000
     63 H21        5.9435   -0.9444    4.8491 H         1 RES1    0.0000
     64 H22        4.8722   -0.2083    6.5082 H         1 RES1    0.0000
     65 H23        3.2823    0.3895    7.8756 H         1 RES1    0.0000
     66 H24        1.1253    0.5899    8.6262 H         1 RES1    0.0000
     67 H25       -0.6194   -0.1844    7.2904 H         1 RES1    0.0000
     68 H26       -0.1548   -1.1654    5.2634 H         1 RES1    0.0000
@<TRIPOS>BOND
     1    1    2 ar
     2    2    3 ar
     3    3    4 ar
     4    4    5 ar
     5    5    6 ar
     6    6    7 ar
     7    7    8 ar
     8    8    9 ar
     9    9   10 ar
    10   10    1 ar
    11   11    4 1
    12   12    6 1
    13   13    1 1
    14   14   13 1
    15   15   14 ar
    16   16   15 ar
    17   17   16 ar
    18   18   17 ar
    19   19   14 ar
    20   20   19 1
    21   21   20 2
    22   22   21 1
    23   23   22 ar
    24   24   23 ar
    25   25   24 ar
    26   26   25 ar
    27   27   13 1
    28   28    9 1
    29   29   28 1
    30   30   29 ar
    31   31   30 ar
    32   32   31 ar
    33   33   32 ar
    34   34   29 ar
    35   35   34 1
    36   36   35 2
    37   37   36 1
    38   38   37 ar
    39   39   38 ar
    40   40   39 ar
    41   41   40 ar
    42   42   28 1
    43   43    2 1
    44   44    3 1
    45   45    7 1
    46   46    8 1
    47   47   11 1
    48   48   12 1
    49   49   15 1
    50   50   16 1
    51   51   17 1
    52   52   18 1
    53   53   20 1
    54   54   21 1
    55   55   23 1
    56   56   24 1
    57   57   25 1
    58   58   26 1
    59   59   30 1
    60   60   31 1
    61   61   32 1
    62   62   33 1
    63   63   35 1
    64   64   36 1
    65   65   38 1
    66   66   39 1
    67   67   40 1
    68   68   41 1
    69    5   10 ar
    70   11   12 2
    71   13   28 1
    72   18   19 ar
    73   22   27 ar
    74   26   27 ar
    75   33   34 ar
    76   37   42 ar
    77   41   42 ar
@<TRIPOS>SUBSTRUCTURE
     1 RES1 1

@<TRIPOS>CRYSIN
  18.0050   15.8990   18.5790  90.0000  90.0000  90.0000  61 1

