# MOL2 file generated by ConQuest
# Please check atom types

@<TRIPOS>MOLECULE
PEVRIU05
   198   222     3
SMALL
NO_CHARGES
****
Generated from CSD

@<TRIPOS>ATOM
      1 C1        -0.1475    1.9100   12.7622 C.ar      1 RES1    0.0000
      2 C2        -0.8010    1.9683   13.9734 C.ar      1 RES1    0.0000
      3 C3        -2.2037    1.9423   14.0117 C.ar      1 RES1    0.0000
      4 C4        -2.9680    1.8474   12.8841 C.ar      1 RES1    0.0000
      5 C5        -2.3459    1.7523   11.6210 C.ar      1 RES1    0.0000
      6 C6        -2.9811    1.6164   10.3603 C.ar      1 RES1    0.0000
      7 C7        -2.2377    1.5024    9.2170 C.ar      1 RES1    0.0000
      8 C8        -0.8303    1.5544    9.2330 C.ar      1 RES1    0.0000
      9 C9        -0.1820    1.7149   10.4317 C.ar      1 RES1    0.0000
     10 C10       -0.9364    1.7905   11.6062 C.ar      1 RES1    0.0000
     11 C11        1.3501    1.9415   12.4375 C.3       1 RES1    0.0000
     12 C12        2.0613    0.7151   13.0451 C.ar      1 RES1    0.0000
     13 C13        1.3583   -0.2312   13.8054 C.ar      1 RES1    0.0000
     14 C14        1.9177   -1.4215   14.2095 C.ar      1 RES1    0.0000
     15 C15        3.2093   -1.7316   13.8578 C.ar      1 RES1    0.0000
     16 C16        3.9424   -0.8165   13.1440 C.ar      1 RES1    0.0000
     17 C17        3.4116    0.4274   12.7645 C.ar      1 RES1    0.0000
     18 C18        4.3216    1.3255   12.0806 C.2       1 RES1    0.0000
     19 C19        4.2981    2.6605   12.0533 C.2       1 RES1    0.0000
     20 C20        3.3590    3.5496   12.7124 C.ar      1 RES1    0.0000
     21 C21        3.8634    4.7936   13.1066 C.ar      1 RES1    0.0000
     22 C22        3.0906    5.7136   13.7704 C.ar      1 RES1    0.0000
     23 C23        1.7851    5.4078   14.0525 C.ar      1 RES1    0.0000
     24 C24        1.2591    4.2005   13.6477 C.ar      1 RES1    0.0000
     25 C25        2.0050    3.2433   12.9635 C.ar      1 RES1    0.0000
     26 C26        1.3161    1.8613   10.6981 C.3       1 RES1    0.0000
     27 C27        1.9670    0.5555   10.2012 C.ar      1 RES1    0.0000
     28 C28        1.3018   -0.6130   10.6048 C.ar      1 RES1    0.0000
     29 C29        1.8021   -1.8862   10.4084 C.ar      1 RES1    0.0000
     30 C30        2.9962   -2.0448    9.7428 C.ar      1 RES1    0.0000
     31 C31        3.6304   -0.9333    9.2649 C.ar      1 RES1    0.0000
     32 C32        3.1556    0.3759    9.4632 C.ar      1 RES1    0.0000
     33 C33        3.9629    1.4069    8.8411 C.2       1 RES1    0.0000
     34 C34        3.7922    2.7206    8.7417 C.2       1 RES1    0.0000
     35 C35        2.7576    3.5928    9.2510 C.ar      1 RES1    0.0000
     36 C36        2.8742    4.9319    8.8272 C.ar      1 RES1    0.0000
     37 C37        2.0227    5.9208    9.2127 C.ar      1 RES1    0.0000
     38 C38        0.9809    5.5910   10.0565 C.ar      1 RES1    0.0000
     39 C39        0.8167    4.2856   10.4594 C.ar      1 RES1    0.0000
     40 C40        1.6835    3.2453   10.1025 C.ar      1 RES1    0.0000
     41 H1        -0.3141    2.0240   14.7645 H         1 RES1    0.0000
     42 H2        -2.6290    1.9913   14.8373 H         1 RES1    0.0000
     43 H3        -3.8961    1.8462   12.9483 H         1 RES1    0.0000
     44 H4        -3.9100    1.6045   10.3097 H         1 RES1    0.0000
     45 H5        -2.6752    1.3865    8.4043 H         1 RES1    0.0000
     46 H6        -0.3467    1.4818    8.4419 H         1 RES1    0.0000
     47 H7         0.4786   -0.0466   14.0455 H         1 RES1    0.0000
     48 H8         1.4217   -2.0177   14.7222 H         1 RES1    0.0000
     49 H9         3.5812   -2.5487   14.0995 H         1 RES1    0.0000
     50 H10        4.8165   -1.0258   12.9060 H         1 RES1    0.0000
     51 H11        5.0077    0.9216   11.5996 H         1 RES1    0.0000
     52 H12        4.9643    3.0707   11.5503 H         1 RES1    0.0000
     53 H13        4.7487    5.0041   12.9130 H         1 RES1    0.0000
     54 H14        3.4482    6.5333   14.0244 H         1 RES1    0.0000
     55 H15        1.2550    6.0150   14.5178 H         1 RES1    0.0000
     56 H16        0.3674    4.0165   13.8387 H         1 RES1    0.0000
     57 H17        0.4779   -0.5259   11.0287 H         1 RES1    0.0000
     58 H18        1.3371   -2.6277   10.7233 H         1 RES1    0.0000
     59 H19        3.3636   -2.8904    9.6213 H         1 RES1    0.0000
     60 H20        4.4173   -1.0478    8.7825 H         1 RES1    0.0000
     61 H21        4.7406    1.0923    8.4395 H         1 RES1    0.0000
     62 H22        4.4562    3.1566    8.2586 H         1 RES1    0.0000
     63 H23        3.5711    5.1525    8.2516 H         1 RES1    0.0000
     64 H24        2.1380    6.7950    8.9165 H         1 RES1    0.0000
     65 H25        0.3921    6.2476   10.3520 H         1 RES1    0.0000
     66 H26        0.0877    4.0816   11.0005 H         1 RES1    0.0000
     67 C41       -2.0642   -0.7986   18.0554 C.ar      2 RES2    0.0000
     68 C42       -1.7176   -1.5139   16.9340 C.ar      2 RES2    0.0000
     69 C43       -1.5963   -2.9138   17.0137 C.ar      2 RES2    0.0000
     70 C44       -1.8035   -3.6001   18.1858 C.ar      2 RES2    0.0000
     71 C45       -2.1544   -2.8998   19.3630 C.ar      2 RES2    0.0000
     72 C46       -2.4069   -3.4457   20.6428 C.ar      2 RES2    0.0000
     73 C47       -2.7629   -2.6342   21.6822 C.ar      2 RES2    0.0000
     74 C48       -2.8846   -1.2408   21.5417 C.ar      2 RES2    0.0000
     75 C49       -2.6325   -0.6739   20.3133 C.ar      2 RES2    0.0000
     76 C50       -2.2791   -1.5003   19.2471 C.ar      2 RES2    0.0000
     77 C51       -2.3094    0.7038   18.2274 C.3       2 RES2    0.0000
     78 C52       -3.5402    1.1009   17.3677 C.ar      2 RES2    0.0000
     79 C53       -4.3151    0.1060   16.7658 C.ar      2 RES2    0.0000
     80 C54       -5.4449    0.3723   16.0271 C.ar      2 RES2    0.0000
     81 C55       -5.8711    1.6663   15.8607 C.ar      2 RES2    0.0000
     82 C56       -5.1541    2.6696   16.4585 C.ar      2 RES2    0.0000
     83 C57       -3.9951    2.4264   17.2127 C.ar      2 RES2    0.0000
     84 C58       -3.3506    3.5985   17.7759 C.2       2 RES2    0.0000
     85 C59       -2.0467    3.7924   18.0009 C.2       2 RES2    0.0000
     86 C60       -0.9472    2.8802   17.7361 C.ar      2 RES2    0.0000
     87 C61        0.2674    3.4860   17.3863 C.ar      2 RES2    0.0000
     88 C62        1.3919    2.7697   17.1018 C.ar      2 RES2    0.0000
     89 C63        1.3426    1.4088   17.2115 C.ar      2 RES2    0.0000
     90 C64        0.1609    0.7910   17.5733 C.ar      2 RES2    0.0000
     91 C65       -1.0254    1.4804   17.8275 C.ar      2 RES2    0.0000
     92 C66       -2.6722    0.8030   19.9078 C.3       2 RES2    0.0000
     93 C67       -4.1167    1.2798   20.1430 C.ar      2 RES2    0.0000
     94 C68       -5.1150    0.3408   19.8824 C.ar      2 RES2    0.0000
     95 C69       -6.4659    0.5990   19.9562 C.ar      2 RES2    0.0000
     96 C70       -6.8755    1.8607   20.3366 C.ar      2 RES2    0.0000
     97 C71       -5.9387    2.8044   20.6068 C.ar      2 RES2    0.0000
     98 C72       -4.5686    2.5579   20.5218 C.ar      2 RES2    0.0000
     99 C73       -3.7685    3.7019   20.9134 C.2       2 RES2    0.0000
    100 C74       -2.4663    3.7994   21.1660 C.2       2 RES2    0.0000
    101 C75       -1.4261    2.7990   21.1498 C.ar      2 RES2    0.0000
    102 C76       -0.2509    3.2273   21.7816 C.ar      2 RES2    0.0000
    103 C77        0.8149    2.4342   21.9733 C.ar      2 RES2    0.0000
    104 C78        0.7682    1.1421   21.4806 C.ar      2 RES2    0.0000
    105 C79       -0.3768    0.7056   20.8544 C.ar      2 RES2    0.0000
    106 C80       -1.5052    1.4851   20.6681 C.ar      2 RES2    0.0000
    107 H27       -1.5642   -1.0763   16.1272 H         2 RES2    0.0000
    108 H28       -1.3678   -3.3893   16.2470 H         2 RES2    0.0000
    109 H29       -1.7116   -4.5260   18.2042 H         2 RES2    0.0000
    110 H30       -2.3301   -4.3629   20.7769 H         2 RES2    0.0000
    111 H31       -2.9309   -3.0179   22.5132 H         2 RES2    0.0000
    112 H32       -3.1318   -0.7118   22.2665 H         2 RES2    0.0000
    113 H33       -4.0546   -0.7804   16.8696 H         2 RES2    0.0000
    114 H34       -5.9200   -0.3260   15.6385 H         2 RES2    0.0000
    115 H35       -6.6276    1.8576   15.3542 H         2 RES2    0.0000
    116 H36       -5.4459    3.5471   16.3598 H         2 RES2    0.0000
    117 H37       -3.9142    4.3015   18.0092 H         2 RES2    0.0000
    118 H38       -1.8156    4.6123   18.3733 H         2 RES2    0.0000
    119 H39        0.3085    4.4146   17.3466 H         2 RES2    0.0000
    120 H40        2.1737    3.1973   16.8391 H         2 RES2    0.0000
    121 H41        2.1027    0.8995   17.0435 H         2 RES2    0.0000
    122 H42        0.1563   -0.1358   17.6520 H         2 RES2    0.0000
    123 H43       -4.8507   -0.5176   19.6421 H         2 RES2    0.0000
    124 H44       -7.0884   -0.0611   19.7549 H         2 RES2    0.0000
    125 H45       -7.7807    2.0627   20.4057 H         2 RES2    0.0000
    126 H46       -6.2234    3.6543   20.8591 H         2 RES2    0.0000
    127 H47       -4.2431    4.4974   21.0025 H         2 RES2    0.0000
    128 H48       -2.1769    4.6548   21.3901 H         2 RES2    0.0000
    129 H49       -0.2075    4.1062   22.0832 H         2 RES2    0.0000
    130 H50        1.5649    2.7460   22.4263 H         2 RES2    0.0000
    131 H51        1.5000    0.5761   21.5711 H         2 RES2    0.0000
    132 H52       -0.3940   -0.1690   20.5373 H         2 RES2    0.0000
    133 C81        0.9316   -6.6641   20.8772 C.ar      3 RES3    0.0000
    134 C82        0.0368   -6.8476   21.9068 C.ar      3 RES3    0.0000
    135 C83       -1.2700   -7.2955   21.6190 C.ar      3 RES3    0.0000
    136 C84       -1.6966   -7.5613   20.3613 C.ar      3 RES3    0.0000
    137 C85       -0.8140   -7.4029   19.2716 C.ar      3 RES3    0.0000
    138 C86       -1.0751   -7.6713   17.9077 C.ar      3 RES3    0.0000
    139 C87       -0.1008   -7.5157   16.9667 C.ar      3 RES3    0.0000
    140 C88        1.1957   -7.0658   17.3071 C.ar      3 RES3    0.0000
    141 C89        1.4748   -6.7647   18.6135 C.ar      3 RES3    0.0000
    142 C90        0.4870   -6.9469   19.5798 C.ar      3 RES3    0.0000
    143 C91        2.3932   -6.1919   20.8942 C.3       3 RES3    0.0000
    144 C92        3.2655   -7.1560   21.7393 C.ar      3 RES3    0.0000
    145 C93        2.7030   -8.2915   22.3363 C.ar      3 RES3    0.0000
    146 C94        3.4657   -9.2307   22.9951 C.ar      3 RES3    0.0000
    147 C95        4.8201   -9.0947   23.0665 C.ar      3 RES3    0.0000
    148 C96        5.4033   -8.0002   22.4979 C.ar      3 RES3    0.0000
    149 C97        4.6563   -6.9985   21.8579 C.ar      3 RES3    0.0000
    150 C98        5.4122   -5.8708   21.3608 C.2       3 RES3    0.0000
    151 C99        5.0042   -4.6131   21.2492 C.2       3 RES3    0.0000
    152 C100       3.7008   -4.0621   21.5795 C.ar      3 RES3    0.0000
    153 C101       3.6899   -2.7391   22.0341 C.ar      3 RES3    0.0000
    154 C102       2.5581   -2.0994   22.3814 C.ar      3 RES3    0.0000
    155 C103       1.3462   -2.7488   22.2458 C.ar      3 RES3    0.0000
    156 C104       1.3245   -4.0466   21.7893 C.ar      3 RES3    0.0000
    157 C105       2.4756   -4.7525   21.4536 C.ar      3 RES3    0.0000
    158 C106       2.7945   -6.2762   19.2218 C.3       3 RES3    0.0000
    159 C107       3.7878   -7.4198   18.9525 C.ar      3 RES3    0.0000
    160 C108       3.2868   -8.7028   19.2309 C.ar      3 RES3    0.0000
    161 C109       3.9992   -9.8649   19.0810 C.ar      3 RES3    0.0000
    162 C110       5.2797   -9.7999   18.5815 C.ar      3 RES3    0.0000
    163 C111       5.8100   -8.5780   18.2930 C.ar      3 RES3    0.0000
    164 C112       5.1142   -7.3625   18.4807 C.ar      3 RES3    0.0000
    165 C113       5.8839   -6.1850   18.1743 C.2       3 RES3    0.0000
    166 C114       5.5283   -4.9123   18.0681 C.2       3 RES3    0.0000
    167 C115       4.2243   -4.2816   18.1757 C.ar      3 RES3    0.0000
    168 C116       4.1954   -2.9461   17.7439 C.ar      3 RES3    0.0000
    169 C117       3.0744   -2.1955   17.7279 C.ar      3 RES3    0.0000
    170 C118       1.8888   -2.7571   18.1741 C.ar      3 RES3    0.0000
    171 C119       1.8869   -4.0633   18.6031 C.ar      3 RES3    0.0000
    172 C120       3.0213   -4.8636   18.6398 C.ar      3 RES3    0.0000
    173 H53        0.2920   -6.6775   22.7858 H         3 RES3    0.0000
    174 H54       -1.8657   -7.4141   22.3253 H         3 RES3    0.0000
    175 H55       -2.5701   -7.8474   20.2154 H         3 RES3    0.0000
    176 H56       -1.9219   -7.9572   17.6497 H         3 RES3    0.0000
    177 H57       -0.2935   -7.7100   16.0778 H         3 RES3    0.0000
    178 H58        1.8500   -6.9765   16.6535 H         3 RES3    0.0000
    179 H59        1.7830   -8.4157   22.2853 H         3 RES3    0.0000
    180 H60        3.0539   -9.9629   23.3943 H         3 RES3    0.0000
    181 H61        5.3380   -9.7372   23.4953 H         3 RES3    0.0000
    182 H62        6.3288   -7.9144   22.5344 H         3 RES3    0.0000
    183 H63        6.2834   -6.0474   21.0870 H         3 RES3    0.0000
    184 H64        5.6298   -4.0091   20.9179 H         3 RES3    0.0000
    185 H65        4.4968   -2.2826   22.0997 H         3 RES3    0.0000
    186 H66        2.5919   -1.2295   22.7082 H         3 RES3    0.0000
    187 H67        0.5536   -2.3130   22.4615 H         3 RES3    0.0000
    188 H68        0.5013   -4.4721   21.7003 H         3 RES3    0.0000
    189 H69        2.4112   -8.7688   19.5387 H         3 RES3    0.0000
    190 H70        3.6240  -10.6838   19.3132 H         3 RES3    0.0000
    191 H71        5.7736  -10.5756   18.4438 H         3 RES3    0.0000
    192 H72        6.6757   -8.5423   17.9551 H         3 RES3    0.0000
    193 H73        6.7874   -6.3457   18.0256 H         3 RES3    0.0000
    194 H74        6.2289   -4.3259   17.8964 H         3 RES3    0.0000
    195 H75        4.9897   -2.5585   17.4547 H         3 RES3    0.0000
    196 H76        3.0963   -1.3175   17.4241 H         3 RES3    0.0000
    197 H77        1.1042   -2.2574   18.1830 H         3 RES3    0.0000
    198 H78        1.0803   -4.4320   18.8855 H         3 RES3    0.0000
@<TRIPOS>BOND
     1    1    2 ar
     2    2    3 ar
     3    3    4 ar
     4    4    5 ar
     5    5    6 ar
     6    6    7 ar
     7    7    8 ar
     8    8    9 ar
     9    9   10 ar
    10   10    1 ar
    11   11    1 1
    12   12   11 1
    13   13   12 ar
    14   14   13 ar
    15   15   14 ar
    16   16   15 ar
    17   17   12 ar
    18   18   17 1
    19   19   18 2
    20   20   19 1
    21   21   20 ar
    22   22   21 ar
    23   23   22 ar
    24   24   23 ar
    25   25   11 1
    26   26    9 1
    27   27   26 1
    28   28   27 ar
    29   29   28 ar
    30   30   29 ar
    31   31   30 ar
    32   32   27 ar
    33   33   32 1
    34   34   33 2
    35   35   34 1
    36   36   35 ar
    37   37   36 ar
    38   38   37 ar
    39   39   38 ar
    40   40   26 1
    41   41    2 1
    42   42    3 1
    43   43    4 1
    44   44    6 1
    45   45    7 1
    46   46    8 1
    47   47   13 1
    48   48   14 1
    49   49   15 1
    50   50   16 1
    51   51   18 1
    52   52   19 1
    53   53   21 1
    54   54   22 1
    55   55   23 1
    56   56   24 1
    57   57   28 1
    58   58   29 1
    59   59   30 1
    60   60   31 1
    61   61   33 1
    62   62   34 1
    63   63   36 1
    64   64   37 1
    65   65   38 1
    66   66   39 1
    67   67   68 ar
    68   68   69 ar
    69   69   70 ar
    70   70   71 ar
    71   71   72 ar
    72   72   73 ar
    73   73   74 ar
    74   74   75 ar
    75   75   76 ar
    76   76   67 ar
    77   77   67 1
    78   78   77 1
    79   79   78 ar
    80   80   79 ar
    81   81   80 ar
    82   82   81 ar
    83   83   78 ar
    84   84   83 1
    85   85   84 2
    86   86   85 1
    87   87   86 ar
    88   88   87 ar
    89   89   88 ar
    90   90   89 ar
    91   91   77 1
    92   92   75 1
    93   93   92 1
    94   94   93 ar
    95   95   94 ar
    96   96   95 ar
    97   97   96 ar
    98   98   93 ar
    99   99   98 1
   100  100   99 2
   101  101  100 1
   102  102  101 ar
   103  103  102 ar
   104  104  103 ar
   105  105  104 ar
   106  106   92 1
   107  107   68 1
   108  108   69 1
   109  109   70 1
   110  110   72 1
   111  111   73 1
   112  112   74 1
   113  113   79 1
   114  114   80 1
   115  115   81 1
   116  116   82 1
   117  117   84 1
   118  118   85 1
   119  119   87 1
   120  120   88 1
   121  121   89 1
   122  122   90 1
   123  123   94 1
   124  124   95 1
   125  125   96 1
   126  126   97 1
   127  127   99 1
   128  128  100 1
   129  129  102 1
   130  130  103 1
   131  131  104 1
   132  132  105 1
   133  133  134 ar
   134  134  135 ar
   135  135  136 ar
   136  136  137 ar
   137  137  138 ar
   138  138  139 ar
   139  139  140 ar
   140  140  141 ar
   141  141  142 ar
   142  142  133 ar
   143  143  133 1
   144  144  143 1
   145  145  144 ar
   146  146  145 ar
   147  147  146 ar
   148  148  147 ar
   149  149  144 ar
   150  150  149 1
   151  151  150 2
   152  152  151 1
   153  153  152 ar
   154  154  153 ar
   155  155  154 ar
   156  156  155 ar
   157  157  143 1
   158  158  141 1
   159  159  158 1
   160  160  159 ar
   161  161  160 ar
   162  162  161 ar
   163  163  162 ar
   164  164  159 ar
   165  165  164 1
   166  166  165 2
   167  167  166 1
   168  168  167 ar
   169  169  168 ar
   170  170  169 ar
   171  171  170 ar
   172  172  158 1
   173  173  134 1
   174  174  135 1
   175  175  136 1
   176  176  138 1
   177  177  139 1
   178  178  140 1
   179  179  145 1
   180  180  146 1
   181  181  147 1
   182  182  148 1
   183  183  150 1
   184  184  151 1
   185  185  153 1
   186  186  154 1
   187  187  155 1
   188  188  156 1
   189  189  160 1
   190  190  161 1
   191  191  162 1
   192  192  163 1
   193  193  165 1
   194  194  166 1
   195  195  168 1
   196  196  169 1
   197  197  170 1
   198  198  171 1
   199    5   10 ar
   200   11   26 1
   201   16   17 ar
   202   20   25 ar
   203   24   25 ar
   204   31   32 ar
   205   35   40 ar
   206   39   40 ar
   207   71   76 ar
   208   77   92 1
   209   82   83 ar
   210   86   91 ar
   211   90   91 ar
   212   97   98 ar
   213  101  106 ar
   214  105  106 ar
   215  137  142 ar
   216  143  158 1
   217  148  149 ar
   218  152  157 ar
   219  156  157 ar
   220  163  164 ar
   221  167  172 ar
   222  171  172 ar
@<TRIPOS>SUBSTRUCTURE
     1 RES1 1
     2 RES2 67
     3 RES3 133

@<TRIPOS>CRYSIN
  10.9760   15.1580   23.7920  98.9830  90.4490  94.4820   2 1

