# MOL2 file generated by ConQuest
# Please check atom types

@<TRIPOS>MOLECULE
PEVRIU04
   198   222     3
SMALL
NO_CHARGES
****
Generated from CSD

@<TRIPOS>ATOM
      1 C1        -0.1750    1.9171   12.7454 C.ar      1 RES1    0.0000
      2 C2        -0.8280    1.9776   13.9591 C.ar      1 RES1    0.0000
      3 C3        -2.2347    1.9502   13.9950 C.ar      1 RES1    0.0000
      4 C4        -2.9993    1.8600   12.8639 C.ar      1 RES1    0.0000
      5 C5        -2.3747    1.7637   11.6023 C.ar      1 RES1    0.0000
      6 C6        -3.0103    1.6256   10.3409 C.ar      1 RES1    0.0000
      7 C7        -2.2658    1.5080    9.1980 C.ar      1 RES1    0.0000
      8 C8        -0.8523    1.5557    9.2149 C.ar      1 RES1    0.0000
      9 C9        -0.2099    1.7205   10.4157 C.ar      1 RES1    0.0000
     10 C10       -0.9638    1.7963   11.5889 C.ar      1 RES1    0.0000
     11 C11        1.3247    1.9483   12.4207 C.3       1 RES1    0.0000
     12 C12        2.0376    0.7208   13.0309 C.ar      1 RES1    0.0000
     13 C13        1.3356   -0.2262   13.7909 C.ar      1 RES1    0.0000
     14 C14        1.9005   -1.4179   14.1963 C.ar      1 RES1    0.0000
     15 C15        3.1936   -1.7269   13.8376 C.ar      1 RES1    0.0000
     16 C16        3.9249   -0.8124   13.1194 C.ar      1 RES1    0.0000
     17 C17        3.3911    0.4316   12.7442 C.ar      1 RES1    0.0000
     18 C18        4.2978    1.3303   12.0586 C.2       1 RES1    0.0000
     19 C19        4.2764    2.6635   12.0330 C.2       1 RES1    0.0000
     20 C20        3.3298    3.5568   12.6928 C.ar      1 RES1    0.0000
     21 C21        3.8384    4.8011   13.0877 C.ar      1 RES1    0.0000
     22 C22        3.0635    5.7225   13.7515 C.ar      1 RES1    0.0000
     23 C23        1.7542    5.4146   14.0366 C.ar      1 RES1    0.0000
     24 C24        1.2284    4.2051   13.6325 C.ar      1 RES1    0.0000
     25 C25        1.9768    3.2467   12.9460 C.ar      1 RES1    0.0000
     26 C26        1.2905    1.8685   10.6816 C.3       1 RES1    0.0000
     27 C27        1.9448    0.5606   10.1835 C.ar      1 RES1    0.0000
     28 C28        1.2829   -0.6092   10.5882 C.ar      1 RES1    0.0000
     29 C29        1.7855   -1.8822   10.3991 C.ar      1 RES1    0.0000
     30 C30        2.9851   -2.0443    9.7337 C.ar      1 RES1    0.0000
     31 C31        3.6184   -0.9320    9.2506 C.ar      1 RES1    0.0000
     32 C32        3.1358    0.3799    9.4484 C.ar      1 RES1    0.0000
     33 C33        3.9457    1.4083    8.8238 C.2       1 RES1    0.0000
     34 C34        3.7705    2.7222    8.7224 C.2       1 RES1    0.0000
     35 C35        2.7293    3.5936    9.2339 C.ar      1 RES1    0.0000
     36 C36        2.8443    4.9318    8.8102 C.ar      1 RES1    0.0000
     37 C37        1.9857    5.9245    9.1964 C.ar      1 RES1    0.0000
     38 C38        0.9473    5.5970   10.0448 C.ar      1 RES1    0.0000
     39 C39        0.7863    4.2895   10.4451 C.ar      1 RES1    0.0000
     40 C40        1.6592    3.2469   10.0868 C.ar      1 RES1    0.0000
     41 H1        -0.3414    2.0370   14.7489 H         1 RES1    0.0000
     42 H2        -2.6613    1.9957   14.8193 H         1 RES1    0.0000
     43 H3        -3.9272    1.8627   12.9258 H         1 RES1    0.0000
     44 H4        -3.9391    1.6148   10.2909 H         1 RES1    0.0000
     45 H5        -2.7036    1.3932    8.3857 H         1 RES1    0.0000
     46 H6        -0.3665    1.4774    8.4256 H         1 RES1    0.0000
     47 H7         0.4555   -0.0434   14.0309 H         1 RES1    0.0000
     48 H8         1.4068   -2.0139   14.7137 H         1 RES1    0.0000
     49 H9         3.5662   -2.5439   14.0779 H         1 RES1    0.0000
     50 H10        4.7970   -1.0221   12.8742 H         1 RES1    0.0000
     51 H11        4.9819    0.9255   11.5743 H         1 RES1    0.0000
     52 H12        4.9463    3.0732   11.5345 H         1 RES1    0.0000
     53 H13        4.7239    5.0095   12.8953 H         1 RES1    0.0000
     54 H14        3.4200    6.5438   14.0028 H         1 RES1    0.0000
     55 H15        1.2242    6.0213   14.5002 H         1 RES1    0.0000
     56 H16        0.3379    4.0198   13.8268 H         1 RES1    0.0000
     57 H17        0.4577   -0.5227   11.0089 H         1 RES1    0.0000
     58 H18        1.3214   -2.6222   10.7156 H         1 RES1    0.0000
     59 H19        3.3535   -2.8903    9.6175 H         1 RES1    0.0000
     60 H20        4.4055   -1.0458    8.7682 H         1 RES1    0.0000
     61 H21        4.7238    1.0930    8.4233 H         1 RES1    0.0000
     62 H22        4.4326    3.1596    8.2379 H         1 RES1    0.0000
     63 H23        3.5423    5.1536    8.2355 H         1 RES1    0.0000
     64 H24        2.0990    6.7966    8.8949 H         1 RES1    0.0000
     65 H25        0.3610    6.2544   10.3449 H         1 RES1    0.0000
     66 H26        0.0573    4.0838   10.9854 H         1 RES1    0.0000
     67 C41       -2.0809   -0.7851   18.0288 C.ar      2 RES2    0.0000
     68 C42       -1.7279   -1.4973   16.9023 C.ar      2 RES2    0.0000
     69 C43       -1.6056   -2.9003   16.9856 C.ar      2 RES2    0.0000
     70 C44       -1.8115   -3.5858   18.1553 C.ar      2 RES2    0.0000
     71 C45       -2.1637   -2.8894   19.3305 C.ar      2 RES2    0.0000
     72 C46       -2.4179   -3.4379   20.6095 C.ar      2 RES2    0.0000
     73 C47       -2.7833   -2.6239   21.6520 C.ar      2 RES2    0.0000
     74 C48       -2.9084   -1.2275   21.5112 C.ar      2 RES2    0.0000
     75 C49       -2.6536   -0.6625   20.2867 C.ar      2 RES2    0.0000
     76 C50       -2.2941   -1.4877   19.2177 C.ar      2 RES2    0.0000
     77 C51       -2.3315    0.7191   18.1999 C.3       2 RES2    0.0000
     78 C52       -3.5655    1.1123   17.3437 C.ar      2 RES2    0.0000
     79 C53       -4.3329    0.1145   16.7376 C.ar      2 RES2    0.0000
     80 C54       -5.4692    0.3816   16.0002 C.ar      2 RES2    0.0000
     81 C55       -5.9002    1.6797   15.8317 C.ar      2 RES2    0.0000
     82 C56       -5.1857    2.6850   16.4324 C.ar      2 RES2    0.0000
     83 C57       -4.0256    2.4387   17.1879 C.ar      2 RES2    0.0000
     84 C58       -3.3866    3.6131   17.7548 C.2       2 RES2    0.0000
     85 C59       -2.0786    3.8077   17.9824 C.2       2 RES2    0.0000
     86 C60       -0.9745    2.8965   17.7135 C.ar      2 RES2    0.0000
     87 C61        0.2345    3.5057   17.3594 C.ar      2 RES2    0.0000
     88 C62        1.3649    2.7943   17.0708 C.ar      2 RES2    0.0000
     89 C63        1.3201    1.4295   17.1797 C.ar      2 RES2    0.0000
     90 C64        0.1434    0.8084   17.5443 C.ar      2 RES2    0.0000
     91 C65       -1.0498    1.4954   17.8000 C.ar      2 RES2    0.0000
     92 C66       -2.6926    0.8189   19.8793 C.3       2 RES2    0.0000
     93 C67       -4.1451    1.2944   20.1133 C.ar      2 RES2    0.0000
     94 C68       -5.1389    0.3494   19.8507 C.ar      2 RES2    0.0000
     95 C69       -6.4909    0.6165   19.9213 C.ar      2 RES2    0.0000
     96 C70       -6.9079    1.8792   20.3045 C.ar      2 RES2    0.0000
     97 C71       -5.9704    2.8183   20.5809 C.ar      2 RES2    0.0000
     98 C72       -4.5987    2.5754   20.4941 C.ar      2 RES2    0.0000
     99 C73       -3.8011    3.7177   20.8934 C.2       2 RES2    0.0000
    100 C74       -2.5030    3.8159   21.1487 C.2       2 RES2    0.0000
    101 C75       -1.4559    2.8118   21.1304 C.ar      2 RES2    0.0000
    102 C76       -0.2818    3.2414   21.7597 C.ar      2 RES2    0.0000
    103 C77        0.7922    2.4429   21.9532 C.ar      2 RES2    0.0000
    104 C78        0.7469    1.1533   21.4528 C.ar      2 RES2    0.0000
    105 C79       -0.3966    0.7191   20.8254 C.ar      2 RES2    0.0000
    106 C80       -1.5290    1.4984   20.6400 C.ar      2 RES2    0.0000
    107 H27       -1.5725   -1.0578   16.0980 H         2 RES2    0.0000
    108 H28       -1.3767   -3.3770   16.2200 H         2 RES2    0.0000
    109 H29       -1.7189   -4.5108   18.1745 H         2 RES2    0.0000
    110 H30       -2.3353   -4.3552   20.7437 H         2 RES2    0.0000
    111 H31       -2.9545   -3.0084   22.4823 H         2 RES2    0.0000
    112 H32       -3.1588   -0.6993   22.2336 H         2 RES2    0.0000
    113 H33       -4.0665   -0.7701   16.8348 H         2 RES2    0.0000
    114 H34       -5.9463   -0.3186   15.6147 H         2 RES2    0.0000
    115 H35       -6.6563    1.8689   15.3237 H         2 RES2    0.0000
    116 H36       -5.4793    3.5614   16.3374 H         2 RES2    0.0000
    117 H37       -3.9514    4.3137   17.9892 H         2 RES2    0.0000
    118 H38       -1.8486    4.6266   18.3575 H         2 RES2    0.0000
    119 H39        0.2704    4.4337   17.3181 H         2 RES2    0.0000
    120 H40        2.1455    3.2260   16.8066 H         2 RES2    0.0000
    121 H41        2.0805    0.9228   17.0084 H         2 RES2    0.0000
    122 H42        0.1425   -0.1182   17.6255 H         2 RES2    0.0000
    123 H43       -4.8736   -0.5106   19.6151 H         2 RES2    0.0000
    124 H44       -7.1137   -0.0433   19.7137 H         2 RES2    0.0000
    125 H45       -7.8140    2.0800   20.3707 H         2 RES2    0.0000
    126 H46       -6.2544    3.6641   20.8399 H         2 RES2    0.0000
    127 H47       -4.2779    4.5118   20.9854 H         2 RES2    0.0000
    128 H48       -2.2167    4.6701   21.3772 H         2 RES2    0.0000
    129 H49       -0.2393    4.1212   22.0600 H         2 RES2    0.0000
    130 H50        1.5400    2.7528   22.4096 H         2 RES2    0.0000
    131 H51        1.4808    0.5879   21.5391 H         2 RES2    0.0000
    132 H52       -0.4114   -0.1536   20.5044 H         2 RES2    0.0000
    133 C81        0.9147   -6.6418   20.8507 C.ar      3 RES3    0.0000
    134 C82        0.0182   -6.8253   21.8789 C.ar      3 RES3    0.0000
    135 C83       -1.2873   -7.2754   21.5907 C.ar      3 RES3    0.0000
    136 C84       -1.7125   -7.5443   20.3289 C.ar      3 RES3    0.0000
    137 C85       -0.8254   -7.3790   19.2386 C.ar      3 RES3    0.0000
    138 C86       -1.0868   -7.6491   17.8742 C.ar      3 RES3    0.0000
    139 C87       -0.1097   -7.4942   16.9371 C.ar      3 RES3    0.0000
    140 C88        1.1880   -7.0445   17.2789 C.ar      3 RES3    0.0000
    141 C89        1.4650   -6.7464   18.5870 C.ar      3 RES3    0.0000
    142 C90        0.4732   -6.9243   19.5527 C.ar      3 RES3    0.0000
    143 C91        2.3781   -6.1686   20.8681 C.3       3 RES3    0.0000
    144 C92        3.2499   -7.1320   21.7125 C.ar      3 RES3    0.0000
    145 C93        2.6914   -8.2645   22.3127 C.ar      3 RES3    0.0000
    146 C94        3.4608   -9.2054   22.9741 C.ar      3 RES3    0.0000
    147 C95        4.8171   -9.0710   23.0389 C.ar      3 RES3    0.0000
    148 C96        5.3963   -7.9736   22.4654 C.ar      3 RES3    0.0000
    149 C97        4.6473   -6.9762   21.8298 C.ar      3 RES3    0.0000
    150 C98        5.3985   -5.8458   21.3289 C.2       3 RES3    0.0000
    151 C99        4.9857   -4.5863   21.2186 C.2       3 RES3    0.0000
    152 C100       3.6777   -4.0395   21.5544 C.ar      3 RES3    0.0000
    153 C101       3.6734   -2.7128   22.0103 C.ar      3 RES3    0.0000
    154 C102       2.5281   -2.0747   22.3599 C.ar      3 RES3    0.0000
    155 C103       1.3249   -2.7241   22.2242 C.ar      3 RES3    0.0000
    156 C104       1.2961   -4.0259   21.7644 C.ar      3 RES3    0.0000
    157 C105       2.4578   -4.7323   21.4281 C.ar      3 RES3    0.0000
    158 C106       2.7825   -6.2545   19.1963 C.3       3 RES3    0.0000
    159 C107       3.7831   -7.3997   18.9293 C.ar      3 RES3    0.0000
    160 C108       3.2784   -8.6805   19.2104 C.ar      3 RES3    0.0000
    161 C109       4.0021   -9.8426   19.0624 C.ar      3 RES3    0.0000
    162 C110       5.2812   -9.7780   18.5565 C.ar      3 RES3    0.0000
    163 C111       5.8077   -8.5551   18.2667 C.ar      3 RES3    0.0000
    164 C112       5.1076   -7.3424   18.4537 C.ar      3 RES3    0.0000
    165 C113       5.8749   -6.1580   18.1447 C.2       3 RES3    0.0000
    166 C114       5.5119   -4.8863   18.0368 C.2       3 RES3    0.0000
    167 C115       4.2042   -4.2554   18.1522 C.ar      3 RES3    0.0000
    168 C116       4.1749   -2.9188   17.7153 C.ar      3 RES3    0.0000
    169 C117       3.0413   -2.1655   17.7024 C.ar      3 RES3    0.0000
    170 C118       1.8669   -2.7331   18.1508 C.ar      3 RES3    0.0000
    171 C119       1.8647   -4.0399   18.5814 C.ar      3 RES3    0.0000
    172 C120       3.0083   -4.8424   18.6156 C.ar      3 RES3    0.0000
    173 H53        0.2718   -6.6542   22.7569 H         3 RES3    0.0000
    174 H54       -1.8832   -7.3929   22.2946 H         3 RES3    0.0000
    175 H55       -2.5828   -7.8353   20.1830 H         3 RES3    0.0000
    176 H56       -1.9327   -7.9355   17.6161 H         3 RES3    0.0000
    177 H57       -0.3007   -7.6886   16.0488 H         3 RES3    0.0000
    178 H58        1.8432   -6.9531   16.6259 H         3 RES3    0.0000
    179 H59        1.7716   -8.3905   22.2665 H         3 RES3    0.0000
    180 H60        3.0507   -9.9355   23.3786 H         3 RES3    0.0000
    181 H61        5.3371   -9.7139   23.4654 H         3 RES3    0.0000
    182 H62        6.3218   -7.8870   22.4988 H         3 RES3    0.0000
    183 H63        6.2696   -6.0190   21.0534 H         3 RES3    0.0000
    184 H64        5.6086   -3.9809   20.8868 H         3 RES3    0.0000
    185 H65        4.4804   -2.2556   22.0741 H         3 RES3    0.0000
    186 H66        2.5565   -1.2046   22.6888 H         3 RES3    0.0000
    187 H67        0.5323   -2.2883   22.4425 H         3 RES3    0.0000
    188 H68        0.4738   -4.4500   21.6752 H         3 RES3    0.0000
    189 H69        2.4028   -8.7480   19.5143 H         3 RES3    0.0000
    190 H70        3.6313  -10.6609   19.3007 H         3 RES3    0.0000
    191 H71        5.7760  -10.5524   18.4162 H         3 RES3    0.0000
    192 H72        6.6729   -8.5162   17.9282 H         3 RES3    0.0000
    193 H73        6.7796   -6.3131   17.9962 H         3 RES3    0.0000
    194 H74        6.2098   -4.2991   17.8578 H         3 RES3    0.0000
    195 H75        4.9679   -2.5307   17.4213 H         3 RES3    0.0000
    196 H76        3.0577   -1.2864   17.3979 H         3 RES3    0.0000
    197 H77        1.0814   -2.2347   18.1628 H         3 RES3    0.0000
    198 H78        1.0597   -4.4089   18.8643 H         3 RES3    0.0000
@<TRIPOS>BOND
     1    1    2 ar
     2    2    3 ar
     3    3    4 ar
     4    4    5 ar
     5    5    6 ar
     6    6    7 ar
     7    7    8 ar
     8    8    9 ar
     9    9   10 ar
    10   10    1 ar
    11   11    1 1
    12   12   11 1
    13   13   12 ar
    14   14   13 ar
    15   15   14 ar
    16   16   15 ar
    17   17   12 ar
    18   18   17 1
    19   19   18 2
    20   20   19 1
    21   21   20 ar
    22   22   21 ar
    23   23   22 ar
    24   24   23 ar
    25   25   11 1
    26   26    9 1
    27   27   26 1
    28   28   27 ar
    29   29   28 ar
    30   30   29 ar
    31   31   30 ar
    32   32   27 ar
    33   33   32 1
    34   34   33 2
    35   35   34 1
    36   36   35 ar
    37   37   36 ar
    38   38   37 ar
    39   39   38 ar
    40   40   26 1
    41   41    2 1
    42   42    3 1
    43   43    4 1
    44   44    6 1
    45   45    7 1
    46   46    8 1
    47   47   13 1
    48   48   14 1
    49   49   15 1
    50   50   16 1
    51   51   18 1
    52   52   19 1
    53   53   21 1
    54   54   22 1
    55   55   23 1
    56   56   24 1
    57   57   28 1
    58   58   29 1
    59   59   30 1
    60   60   31 1
    61   61   33 1
    62   62   34 1
    63   63   36 1
    64   64   37 1
    65   65   38 1
    66   66   39 1
    67   67   68 ar
    68   68   69 ar
    69   69   70 ar
    70   70   71 ar
    71   71   72 ar
    72   72   73 ar
    73   73   74 ar
    74   74   75 ar
    75   75   76 ar
    76   76   67 ar
    77   77   67 1
    78   78   77 1
    79   79   78 ar
    80   80   79 ar
    81   81   80 ar
    82   82   81 ar
    83   83   78 ar
    84   84   83 1
    85   85   84 2
    86   86   85 1
    87   87   86 ar
    88   88   87 ar
    89   89   88 ar
    90   90   89 ar
    91   91   77 1
    92   92   75 1
    93   93   92 1
    94   94   93 ar
    95   95   94 ar
    96   96   95 ar
    97   97   96 ar
    98   98   93 ar
    99   99   98 1
   100  100   99 2
   101  101  100 1
   102  102  101 ar
   103  103  102 ar
   104  104  103 ar
   105  105  104 ar
   106  106   92 1
   107  107   68 1
   108  108   69 1
   109  109   70 1
   110  110   72 1
   111  111   73 1
   112  112   74 1
   113  113   79 1
   114  114   80 1
   115  115   81 1
   116  116   82 1
   117  117   84 1
   118  118   85 1
   119  119   87 1
   120  120   88 1
   121  121   89 1
   122  122   90 1
   123  123   94 1
   124  124   95 1
   125  125   96 1
   126  126   97 1
   127  127   99 1
   128  128  100 1
   129  129  102 1
   130  130  103 1
   131  131  104 1
   132  132  105 1
   133  133  134 ar
   134  134  135 ar
   135  135  136 ar
   136  136  137 ar
   137  137  138 ar
   138  138  139 ar
   139  139  140 ar
   140  140  141 ar
   141  141  142 ar
   142  142  133 ar
   143  143  133 1
   144  144  143 1
   145  145  144 ar
   146  146  145 ar
   147  147  146 ar
   148  148  147 ar
   149  149  144 ar
   150  150  149 1
   151  151  150 2
   152  152  151 1
   153  153  152 ar
   154  154  153 ar
   155  155  154 ar
   156  156  155 ar
   157  157  143 1
   158  158  141 1
   159  159  158 1
   160  160  159 ar
   161  161  160 ar
   162  162  161 ar
   163  163  162 ar
   164  164  159 ar
   165  165  164 1
   166  166  165 2
   167  167  166 1
   168  168  167 ar
   169  169  168 ar
   170  170  169 ar
   171  171  170 ar
   172  172  158 1
   173  173  134 1
   174  174  135 1
   175  175  136 1
   176  176  138 1
   177  177  139 1
   178  178  140 1
   179  179  145 1
   180  180  146 1
   181  181  147 1
   182  182  148 1
   183  183  150 1
   184  184  151 1
   185  185  153 1
   186  186  154 1
   187  187  155 1
   188  188  156 1
   189  189  160 1
   190  190  161 1
   191  191  162 1
   192  192  163 1
   193  193  165 1
   194  194  166 1
   195  195  168 1
   196  196  169 1
   197  197  170 1
   198  198  171 1
   199    5   10 ar
   200   11   26 1
   201   16   17 ar
   202   20   25 ar
   203   24   25 ar
   204   31   32 ar
   205   35   40 ar
   206   39   40 ar
   207   71   76 ar
   208   77   92 1
   209   82   83 ar
   210   86   91 ar
   211   90   91 ar
   212   97   98 ar
   213  101  106 ar
   214  105  106 ar
   215  137  142 ar
   216  143  158 1
   217  148  149 ar
   218  152  157 ar
   219  156  157 ar
   220  163  164 ar
   221  167  172 ar
   222  171  172 ar
@<TRIPOS>SUBSTRUCTURE
     1 RES1 1
     2 RES2 67
     3 RES3 133

@<TRIPOS>CRYSIN
  10.9670   15.1410   23.7570  98.9350  90.5130  94.6490   2 1

