# MOL2 file generated by ConQuest
# Please check atom types

@<TRIPOS>MOLECULE
PEVRIU
   198   222     3
SMALL
NO_CHARGES
****
Generated from CSD

@<TRIPOS>ATOM
      1 C1        -0.2421    1.9020   12.6735 C.ar      1 RES1    0.0000
      2 C2        -0.8937    1.9655   13.8907 C.ar      1 RES1    0.0000
      3 C3        -2.3032    1.9462   13.9282 C.ar      1 RES1    0.0000
      4 C4        -3.0741    1.8605   12.7916 C.ar      1 RES1    0.0000
      5 C5        -2.4431    1.7600   11.5282 C.ar      1 RES1    0.0000
      6 C6        -3.0857    1.6230   10.2645 C.ar      1 RES1    0.0000
      7 C7        -2.3331    1.4979    9.1222 C.ar      1 RES1    0.0000
      8 C8        -0.9197    1.5371    9.1364 C.ar      1 RES1    0.0000
      9 C9        -0.2774    1.6987   10.3412 C.ar      1 RES1    0.0000
     10 C10       -1.0312    1.7840   11.5173 C.ar      1 RES1    0.0000
     11 C11        1.2591    1.9248   12.3500 C.3       1 RES1    0.0000
     12 C12        1.9669    0.6972   12.9639 C.ar      1 RES1    0.0000
     13 C13        1.2625   -0.2436   13.7318 C.ar      1 RES1    0.0000
     14 C14        1.8220   -1.4421   14.1344 C.ar      1 RES1    0.0000
     15 C15        3.1165   -1.7640   13.7624 C.ar      1 RES1    0.0000
     16 C16        3.8491   -0.8473   13.0365 C.ar      1 RES1    0.0000
     17 C17        3.3182    0.4025   12.6691 C.ar      1 RES1    0.0000
     18 C18        4.2296    1.2981   11.9754 C.2       1 RES1    0.0000
     19 C19        4.2071    2.6331   11.9504 C.2       1 RES1    0.0000
     20 C20        3.2718    3.5290   12.6145 C.ar      1 RES1    0.0000
     21 C21        3.7859    4.7734   13.0041 C.ar      1 RES1    0.0000
     22 C22        3.0166    5.7077   13.6691 C.ar      1 RES1    0.0000
     23 C23        1.7000    5.4020   13.9623 C.ar      1 RES1    0.0000
     24 C24        1.1720    4.1875   13.5648 C.ar      1 RES1    0.0000
     25 C25        1.9159    3.2252   12.8730 C.ar      1 RES1    0.0000
     26 C26        1.2273    1.8455   10.6139 C.3       1 RES1    0.0000
     27 C27        1.8795    0.5335   10.1175 C.ar      1 RES1    0.0000
     28 C28        1.2087   -0.6329   10.5311 C.ar      1 RES1    0.0000
     29 C29        1.7174   -1.9078   10.3482 C.ar      1 RES1    0.0000
     30 C30        2.9238   -2.0717    9.6839 C.ar      1 RES1    0.0000
     31 C31        3.5583   -0.9580    9.1959 C.ar      1 RES1    0.0000
     32 C32        3.0721    0.3530    9.3848 C.ar      1 RES1    0.0000
     33 C33        3.8815    1.3796    8.7509 C.2       1 RES1    0.0000
     34 C34        3.7043    2.6948    8.6457 C.2       1 RES1    0.0000
     35 C35        2.6628    3.5714    9.1607 C.ar      1 RES1    0.0000
     36 C36        2.7808    4.9107    8.7322 C.ar      1 RES1    0.0000
     37 C37        1.9206    5.9103    9.1234 C.ar      1 RES1    0.0000
     38 C38        0.8808    5.5786    9.9790 C.ar      1 RES1    0.0000
     39 C39        0.7242    4.2682   10.3855 C.ar      1 RES1    0.0000
     40 C40        1.5926    3.2243   10.0179 C.ar      1 RES1    0.0000
     41 H1        -0.3952    2.0212   14.6975 H         1 RES1    0.0000
     42 H2        -2.7379    1.9943   14.7721 H         1 RES1    0.0000
     43 H3        -4.0224    1.8689   12.8548 H         1 RES1    0.0000
     44 H4        -4.0341    1.6174   10.2120 H         1 RES1    0.0000
     45 H5        -2.7790    1.3812    8.2923 H         1 RES1    0.0000
     46 H6        -0.4245    1.4533    8.3296 H         1 RES1    0.0000
     47 H7         0.3677   -0.0494   13.9837 H         1 RES1    0.0000
     48 H8         1.3179   -2.0453   14.6672 H         1 RES1    0.0000
     49 H9         3.4933   -2.6015   14.0024 H         1 RES1    0.0000
     50 H10        4.7367   -1.0658   12.7778 H         1 RES1    0.0000
     51 H11        4.9254    0.8841   11.4786 H         1 RES1    0.0000
     52 H12        4.8870    3.0500   11.4342 H         1 RES1    0.0000
     53 H13        4.6915    4.9801   12.8035 H         1 RES1    0.0000
     54 H14        3.3857    6.5466   13.9208 H         1 RES1    0.0000
     55 H15        1.1602    6.0246   14.4363 H         1 RES1    0.0000
     56 H16        0.2643    3.9972   13.7715 H         1 RES1    0.0000
     57 H17        0.3643   -0.5414   10.9561 H         1 RES1    0.0000
     58 H18        1.2441   -2.6646   10.6762 H         1 RES1    0.0000
     59 H19        3.3022   -2.9358    9.5705 H         1 RES1    0.0000
     60 H20        4.3641   -1.0749    8.7075 H         1 RES1    0.0000
     61 H21        4.6752    1.0570    8.3389 H         1 RES1    0.0000
     62 H22        4.3773    3.1401    8.1453 H         1 RES1    0.0000
     63 H23        3.4917    5.1341    8.1430 H         1 RES1    0.0000
     64 H24        2.0348    6.8012    8.8171 H         1 RES1    0.0000
     65 H25        0.2801    6.2477   10.2843 H         1 RES1    0.0000
     66 H26       -0.0136    4.0599   10.9467 H         1 RES1    0.0000
     67 C41       -2.1083   -0.7862   17.9057 C.ar      2 RES2    0.0000
     68 C42       -1.7557   -1.4914   16.7756 C.ar      2 RES2    0.0000
     69 C43       -1.6358   -2.8979   16.8432 C.ar      2 RES2    0.0000
     70 C44       -1.8483   -3.5994   18.0095 C.ar      2 RES2    0.0000
     71 C45       -2.2047   -2.9046   19.1940 C.ar      2 RES2    0.0000
     72 C46       -2.4652   -3.4675   20.4715 C.ar      2 RES2    0.0000
     73 C47       -2.8351   -2.6600   21.5203 C.ar      2 RES2    0.0000
     74 C48       -2.9554   -1.2573   21.3871 C.ar      2 RES2    0.0000
     75 C49       -2.6961   -0.6815   20.1660 C.ar      2 RES2    0.0000
     76 C50       -2.3311   -1.5030   19.0909 C.ar      2 RES2    0.0000
     77 C51       -2.3689    0.7138   18.0881 C.3       2 RES2    0.0000
     78 C52       -3.6101    1.1061   17.2323 C.ar      2 RES2    0.0000
     79 C53       -4.3725    0.1047   16.6219 C.ar      2 RES2    0.0000
     80 C54       -5.5094    0.3703   15.8822 C.ar      2 RES2    0.0000
     81 C55       -5.9504    1.6692   15.7168 C.ar      2 RES2    0.0000
     82 C56       -5.2395    2.6754   16.3310 C.ar      2 RES2    0.0000
     83 C57       -4.0762    2.4314   17.0898 C.ar      2 RES2    0.0000
     84 C58       -3.4504    3.6088   17.6687 C.2       2 RES2    0.0000
     85 C59       -2.1390    3.8114   17.8990 C.2       2 RES2    0.0000
     86 C60       -1.0306    2.9061   17.6116 C.ar      2 RES2    0.0000
     87 C61        0.1733    3.5333   17.2463 C.ar      2 RES2    0.0000
     88 C62        1.3134    2.8268   16.9428 C.ar      2 RES2    0.0000
     89 C63        1.2763    1.4545   17.0478 C.ar      2 RES2    0.0000
     90 C64        0.1027    0.8195   17.4226 C.ar      2 RES2    0.0000
     91 C65       -1.0915    1.5016   17.6881 C.ar      2 RES2    0.0000
     92 C66       -2.7309    0.8034   19.7652 C.3       2 RES2    0.0000
     93 C67       -4.1825    1.2780   19.9992 C.ar      2 RES2    0.0000
     94 C68       -5.1814    0.3354   19.7235 C.ar      2 RES2    0.0000
     95 C69       -6.5378    0.6001   19.7820 C.ar      2 RES2    0.0000
     96 C70       -6.9578    1.8652   20.1727 C.ar      2 RES2    0.0000
     97 C71       -6.0116    2.8055   20.4643 C.ar      2 RES2    0.0000
     98 C72       -4.6399    2.5577   20.3876 C.ar      2 RES2    0.0000
     99 C73       -3.8378    3.7051   20.8007 C.2       2 RES2    0.0000
    100 C74       -2.5301    3.7981   21.0649 C.2       2 RES2    0.0000
    101 C75       -1.4930    2.7801   21.0442 C.ar      2 RES2    0.0000
    102 C76       -0.3152    3.2015   21.6868 C.ar      2 RES2    0.0000
    103 C77        0.7676    2.3985   21.8622 C.ar      2 RES2    0.0000
    104 C78        0.7222    1.1103   21.3257 C.ar      2 RES2    0.0000
    105 C79       -0.4275    0.6847   20.6973 C.ar      2 RES2    0.0000
    106 C80       -1.5656    1.4749   20.5338 C.ar      2 RES2    0.0000
    107 H27       -1.5940   -1.0363   15.9571 H         2 RES2    0.0000
    108 H28       -1.4000   -3.3762   16.0574 H         2 RES2    0.0000
    109 H29       -1.7570   -4.5448   18.0214 H         2 RES2    0.0000
    110 H30       -2.3831   -4.4048   20.6012 H         2 RES2    0.0000
    111 H31       -3.0166   -3.0584   22.3646 H         2 RES2    0.0000
    112 H32       -3.2110   -0.7225   22.1291 H         2 RES2    0.0000
    113 H33       -4.0958   -0.7990   16.7198 H         2 RES2    0.0000
    114 H34       -5.9913   -0.3454   15.4836 H         2 RES2    0.0000
    115 H35       -6.7210    1.8625   15.1943 H         2 RES2    0.0000
    116 H36       -5.5454    3.5711   16.2393 H         2 RES2    0.0000
    117 H37       -4.0339    4.3176   17.9141 H         2 RES2    0.0000
    118 H38       -1.9079    4.6425   18.2967 H         2 RES2    0.0000
    119 H39        0.2005    4.4827   17.2073 H         2 RES2    0.0000
    120 H40        2.1057    3.2730   16.6685 H         2 RES2    0.0000
    121 H41        2.0555    0.9423   16.8621 H         2 RES2    0.0000
    122 H42        0.1081   -0.1267   17.5036 H         2 RES2    0.0000
    123 H43       -4.9097   -0.5424   19.4816 H         2 RES2    0.0000
    124 H44       -7.1713   -0.0713   19.5586 H         2 RES2    0.0000
    125 H45       -7.8835    2.0713   20.2350 H         2 RES2    0.0000
    126 H46       -6.3003    3.6706   20.7319 H         2 RES2    0.0000
    127 H47       -4.3225    4.5164   20.8975 H         2 RES2    0.0000
    128 H48       -2.2319    4.6679   21.3033 H         2 RES2    0.0000
    129 H49       -0.2730    4.0922   22.0148 H         2 RES2    0.0000
    130 H50        1.5321    2.7048   22.3367 H         2 RES2    0.0000
    131 H51        1.4753    0.5340   21.3943 H         2 RES2    0.0000
    132 H52       -0.4466   -0.2010   20.3540 H         2 RES2    0.0000
    133 C81        0.8216   -6.6311   20.7377 C.ar      3 RES3    0.0000
    134 C82       -0.0766   -6.8234   21.7645 C.ar      3 RES3    0.0000
    135 C83       -1.3849   -7.2749   21.4741 C.ar      3 RES3    0.0000
    136 C84       -1.8141   -7.5322   20.1977 C.ar      3 RES3    0.0000
    137 C85       -0.9148   -7.3613   19.1119 C.ar      3 RES3    0.0000
    138 C86       -1.1727   -7.6246   17.7401 C.ar      3 RES3    0.0000
    139 C87       -0.1816   -7.4685   16.8064 C.ar      3 RES3    0.0000
    140 C88        1.1133   -7.0196   17.1595 C.ar      3 RES3    0.0000
    141 C89        1.3803   -6.7240   18.4718 C.ar      3 RES3    0.0000
    142 C90        0.3815   -6.9042   19.4310 C.ar      3 RES3    0.0000
    143 C91        2.2824   -6.1526   20.7624 C.3       3 RES3    0.0000
    144 C92        3.1591   -7.1165   21.6066 C.ar      3 RES3    0.0000
    145 C93        2.6031   -8.2488   22.2119 C.ar      3 RES3    0.0000
    146 C94        3.3823   -9.1950   22.8657 C.ar      3 RES3    0.0000
    147 C95        4.7493   -9.0628   22.9133 C.ar      3 RES3    0.0000
    148 C96        5.3202   -7.9632   22.3332 C.ar      3 RES3    0.0000
    149 C97        4.5585   -6.9630   21.7090 C.ar      3 RES3    0.0000
    150 C98        5.3057   -5.8283   21.2007 C.2       3 RES3    0.0000
    151 C99        4.8911   -4.5660   21.1002 C.2       3 RES3    0.0000
    152 C100       3.5846   -4.0218   21.4503 C.ar      3 RES3    0.0000
    153 C101       3.5804   -2.6986   21.9154 C.ar      3 RES3    0.0000
    154 C102       2.4302   -2.0597   22.2730 C.ar      3 RES3    0.0000
    155 C103       1.2153   -2.7125   22.1347 C.ar      3 RES3    0.0000
    156 C104       1.1960   -4.0152   21.6651 C.ar      3 RES3    0.0000
    157 C105       2.3596   -4.7149   21.3257 C.ar      3 RES3    0.0000
    158 C106       2.6948   -6.2273   19.0925 C.3       3 RES3    0.0000
    159 C107       3.6965   -7.3716   18.8271 C.ar      3 RES3    0.0000
    160 C108       3.1946   -8.6540   19.1184 C.ar      3 RES3    0.0000
    161 C109       3.9183   -9.8173   18.9717 C.ar      3 RES3    0.0000
    162 C110       5.2061   -9.7507   18.4536 C.ar      3 RES3    0.0000
    163 C111       5.7256   -8.5227   18.1565 C.ar      3 RES3    0.0000
    164 C112       5.0205   -7.3111   18.3456 C.ar      3 RES3    0.0000
    165 C113       5.7892   -6.1208   18.0338 C.2       3 RES3    0.0000
    166 C114       5.4243   -4.8480   17.9262 C.2       3 RES3    0.0000
    167 C115       4.1153   -4.2258   18.0454 C.ar      3 RES3    0.0000
    168 C116       4.0775   -2.8809   17.6158 C.ar      3 RES3    0.0000
    169 C117       2.9407   -2.1274   17.6116 C.ar      3 RES3    0.0000
    170 C118       1.7609   -2.6999   18.0692 C.ar      3 RES3    0.0000
    171 C119       1.7690   -4.0121   18.4959 C.ar      3 RES3    0.0000
    172 C120       2.9175   -4.8112   18.5159 C.ar      3 RES3    0.0000
    173 H53        0.1818   -6.6534   22.6632 H         3 RES3    0.0000
    174 H54       -1.9918   -7.4059   22.1944 H         3 RES3    0.0000
    175 H55       -2.7052   -7.8225   20.0414 H         3 RES3    0.0000
    176 H56       -2.0367   -7.9111   17.4686 H         3 RES3    0.0000
    177 H57       -0.3693   -7.6666   15.8964 H         3 RES3    0.0000
    178 H58        1.7874   -6.9248   16.4982 H         3 RES3    0.0000
    179 H59        1.6621   -8.3738   22.1734 H         3 RES3    0.0000
    180 H60        2.9656   -9.9393   23.2837 H         3 RES3    0.0000
    181 H61        5.2857   -9.7201   23.3397 H         3 RES3    0.0000
    182 H62        6.2660   -7.8740   22.3530 H         3 RES3    0.0000
    183 H63        6.1917   -6.0058   20.9068 H         3 RES3    0.0000
    184 H64        5.5237   -3.9452   20.7598 H         3 RES3    0.0000
    185 H65        4.4047   -2.2322   21.9844 H         3 RES3    0.0000
    186 H66        2.4615   -1.1736   22.6142 H         3 RES3    0.0000
    187 H67        0.4043   -2.2710   22.3600 H         3 RES3    0.0000
    188 H68        0.3574   -4.4524   21.5692 H         3 RES3    0.0000
    189 H69        2.3019   -8.7212   19.4349 H         3 RES3    0.0000
    190 H70        3.5415  -10.6537   19.2203 H         3 RES3    0.0000
    191 H71        5.7133  -10.5418   18.3106 H         3 RES3    0.0000
    192 H72        6.6062   -8.4795   17.8045 H         3 RES3    0.0000
    193 H73        6.7133   -6.2786   17.8791 H         3 RES3    0.0000
    194 H74        6.1345   -4.2450   17.7415 H         3 RES3    0.0000
    195 H75        4.8845   -2.4806   17.3146 H         3 RES3    0.0000
    196 H76        2.9559   -1.2297   17.3030 H         3 RES3    0.0000
    197 H77        0.9567   -2.1941   18.0891 H         3 RES3    0.0000
    198 H78        0.9508   -4.3942   18.7912 H         3 RES3    0.0000
@<TRIPOS>BOND
     1    1    2 ar
     2    2    3 ar
     3    3    4 ar
     4    4    5 ar
     5    5    6 ar
     6    6    7 ar
     7    7    8 ar
     8    8    9 ar
     9    9   10 ar
    10   10    1 ar
    11   11    1 1
    12   12   11 1
    13   13   12 ar
    14   14   13 ar
    15   15   14 ar
    16   16   15 ar
    17   17   12 ar
    18   18   17 1
    19   19   18 2
    20   20   19 1
    21   21   20 ar
    22   22   21 ar
    23   23   22 ar
    24   24   23 ar
    25   25   11 1
    26   26    9 1
    27   27   26 1
    28   28   27 ar
    29   29   28 ar
    30   30   29 ar
    31   31   30 ar
    32   32   27 ar
    33   33   32 1
    34   34   33 2
    35   35   34 1
    36   36   35 ar
    37   37   36 ar
    38   38   37 ar
    39   39   38 ar
    40   40   26 1
    41   41    2 1
    42   42    3 1
    43   43    4 1
    44   44    6 1
    45   45    7 1
    46   46    8 1
    47   47   13 1
    48   48   14 1
    49   49   15 1
    50   50   16 1
    51   51   18 1
    52   52   19 1
    53   53   21 1
    54   54   22 1
    55   55   23 1
    56   56   24 1
    57   57   28 1
    58   58   29 1
    59   59   30 1
    60   60   31 1
    61   61   33 1
    62   62   34 1
    63   63   36 1
    64   64   37 1
    65   65   38 1
    66   66   39 1
    67   67   68 ar
    68   68   69 ar
    69   69   70 ar
    70   70   71 ar
    71   71   72 ar
    72   72   73 ar
    73   73   74 ar
    74   74   75 ar
    75   75   76 ar
    76   76   67 ar
    77   77   67 1
    78   78   77 1
    79   79   78 ar
    80   80   79 ar
    81   81   80 ar
    82   82   81 ar
    83   83   78 ar
    84   84   83 1
    85   85   84 2
    86   86   85 1
    87   87   86 ar
    88   88   87 ar
    89   89   88 ar
    90   90   89 ar
    91   91   77 1
    92   92   75 1
    93   93   92 1
    94   94   93 ar
    95   95   94 ar
    96   96   95 ar
    97   97   96 ar
    98   98   93 ar
    99   99   98 1
   100  100   99 2
   101  101  100 1
   102  102  101 ar
   103  103  102 ar
   104  104  103 ar
   105  105  104 ar
   106  106   92 1
   107  107   68 1
   108  108   69 1
   109  109   70 1
   110  110   72 1
   111  111   73 1
   112  112   74 1
   113  113   79 1
   114  114   80 1
   115  115   81 1
   116  116   82 1
   117  117   84 1
   118  118   85 1
   119  119   87 1
   120  120   88 1
   121  121   89 1
   122  122   90 1
   123  123   94 1
   124  124   95 1
   125  125   96 1
   126  126   97 1
   127  127   99 1
   128  128  100 1
   129  129  102 1
   130  130  103 1
   131  131  104 1
   132  132  105 1
   133  133  134 ar
   134  134  135 ar
   135  135  136 ar
   136  136  137 ar
   137  137  138 ar
   138  138  139 ar
   139  139  140 ar
   140  140  141 ar
   141  141  142 ar
   142  142  133 ar
   143  143  133 1
   144  144  143 1
   145  145  144 ar
   146  146  145 ar
   147  147  146 ar
   148  148  147 ar
   149  149  144 ar
   150  150  149 1
   151  151  150 2
   152  152  151 1
   153  153  152 ar
   154  154  153 ar
   155  155  154 ar
   156  156  155 ar
   157  157  143 1
   158  158  141 1
   159  159  158 1
   160  160  159 ar
   161  161  160 ar
   162  162  161 ar
   163  163  162 ar
   164  164  159 ar
   165  165  164 1
   166  166  165 2
   167  167  166 1
   168  168  167 ar
   169  169  168 ar
   170  170  169 ar
   171  171  170 ar
   172  172  158 1
   173  173  134 1
   174  174  135 1
   175  175  136 1
   176  176  138 1
   177  177  139 1
   178  178  140 1
   179  179  145 1
   180  180  146 1
   181  181  147 1
   182  182  148 1
   183  183  150 1
   184  184  151 1
   185  185  153 1
   186  186  154 1
   187  187  155 1
   188  188  156 1
   189  189  160 1
   190  190  161 1
   191  191  162 1
   192  192  163 1
   193  193  165 1
   194  194  166 1
   195  195  168 1
   196  196  169 1
   197  197  170 1
   198  198  171 1
   199    5   10 ar
   200   11   26 1
   201   16   17 ar
   202   20   25 ar
   203   24   25 ar
   204   31   32 ar
   205   35   40 ar
   206   39   40 ar
   207   71   76 ar
   208   77   92 1
   209   82   83 ar
   210   86   91 ar
   211   90   91 ar
   212   97   98 ar
   213  101  106 ar
   214  105  106 ar
   215  137  142 ar
   216  143  158 1
   217  148  149 ar
   218  152  157 ar
   219  156  157 ar
   220  163  164 ar
   221  167  172 ar
   222  171  172 ar
@<TRIPOS>SUBSTRUCTURE
     1 RES1 1
     2 RES2 67
     3 RES3 133

@<TRIPOS>CRYSIN
  10.9023   15.0630   23.6220  98.9550  90.7830  94.6989   2 1

