# MOL2 file generated by ConQuest
# Please check atom types

@<TRIPOS>MOLECULE
PEVRIU07
   198   222     3
SMALL
NO_CHARGES
****
Generated from CSD

@<TRIPOS>ATOM
      1 C1        -0.1193    1.9207   12.8005 C.ar      1 RES1    0.0000
      2 C2        -0.7729    1.9725   14.0103 C.ar      1 RES1    0.0000
      3 C3        -2.1782    1.9467   14.0494 C.ar      1 RES1    0.0000
      4 C4        -2.9413    1.8502   12.9243 C.ar      1 RES1    0.0000
      5 C5        -2.3180    1.7580   11.6603 C.ar      1 RES1    0.0000
      6 C6        -2.9498    1.6167   10.3998 C.ar      1 RES1    0.0000
      7 C7        -2.2135    1.5112    9.2574 C.ar      1 RES1    0.0000
      8 C8        -0.8076    1.5675    9.2734 C.ar      1 RES1    0.0000
      9 C9        -0.1602    1.7274   10.4686 C.ar      1 RES1    0.0000
     10 C10       -0.9085    1.8001   11.6445 C.ar      1 RES1    0.0000
     11 C11        1.3750    1.9535   12.4762 C.3       1 RES1    0.0000
     12 C12        2.0904    0.7267   13.0831 C.ar      1 RES1    0.0000
     13 C13        1.3884   -0.2209   13.8411 C.ar      1 RES1    0.0000
     14 C14        1.9487   -1.4080   14.2465 C.ar      1 RES1    0.0000
     15 C15        3.2396   -1.7151   13.8998 C.ar      1 RES1    0.0000
     16 C16        3.9769   -0.8034   13.1868 C.ar      1 RES1    0.0000
     17 C17        3.4433    0.4444   12.8057 C.ar      1 RES1    0.0000
     18 C18        4.3530    1.3411   12.1239 C.2       1 RES1    0.0000
     19 C19        4.3265    2.6754   12.1019 C.2       1 RES1    0.0000
     20 C20        3.3876    3.5639   12.7546 C.ar      1 RES1    0.0000
     21 C21        3.8833    4.8078   13.1555 C.ar      1 RES1    0.0000
     22 C22        3.1085    5.7231   13.8159 C.ar      1 RES1    0.0000
     23 C23        1.8092    5.4194   14.0902 C.ar      1 RES1    0.0000
     24 C24        1.2856    4.2091   13.6855 C.ar      1 RES1    0.0000
     25 C25        2.0300    3.2539   13.0037 C.ar      1 RES1    0.0000
     26 C26        1.3405    1.8756   10.7323 C.3       1 RES1    0.0000
     27 C27        1.9897    0.5679   10.2360 C.ar      1 RES1    0.0000
     28 C28        1.3295   -0.6043   10.6409 C.ar      1 RES1    0.0000
     29 C29        1.8250   -1.8762   10.4380 C.ar      1 RES1    0.0000
     30 C30        3.0189   -2.0345    9.7717 C.ar      1 RES1    0.0000
     31 C31        3.6549   -0.9257    9.2963 C.ar      1 RES1    0.0000
     32 C32        3.1831    0.3844    9.4980 C.ar      1 RES1    0.0000
     33 C33        3.9937    1.4141    8.8805 C.2       1 RES1    0.0000
     34 C34        3.8204    2.7310    8.7837 C.2       1 RES1    0.0000
     35 C35        2.7819    3.6061    9.2888 C.ar      1 RES1    0.0000
     36 C36        2.8993    4.9422    8.8643 C.ar      1 RES1    0.0000
     37 C37        2.0525    5.9291    9.2461 C.ar      1 RES1    0.0000
     38 C38        1.0097    5.6035   10.0868 C.ar      1 RES1    0.0000
     39 C39        0.8421    4.2932   10.4901 C.ar      1 RES1    0.0000
     40 C40        1.7134    3.2571   10.1386 C.ar      1 RES1    0.0000
     41 H1        -0.2860    2.0243   14.8013 H         1 RES1    0.0000
     42 H2        -2.6027    1.9975   14.8744 H         1 RES1    0.0000
     43 H3        -3.8690    1.8454   12.9888 H         1 RES1    0.0000
     44 H4        -3.8786    1.5960   10.3515 H         1 RES1    0.0000
     45 H5        -2.6520    1.3987    8.4447 H         1 RES1    0.0000
     46 H6        -0.3242    1.4973    8.4825 H         1 RES1    0.0000
     47 H7         0.5078   -0.0392   14.0801 H         1 RES1    0.0000
     48 H8         1.4517   -2.0050   14.7565 H         1 RES1    0.0000
     49 H9         3.6113   -2.5324   14.1461 H         1 RES1    0.0000
     50 H10        4.8520   -1.0144   12.9488 H         1 RES1    0.0000
     51 H11        5.0393    0.9391   11.6431 H         1 RES1    0.0000
     52 H12        4.9951    3.0872   11.6030 H         1 RES1    0.0000
     53 H13        4.7697    5.0212   12.9676 H         1 RES1    0.0000
     54 H14        3.4648    6.5432   14.0730 H         1 RES1    0.0000
     55 H15        1.2755    6.0280   14.5491 H         1 RES1    0.0000
     56 H16        0.3937    4.0233   13.8774 H         1 RES1    0.0000
     57 H17        0.5097   -0.5174   11.0703 H         1 RES1    0.0000
     58 H18        1.3585   -2.6185   10.7474 H         1 RES1    0.0000
     59 H19        3.3843   -2.8801    9.6468 H         1 RES1    0.0000
     60 H20        4.4402   -1.0409    8.8124 H         1 RES1    0.0000
     61 H21        4.7730    1.1002    8.4825 H         1 RES1    0.0000
     62 H22        4.4877    3.1685    8.3057 H         1 RES1    0.0000
     63 H23        3.5977    5.1597    8.2892 H         1 RES1    0.0000
     64 H24        2.1729    6.8025    8.9491 H         1 RES1    0.0000
     65 H25        0.4213    6.2614   10.3798 H         1 RES1    0.0000
     66 H26        0.1105    4.0884   11.0255 H         1 RES1    0.0000
     67 C41       -2.0529   -0.7922   18.1186 C.ar      2 RES2    0.0000
     68 C42       -1.7060   -1.5186   16.9996 C.ar      2 RES2    0.0000
     69 C43       -1.5879   -2.9158   17.0835 C.ar      2 RES2    0.0000
     70 C44       -1.7926   -3.5947   18.2551 C.ar      2 RES2    0.0000
     71 C45       -2.1463   -2.8954   19.4331 C.ar      2 RES2    0.0000
     72 C46       -2.3935   -3.4368   20.7150 C.ar      2 RES2    0.0000
     73 C47       -2.7449   -2.6204   21.7492 C.ar      2 RES2    0.0000
     74 C48       -2.8703   -1.2287   21.6059 C.ar      2 RES2    0.0000
     75 C49       -2.6214   -0.6628   20.3796 C.ar      2 RES2    0.0000
     76 C50       -2.2671   -1.4976   19.3138 C.ar      2 RES2    0.0000
     77 C51       -2.3024    0.7106   18.2862 C.3       2 RES2    0.0000
     78 C52       -3.5279    1.1051   17.4280 C.ar      2 RES2    0.0000
     79 C53       -4.3013    0.1125   16.8285 C.ar      2 RES2    0.0000
     80 C54       -5.4321    0.3758   16.0948 C.ar      2 RES2    0.0000
     81 C55       -5.8552    1.6678   15.9196 C.ar      2 RES2    0.0000
     82 C56       -5.1356    2.6776   16.5129 C.ar      2 RES2    0.0000
     83 C57       -3.9746    2.4288   17.2671 C.ar      2 RES2    0.0000
     84 C58       -3.3289    3.6051   17.8290 C.2       2 RES2    0.0000
     85 C59       -2.0245    3.7935   18.0550 C.2       2 RES2    0.0000
     86 C60       -0.9249    2.8839   17.7912 C.ar      2 RES2    0.0000
     87 C61        0.2946    3.4800   17.4412 C.ar      2 RES2    0.0000
     88 C62        1.4124    2.7622   17.1688 C.ar      2 RES2    0.0000
     89 C63        1.3594    1.4075   17.2810 C.ar      2 RES2    0.0000
     90 C64        0.1766    0.7900   17.6357 C.ar      2 RES2    0.0000
     91 C65       -1.0080    1.4834   17.8860 C.ar      2 RES2    0.0000
     92 C66       -2.6619    0.8133   19.9685 C.3       2 RES2    0.0000
     93 C67       -4.1038    1.2928   20.2052 C.ar      2 RES2    0.0000
     94 C68       -5.1001    0.3501   19.9497 C.ar      2 RES2    0.0000
     95 C69       -6.4489    0.6163   20.0284 C.ar      2 RES2    0.0000
     96 C70       -6.8563    1.8702   20.4079 C.ar      2 RES2    0.0000
     97 C71       -5.9205    2.8252   20.6744 C.ar      2 RES2    0.0000
     98 C72       -4.5544    2.5664   20.5776 C.ar      2 RES2    0.0000
     99 C73       -3.7566    3.7091   20.9688 C.2       2 RES2    0.0000
    100 C74       -2.4500    3.8074   21.2179 C.2       2 RES2    0.0000
    101 C75       -1.4111    2.8113   21.1977 C.ar      2 RES2    0.0000
    102 C76       -0.2378    3.2439   21.8265 C.ar      2 RES2    0.0000
    103 C77        0.8252    2.4526   22.0271 C.ar      2 RES2    0.0000
    104 C78        0.7793    1.1613   21.5498 C.ar      2 RES2    0.0000
    105 C79       -0.3669    0.7190   20.9221 C.ar      2 RES2    0.0000
    106 C80       -1.4895    1.4981   20.7282 C.ar      2 RES2    0.0000
    107 H27       -1.5496   -1.0856   16.1919 H         2 RES2    0.0000
    108 H28       -1.3647   -3.3946   16.3191 H         2 RES2    0.0000
    109 H29       -1.6990   -4.5193   18.2753 H         2 RES2    0.0000
    110 H30       -2.3160   -4.3530   20.8538 H         2 RES2    0.0000
    111 H31       -2.9092   -2.9996   22.5814 H         2 RES2    0.0000
    112 H32       -3.1176   -0.6996   22.3292 H         2 RES2    0.0000
    113 H33       -4.0394   -0.7742   16.9319 H         2 RES2    0.0000
    114 H34       -5.9121   -0.3248   15.7158 H         2 RES2    0.0000
    115 H35       -6.6112    1.8561   15.4117 H         2 RES2    0.0000
    116 H36       -5.4266    3.5552   16.4134 H         2 RES2    0.0000
    117 H37       -3.8912    4.3109   18.0585 H         2 RES2    0.0000
    118 H38       -1.7924    4.6128   18.4285 H         2 RES2    0.0000
    119 H39        0.3390    4.4074   17.3939 H         2 RES2    0.0000
    120 H40        2.1978    3.1867   16.9107 H         2 RES2    0.0000
    121 H41        2.1198    0.8983   17.1181 H         2 RES2    0.0000
    122 H42        0.1691   -0.1373   17.7121 H         2 RES2    0.0000
    123 H43       -4.8373   -0.5098   19.7131 H         2 RES2    0.0000
    124 H44       -7.0731   -0.0431   19.8285 H         2 RES2    0.0000
    125 H45       -7.7625    2.0677   20.4814 H         2 RES2    0.0000
    126 H46       -6.2016    3.6744   20.9292 H         2 RES2    0.0000
    127 H47       -4.2319    4.5038   21.0612 H         2 RES2    0.0000
    128 H48       -2.1619    4.6633   21.4407 H         2 RES2    0.0000
    129 H49       -0.1941    4.1265   22.1194 H         2 RES2    0.0000
    130 H50        1.5750    2.7676   22.4777 H         2 RES2    0.0000
    131 H51        1.5117    0.5951   21.6504 H         2 RES2    0.0000
    132 H52       -0.3832   -0.1568   20.6110 H         2 RES2    0.0000
    133 C81        0.9670   -6.6743   20.9426 C.ar      3 RES3    0.0000
    134 C82        0.0729   -6.8560   21.9714 C.ar      3 RES3    0.0000
    135 C83       -1.2331   -7.3057   21.6794 C.ar      3 RES3    0.0000
    136 C84       -1.6634   -7.5730   20.4272 C.ar      3 RES3    0.0000
    137 C85       -0.7761   -7.4145   19.3428 C.ar      3 RES3    0.0000
    138 C86       -1.0479   -7.6816   17.9798 C.ar      3 RES3    0.0000
    139 C87       -0.0736   -7.5265   17.0418 C.ar      3 RES3    0.0000
    140 C88        1.2175   -7.0799   17.3722 C.ar      3 RES3    0.0000
    141 C89        1.5086   -6.7798   18.6760 C.ar      3 RES3    0.0000
    142 C90        0.5196   -6.9598   19.6468 C.ar      3 RES3    0.0000
    143 C91        2.4296   -6.2033   20.9537 C.3       3 RES3    0.0000
    144 C92        3.3039   -7.1667   21.7991 C.ar      3 RES3    0.0000
    145 C93        2.7373   -8.3042   22.3945 C.ar      3 RES3    0.0000
    146 C94        3.4993   -9.2422   23.0478 C.ar      3 RES3    0.0000
    147 C95        4.8501   -9.1058   23.1308 C.ar      3 RES3    0.0000
    148 C96        5.4250   -8.0111   22.5661 C.ar      3 RES3    0.0000
    149 C97        4.6920   -7.0107   21.9255 C.ar      3 RES3    0.0000
    150 C98        5.4442   -5.8774   21.4333 C.2       3 RES3    0.0000
    151 C99        5.0369   -4.6200   21.3181 C.2       3 RES3    0.0000
    152 C100       3.7330   -4.0691   21.6419 C.ar      3 RES3    0.0000
    153 C101       3.7297   -2.7468   22.0914 C.ar      3 RES3    0.0000
    154 C102       2.5903   -2.1083   22.4383 C.ar      3 RES3    0.0000
    155 C103       1.3852   -2.7619   22.3063 C.ar      3 RES3    0.0000
    156 C104       1.3624   -4.0553   21.8430 C.ar      3 RES3    0.0000
    157 C105       2.5146   -4.7620   21.5088 C.ar      3 RES3    0.0000
    158 C106       2.8283   -6.2894   19.2763 C.3       3 RES3    0.0000
    159 C107       3.8239   -7.4389   19.0050 C.ar      3 RES3    0.0000
    160 C108       3.3210   -8.7223   19.2829 C.ar      3 RES3    0.0000
    161 C109       4.0351   -9.8832   19.1295 C.ar      3 RES3    0.0000
    162 C110       5.3128   -9.8166   18.6369 C.ar      3 RES3    0.0000
    163 C111       5.8442   -8.5963   18.3498 C.ar      3 RES3    0.0000
    164 C112       5.1473   -7.3822   18.5414 C.ar      3 RES3    0.0000
    165 C113       5.9111   -6.2031   18.2365 C.2       3 RES3    0.0000
    166 C114       5.5576   -4.9294   18.1283 C.2       3 RES3    0.0000
    167 C115       4.2589   -4.2949   18.2355 C.ar      3 RES3    0.0000
    168 C116       4.2326   -2.9615   17.8009 C.ar      3 RES3    0.0000
    169 C117       3.1067   -2.2122   17.7875 C.ar      3 RES3    0.0000
    170 C118       1.9284   -2.7653   18.2259 C.ar      3 RES3    0.0000
    171 C119       1.9233   -4.0765   18.6567 C.ar      3 RES3    0.0000
    172 C120       3.0535   -4.8745   18.6972 C.ar      3 RES3    0.0000
    173 H53        0.3261   -6.6845   22.8501 H         3 RES3    0.0000
    174 H54       -1.8272   -7.4232   22.3858 H         3 RES3    0.0000
    175 H55       -2.5368   -7.8588   20.2811 H         3 RES3    0.0000
    176 H56       -1.8952   -7.9648   17.7238 H         3 RES3    0.0000
    177 H57       -0.2686   -7.7230   16.1541 H         3 RES3    0.0000
    178 H58        1.8668   -6.9887   16.7127 H         3 RES3    0.0000
    179 H59        1.8163   -8.4263   22.3457 H         3 RES3    0.0000
    180 H60        3.0870   -9.9790   23.4369 H         3 RES3    0.0000
    181 H61        5.3673   -9.7446   23.5642 H         3 RES3    0.0000
    182 H62        6.3499   -7.9241   22.6097 H         3 RES3    0.0000
    183 H63        6.3181   -6.0515   21.1649 H         3 RES3    0.0000
    184 H64        5.6644   -4.0170   20.9905 H         3 RES3    0.0000
    185 H65        4.5374   -2.2906   22.1548 H         3 RES3    0.0000
    186 H66        2.6200   -1.2383   22.7629 H         3 RES3    0.0000
    187 H67        0.5923   -2.3305   22.5295 H         3 RES3    0.0000
    188 H68        0.5395   -4.4782   21.7471 H         3 RES3    0.0000
    189 H69        2.4462   -8.7873   19.5905 H         3 RES3    0.0000
    190 H70        3.6575  -10.7021   19.3548 H         3 RES3    0.0000
    191 H71        5.8073  -10.5924   18.5016 H         3 RES3    0.0000
    192 H72        6.7097   -8.5607   18.0114 H         3 RES3    0.0000
    193 H73        6.8157   -6.3616   18.0892 H         3 RES3    0.0000
    194 H74        6.2596   -4.3456   17.9548 H         3 RES3    0.0000
    195 H75        5.0270   -2.5742   17.5094 H         3 RES3    0.0000
    196 H76        3.1299   -1.3336   17.4858 H         3 RES3    0.0000
    197 H77        1.1461   -2.2632   18.2329 H         3 RES3    0.0000
    198 H78        1.1154   -4.4438   18.9353 H         3 RES3    0.0000
@<TRIPOS>BOND
     1    1    2 ar
     2    2    3 ar
     3    3    4 ar
     4    4    5 ar
     5    5    6 ar
     6    6    7 ar
     7    7    8 ar
     8    8    9 ar
     9    9   10 ar
    10   10    1 ar
    11   11    1 1
    12   12   11 1
    13   13   12 ar
    14   14   13 ar
    15   15   14 ar
    16   16   15 ar
    17   17   12 ar
    18   18   17 1
    19   19   18 2
    20   20   19 1
    21   21   20 ar
    22   22   21 ar
    23   23   22 ar
    24   24   23 ar
    25   25   11 1
    26   26    9 1
    27   27   26 1
    28   28   27 ar
    29   29   28 ar
    30   30   29 ar
    31   31   30 ar
    32   32   27 ar
    33   33   32 1
    34   34   33 2
    35   35   34 1
    36   36   35 ar
    37   37   36 ar
    38   38   37 ar
    39   39   38 ar
    40   40   26 1
    41   41    2 1
    42   42    3 1
    43   43    4 1
    44   44    6 1
    45   45    7 1
    46   46    8 1
    47   47   13 1
    48   48   14 1
    49   49   15 1
    50   50   16 1
    51   51   18 1
    52   52   19 1
    53   53   21 1
    54   54   22 1
    55   55   23 1
    56   56   24 1
    57   57   28 1
    58   58   29 1
    59   59   30 1
    60   60   31 1
    61   61   33 1
    62   62   34 1
    63   63   36 1
    64   64   37 1
    65   65   38 1
    66   66   39 1
    67   67   68 ar
    68   68   69 ar
    69   69   70 ar
    70   70   71 ar
    71   71   72 ar
    72   72   73 ar
    73   73   74 ar
    74   74   75 ar
    75   75   76 ar
    76   76   67 ar
    77   77   67 1
    78   78   77 1
    79   79   78 ar
    80   80   79 ar
    81   81   80 ar
    82   82   81 ar
    83   83   78 ar
    84   84   83 1
    85   85   84 2
    86   86   85 1
    87   87   86 ar
    88   88   87 ar
    89   89   88 ar
    90   90   89 ar
    91   91   77 1
    92   92   75 1
    93   93   92 1
    94   94   93 ar
    95   95   94 ar
    96   96   95 ar
    97   97   96 ar
    98   98   93 ar
    99   99   98 1
   100  100   99 2
   101  101  100 1
   102  102  101 ar
   103  103  102 ar
   104  104  103 ar
   105  105  104 ar
   106  106   92 1
   107  107   68 1
   108  108   69 1
   109  109   70 1
   110  110   72 1
   111  111   73 1
   112  112   74 1
   113  113   79 1
   114  114   80 1
   115  115   81 1
   116  116   82 1
   117  117   84 1
   118  118   85 1
   119  119   87 1
   120  120   88 1
   121  121   89 1
   122  122   90 1
   123  123   94 1
   124  124   95 1
   125  125   96 1
   126  126   97 1
   127  127   99 1
   128  128  100 1
   129  129  102 1
   130  130  103 1
   131  131  104 1
   132  132  105 1
   133  133  134 ar
   134  134  135 ar
   135  135  136 ar
   136  136  137 ar
   137  137  138 ar
   138  138  139 ar
   139  139  140 ar
   140  140  141 ar
   141  141  142 ar
   142  142  133 ar
   143  143  133 1
   144  144  143 1
   145  145  144 ar
   146  146  145 ar
   147  147  146 ar
   148  148  147 ar
   149  149  144 ar
   150  150  149 1
   151  151  150 2
   152  152  151 1
   153  153  152 ar
   154  154  153 ar
   155  155  154 ar
   156  156  155 ar
   157  157  143 1
   158  158  141 1
   159  159  158 1
   160  160  159 ar
   161  161  160 ar
   162  162  161 ar
   163  163  162 ar
   164  164  159 ar
   165  165  164 1
   166  166  165 2
   167  167  166 1
   168  168  167 ar
   169  169  168 ar
   170  170  169 ar
   171  171  170 ar
   172  172  158 1
   173  173  134 1
   174  174  135 1
   175  175  136 1
   176  176  138 1
   177  177  139 1
   178  178  140 1
   179  179  145 1
   180  180  146 1
   181  181  147 1
   182  182  148 1
   183  183  150 1
   184  184  151 1
   185  185  153 1
   186  186  154 1
   187  187  155 1
   188  188  156 1
   189  189  160 1
   190  190  161 1
   191  191  162 1
   192  192  163 1
   193  193  165 1
   194  194  166 1
   195  195  168 1
   196  196  169 1
   197  197  170 1
   198  198  171 1
   199    5   10 ar
   200   11   26 1
   201   16   17 ar
   202   20   25 ar
   203   24   25 ar
   204   31   32 ar
   205   35   40 ar
   206   39   40 ar
   207   71   76 ar
   208   77   92 1
   209   82   83 ar
   210   86   91 ar
   211   90   91 ar
   212   97   98 ar
   213  101  106 ar
   214  105  106 ar
   215  137  142 ar
   216  143  158 1
   217  148  149 ar
   218  152  157 ar
   219  156  157 ar
   220  163  164 ar
   221  167  172 ar
   222  171  172 ar
@<TRIPOS>SUBSTRUCTURE
     1 RES1 1
     2 RES2 67
     3 RES3 133

@<TRIPOS>CRYSIN
  11.0090   15.2030   23.8650  98.9720  90.3560  94.4480   2 1

