# MOL2 file generated by ConQuest
# Please check atom types

@<TRIPOS>MOLECULE
PEVRIU01
   198   222     3
SMALL
NO_CHARGES
****
Generated from CSD

@<TRIPOS>ATOM
      1 C1        -0.2175    1.9012   12.6934 C.ar      1 RES1    0.0000
      2 C2        -0.8706    1.9633   13.9095 C.ar      1 RES1    0.0000
      3 C3        -2.2806    1.9428   13.9459 C.ar      1 RES1    0.0000
      4 C4        -3.0484    1.8560   12.8124 C.ar      1 RES1    0.0000
      5 C5        -2.4198    1.7555   11.5477 C.ar      1 RES1    0.0000
      6 C6        -3.0596    1.6194   10.2833 C.ar      1 RES1    0.0000
      7 C7        -2.3115    1.4977    9.1397 C.ar      1 RES1    0.0000
      8 C8        -0.8986    1.5385    9.1565 C.ar      1 RES1    0.0000
      9 C9        -0.2546    1.7010   10.3590 C.ar      1 RES1    0.0000
     10 C10       -1.0092    1.7845   11.5356 C.ar      1 RES1    0.0000
     11 C11        1.2800    1.9275   12.3701 C.3       1 RES1    0.0000
     12 C12        1.9866    0.6989   12.9827 C.ar      1 RES1    0.0000
     13 C13        1.2816   -0.2446   13.7469 C.ar      1 RES1    0.0000
     14 C14        1.8398   -1.4443   14.1515 C.ar      1 RES1    0.0000
     15 C15        3.1319   -1.7617   13.7808 C.ar      1 RES1    0.0000
     16 C16        3.8659   -0.8436   13.0579 C.ar      1 RES1    0.0000
     17 C17        3.3380    0.4044   12.6890 C.ar      1 RES1    0.0000
     18 C18        4.2502    1.3020   11.9986 C.2       1 RES1    0.0000
     19 C19        4.2321    2.6388   11.9715 C.2       1 RES1    0.0000
     20 C20        3.2948    3.5344   12.6362 C.ar      1 RES1    0.0000
     21 C21        3.8113    4.7785   13.0271 C.ar      1 RES1    0.0000
     22 C22        3.0418    5.7081   13.6910 C.ar      1 RES1    0.0000
     23 C23        1.7279    5.4023   13.9845 C.ar      1 RES1    0.0000
     24 C24        1.1961    4.1887   13.5850 C.ar      1 RES1    0.0000
     25 C25        1.9388    3.2265   12.8932 C.ar      1 RES1    0.0000
     26 C26        1.2494    1.8471   10.6337 C.3       1 RES1    0.0000
     27 C27        1.8985    0.5369   10.1356 C.ar      1 RES1    0.0000
     28 C28        1.2273   -0.6330   10.5454 C.ar      1 RES1    0.0000
     29 C29        1.7326   -1.9047   10.3609 C.ar      1 RES1    0.0000
     30 C30        2.9362   -2.0713    9.6983 C.ar      1 RES1    0.0000
     31 C31        3.5735   -0.9533    9.2114 C.ar      1 RES1    0.0000
     32 C32        3.0892    0.3554    9.4018 C.ar      1 RES1    0.0000
     33 C33        3.8995    1.3856    8.7705 C.2       1 RES1    0.0000
     34 C34        3.7255    2.7011    8.6649 C.2       1 RES1    0.0000
     35 C35        2.6882    3.5775    9.1791 C.ar      1 RES1    0.0000
     36 C36        2.8091    4.9161    8.7525 C.ar      1 RES1    0.0000
     37 C37        1.9515    5.9140    9.1453 C.ar      1 RES1    0.0000
     38 C38        0.9103    5.5831    9.9952 C.ar      1 RES1    0.0000
     39 C39        0.7481    4.2735   10.4022 C.ar      1 RES1    0.0000
     40 C40        1.6189    3.2305   10.0354 C.ar      1 RES1    0.0000
     41 H1        -0.3731    2.0200   14.7165 H         1 RES1    0.0000
     42 H2        -2.7161    1.9904   14.7889 H         1 RES1    0.0000
     43 H3        -3.9966    1.8640   12.8754 H         1 RES1    0.0000
     44 H4        -4.0084    1.6136   10.2307 H         1 RES1    0.0000
     45 H5        -2.7576    1.3819    8.3079 H         1 RES1    0.0000
     46 H6        -0.4034    1.4549    8.3500 H         1 RES1    0.0000
     47 H7         0.3859   -0.0519   13.9969 H         1 RES1    0.0000
     48 H8         1.3354   -2.0490   14.6837 H         1 RES1    0.0000
     49 H9         3.5096   -2.6003   14.0202 H         1 RES1    0.0000
     50 H10        4.7540   -1.0617   12.8030 H         1 RES1    0.0000
     51 H11        4.9472    0.8856   11.5040 H         1 RES1    0.0000
     52 H12        4.9129    3.0543   11.4573 H         1 RES1    0.0000
     53 H13        4.7161    4.9861   12.8287 H         1 RES1    0.0000
     54 H14        3.4094    6.5469   13.9431 H         1 RES1    0.0000
     55 H15        1.1893    6.0239   14.4595 H         1 RES1    0.0000
     56 H16        0.2872    4.0013   13.7889 H         1 RES1    0.0000
     57 H17        0.3831   -0.5409   10.9713 H         1 RES1    0.0000
     58 H18        1.2570   -2.6596   10.6863 H         1 RES1    0.0000
     59 H19        3.3135   -2.9364    9.5836 H         1 RES1    0.0000
     60 H20        4.3796   -1.0697    8.7238 H         1 RES1    0.0000
     61 H21        4.6935    1.0620    8.3617 H         1 RES1    0.0000
     62 H22        4.3992    3.1451    8.1631 H         1 RES1    0.0000
     63 H23        3.5197    5.1393    8.1631 H         1 RES1    0.0000
     64 H24        2.0692    6.8070    8.8430 H         1 RES1    0.0000
     65 H25        0.3100    6.2549   10.2961 H         1 RES1    0.0000
     66 H26        0.0082    4.0661   10.9597 H         1 RES1    0.0000
     67 C41       -2.1002   -0.7952   17.9378 C.ar      2 RES2    0.0000
     68 C42       -1.7498   -1.5002   16.8110 C.ar      2 RES2    0.0000
     69 C43       -1.6322   -2.9067   16.8810 C.ar      2 RES2    0.0000
     70 C44       -1.8452   -3.6031   18.0513 C.ar      2 RES2    0.0000
     71 C45       -2.1968   -2.9100   19.2314 C.ar      2 RES2    0.0000
     72 C46       -2.4587   -3.4683   20.5126 C.ar      2 RES2    0.0000
     73 C47       -2.8228   -2.6605   21.5565 C.ar      2 RES2    0.0000
     74 C48       -2.9444   -1.2572   21.4219 C.ar      2 RES2    0.0000
     75 C49       -2.6829   -0.6828   20.2007 C.ar      2 RES2    0.0000
     76 C50       -2.3216   -1.5051   19.1253 C.ar      2 RES2    0.0000
     77 C51       -2.3540    0.7085   18.1188 C.3       2 RES2    0.0000
     78 C52       -3.5922    1.1015   17.2598 C.ar      2 RES2    0.0000
     79 C53       -4.3592    0.0983   16.6521 C.ar      2 RES2    0.0000
     80 C54       -5.4953    0.3678   15.9119 C.ar      2 RES2    0.0000
     81 C55       -5.9285    1.6665   15.7475 C.ar      2 RES2    0.0000
     82 C56       -5.2147    2.6699   16.3586 C.ar      2 RES2    0.0000
     83 C57       -4.0552    2.4273   17.1161 C.ar      2 RES2    0.0000
     84 C58       -3.4240    3.6052   17.6908 C.2       2 RES2    0.0000
     85 C59       -2.1124    3.8039   17.9207 C.2       2 RES2    0.0000
     86 C60       -1.0079    2.9002   17.6396 C.ar      2 RES2    0.0000
     87 C61        0.1975    3.5209   17.2778 C.ar      2 RES2    0.0000
     88 C62        1.3361    2.8146   16.9782 C.ar      2 RES2    0.0000
     89 C63        1.2939    1.4427   17.0829 C.ar      2 RES2    0.0000
     90 C64        0.1141    0.8086   17.4555 C.ar      2 RES2    0.0000
     91 C65       -1.0748    1.4937   17.7179 C.ar      2 RES2    0.0000
     92 C66       -2.7170    0.8016   19.7968 C.3       2 RES2    0.0000
     93 C67       -4.1688    1.2727   20.0306 C.ar      2 RES2    0.0000
     94 C68       -5.1688    0.3331   19.7573 C.ar      2 RES2    0.0000
     95 C69       -6.5187    0.5956   19.8173 C.ar      2 RES2    0.0000
     96 C70       -6.9362    1.8583   20.2077 C.ar      2 RES2    0.0000
     97 C71       -5.9906    2.8028   20.4953 C.ar      2 RES2    0.0000
     98 C72       -4.6193    2.5545   20.4180 C.ar      2 RES2    0.0000
     99 C73       -3.8145    3.7017   20.8266 C.2       2 RES2    0.0000
    100 C74       -2.5102    3.7954   21.0916 C.2       2 RES2    0.0000
    101 C75       -1.4739    2.7869   21.0694 C.ar      2 RES2    0.0000
    102 C76       -0.2945    3.2032   21.7093 C.ar      2 RES2    0.0000
    103 C77        0.7845    2.4012   21.8864 C.ar      2 RES2    0.0000
    104 C78        0.7347    1.1158   21.3553 C.ar      2 RES2    0.0000
    105 C79       -0.4135    0.6869   20.7292 C.ar      2 RES2    0.0000
    106 C80       -1.5515    1.4728   20.5638 C.ar      2 RES2    0.0000
    107 H27       -1.5888   -1.0455   15.9921 H         2 RES2    0.0000
    108 H28       -1.3990   -3.3885   16.0949 H         2 RES2    0.0000
    109 H29       -1.7562   -4.5494   18.0644 H         2 RES2    0.0000
    110 H30       -2.3803   -4.4062   20.6460 H         2 RES2    0.0000
    111 H31       -3.0001   -3.0558   22.4006 H         2 RES2    0.0000
    112 H32       -3.2021   -0.7212   22.1623 H         2 RES2    0.0000
    113 H33       -4.0866   -0.8060   16.7537 H         2 RES2    0.0000
    114 H34       -5.9802   -0.3453   15.5155 H         2 RES2    0.0000
    115 H35       -6.6980    1.8621   15.2258 H         2 RES2    0.0000
    116 H36       -5.5178    3.5657   16.2654 H         2 RES2    0.0000
    117 H37       -4.0047    4.3166   17.9312 H         2 RES2    0.0000
    118 H38       -1.8798    4.6360   18.3144 H         2 RES2    0.0000
    119 H39        0.2273    4.4690   17.2397 H         2 RES2    0.0000
    120 H40        2.1297    3.2591   16.7070 H         2 RES2    0.0000
    121 H41        2.0717    0.9286   16.9009 H         2 RES2    0.0000
    122 H42        0.1169   -0.1383   17.5364 H         2 RES2    0.0000
    123 H43       -4.8984   -0.5442   19.5152 H         2 RES2    0.0000
    124 H44       -7.1526   -0.0756   19.5947 H         2 RES2    0.0000
    125 H45       -7.8614    2.0644   20.2745 H         2 RES2    0.0000
    126 H46       -6.2804    3.6683   20.7605 H         2 RES2    0.0000
    127 H47       -4.2987    4.5137   20.9194 H         2 RES2    0.0000
    128 H48       -2.2145    4.6643   21.3329 H         2 RES2    0.0000
    129 H49       -0.2506    4.0950   22.0361 H         2 RES2    0.0000
    130 H50        1.5493    2.7065   22.3585 H         2 RES2    0.0000
    131 H51        1.4863    0.5395   21.4240 H         2 RES2    0.0000
    132 H52       -0.4314   -0.1993   20.3890 H         2 RES2    0.0000
    133 C81        0.8340   -6.6442   20.7682 C.ar      3 RES3    0.0000
    134 C82       -0.0630   -6.8336   21.7983 C.ar      3 RES3    0.0000
    135 C83       -1.3742   -7.2847   21.5055 C.ar      3 RES3    0.0000
    136 C84       -1.8007   -7.5485   20.2327 C.ar      3 RES3    0.0000
    137 C85       -0.9052   -7.3749   19.1454 C.ar      3 RES3    0.0000
    138 C86       -1.1651   -7.6425   17.7745 C.ar      3 RES3    0.0000
    139 C87       -0.1740   -7.4868   16.8402 C.ar      3 RES3    0.0000
    140 C88        1.1223   -7.0350   17.1911 C.ar      3 RES3    0.0000
    141 C89        1.3908   -6.7391   18.5008 C.ar      3 RES3    0.0000
    142 C90        0.3937   -6.9199   19.4657 C.ar      3 RES3    0.0000
    143 C91        2.2974   -6.1673   20.7913 C.3       3 RES3    0.0000
    144 C92        3.1675   -7.1303   21.6347 C.ar      3 RES3    0.0000
    145 C93        2.6131   -8.2640   22.2406 C.ar      3 RES3    0.0000
    146 C94        3.3803   -9.2088   22.8950 C.ar      3 RES3    0.0000
    147 C95        4.7470   -9.0753   22.9464 C.ar      3 RES3    0.0000
    148 C96        5.3236   -7.9770   22.3686 C.ar      3 RES3    0.0000
    149 C97        4.5683   -6.9779   21.7422 C.ar      3 RES3    0.0000
    150 C98        5.3194   -5.8439   21.2350 C.2       3 RES3    0.0000
    151 C99        4.9067   -4.5804   21.1310 C.2       3 RES3    0.0000
    152 C100       3.6024   -4.0349   21.4759 C.ar      3 RES3    0.0000
    153 C101       3.5989   -2.7100   21.9401 C.ar      3 RES3    0.0000
    154 C102       2.4526   -2.0703   22.2990 C.ar      3 RES3    0.0000
    155 C103       1.2401   -2.7250   22.1588 C.ar      3 RES3    0.0000
    156 C104       1.2157   -4.0271   21.6922 C.ar      3 RES3    0.0000
    157 C105       2.3764   -4.7261   21.3535 C.ar      3 RES3    0.0000
    158 C106       2.7071   -6.2469   19.1195 C.3       3 RES3    0.0000
    159 C107       3.7063   -7.3900   18.8555 C.ar      3 RES3    0.0000
    160 C108       3.2014   -8.6723   19.1433 C.ar      3 RES3    0.0000
    161 C109       3.9177   -9.8367   18.9961 C.ar      3 RES3    0.0000
    162 C110       5.2065   -9.7677   18.4835 C.ar      3 RES3    0.0000
    163 C111       5.7296   -8.5443   18.1868 C.ar      3 RES3    0.0000
    164 C112       5.0301   -7.3300   18.3744 C.ar      3 RES3    0.0000
    165 C113       5.8004   -6.1388   18.0632 C.2       3 RES3    0.0000
    166 C114       5.4361   -4.8679   17.9541 C.2       3 RES3    0.0000
    167 C115       4.1314   -4.2431   18.0747 C.ar      3 RES3    0.0000
    168 C116       4.1016   -2.9005   17.6403 C.ar      3 RES3    0.0000
    169 C117       2.9652   -2.1455   17.6350 C.ar      3 RES3    0.0000
    170 C118       1.7842   -2.7157   18.0894 C.ar      3 RES3    0.0000
    171 C119       1.7881   -4.0281   18.5197 C.ar      3 RES3    0.0000
    172 C120       2.9335   -4.8294   18.5417 C.ar      3 RES3    0.0000
    173 H53        0.1957   -6.6630   22.6973 H         3 RES3    0.0000
    174 H54       -1.9834   -7.4100   22.2230 H         3 RES3    0.0000
    175 H55       -2.6896   -7.8454   20.0783 H         3 RES3    0.0000
    176 H56       -2.0287   -7.9310   17.5037 H         3 RES3    0.0000
    177 H57       -0.3619   -7.6877   15.9313 H         3 RES3    0.0000
    178 H58        1.7954   -6.9391   16.5271 H         3 RES3    0.0000
    179 H59        1.6723   -8.3883   22.1997 H         3 RES3    0.0000
    180 H60        2.9620   -9.9539   23.3118 H         3 RES3    0.0000
    181 H61        5.2820   -9.7338   23.3748 H         3 RES3    0.0000
    182 H62        6.2700   -7.8899   22.3936 H         3 RES3    0.0000
    183 H63        6.2060   -6.0225   20.9451 H         3 RES3    0.0000
    184 H64        5.5412   -3.9616   20.7909 H         3 RES3    0.0000
    185 H65        4.4246   -2.2438   22.0058 H         3 RES3    0.0000
    186 H66        2.4845   -1.1842   22.6412 H         3 RES3    0.0000
    187 H67        0.4295   -2.2828   22.3819 H         3 RES3    0.0000
    188 H68        0.3768   -4.4635   21.5992 H         3 RES3    0.0000
    189 H69        2.3083   -8.7378   19.4592 H         3 RES3    0.0000
    190 H70        3.5381  -10.6729   19.2396 H         3 RES3    0.0000
    191 H71        5.7142  -10.5584   18.3424 H         3 RES3    0.0000
    192 H72        6.6113   -8.5058   17.8354 H         3 RES3    0.0000
    193 H73        6.7245   -6.2968   17.9125 H         3 RES3    0.0000
    194 H74        6.1471   -4.2670   17.7653 H         3 RES3    0.0000
    195 H75        4.9105   -2.5039   17.3378 H         3 RES3    0.0000
    196 H76        2.9822   -1.2477   17.3261 H         3 RES3    0.0000
    197 H77        0.9814   -2.2080   18.1041 H         3 RES3    0.0000
    198 H78        0.9694   -4.4062   18.8167 H         3 RES3    0.0000
@<TRIPOS>BOND
     1    1    2 ar
     2    2    3 ar
     3    3    4 ar
     4    4    5 ar
     5    5    6 ar
     6    6    7 ar
     7    7    8 ar
     8    8    9 ar
     9    9   10 ar
    10   10    1 ar
    11   11    1 1
    12   12   11 1
    13   13   12 ar
    14   14   13 ar
    15   15   14 ar
    16   16   15 ar
    17   17   12 ar
    18   18   17 1
    19   19   18 2
    20   20   19 1
    21   21   20 ar
    22   22   21 ar
    23   23   22 ar
    24   24   23 ar
    25   25   11 1
    26   26    9 1
    27   27   26 1
    28   28   27 ar
    29   29   28 ar
    30   30   29 ar
    31   31   30 ar
    32   32   27 ar
    33   33   32 1
    34   34   33 2
    35   35   34 1
    36   36   35 ar
    37   37   36 ar
    38   38   37 ar
    39   39   38 ar
    40   40   26 1
    41   41    2 1
    42   42    3 1
    43   43    4 1
    44   44    6 1
    45   45    7 1
    46   46    8 1
    47   47   13 1
    48   48   14 1
    49   49   15 1
    50   50   16 1
    51   51   18 1
    52   52   19 1
    53   53   21 1
    54   54   22 1
    55   55   23 1
    56   56   24 1
    57   57   28 1
    58   58   29 1
    59   59   30 1
    60   60   31 1
    61   61   33 1
    62   62   34 1
    63   63   36 1
    64   64   37 1
    65   65   38 1
    66   66   39 1
    67   67   68 ar
    68   68   69 ar
    69   69   70 ar
    70   70   71 ar
    71   71   72 ar
    72   72   73 ar
    73   73   74 ar
    74   74   75 ar
    75   75   76 ar
    76   76   67 ar
    77   77   67 1
    78   78   77 1
    79   79   78 ar
    80   80   79 ar
    81   81   80 ar
    82   82   81 ar
    83   83   78 ar
    84   84   83 1
    85   85   84 2
    86   86   85 1
    87   87   86 ar
    88   88   87 ar
    89   89   88 ar
    90   90   89 ar
    91   91   77 1
    92   92   75 1
    93   93   92 1
    94   94   93 ar
    95   95   94 ar
    96   96   95 ar
    97   97   96 ar
    98   98   93 ar
    99   99   98 1
   100  100   99 2
   101  101  100 1
   102  102  101 ar
   103  103  102 ar
   104  104  103 ar
   105  105  104 ar
   106  106   92 1
   107  107   68 1
   108  108   69 1
   109  109   70 1
   110  110   72 1
   111  111   73 1
   112  112   74 1
   113  113   79 1
   114  114   80 1
   115  115   81 1
   116  116   82 1
   117  117   84 1
   118  118   85 1
   119  119   87 1
   120  120   88 1
   121  121   89 1
   122  122   90 1
   123  123   94 1
   124  124   95 1
   125  125   96 1
   126  126   97 1
   127  127   99 1
   128  128  100 1
   129  129  102 1
   130  130  103 1
   131  131  104 1
   132  132  105 1
   133  133  134 ar
   134  134  135 ar
   135  135  136 ar
   136  136  137 ar
   137  137  138 ar
   138  138  139 ar
   139  139  140 ar
   140  140  141 ar
   141  141  142 ar
   142  142  133 ar
   143  143  133 1
   144  144  143 1
   145  145  144 ar
   146  146  145 ar
   147  147  146 ar
   148  148  147 ar
   149  149  144 ar
   150  150  149 1
   151  151  150 2
   152  152  151 1
   153  153  152 ar
   154  154  153 ar
   155  155  154 ar
   156  156  155 ar
   157  157  143 1
   158  158  141 1
   159  159  158 1
   160  160  159 ar
   161  161  160 ar
   162  162  161 ar
   163  163  162 ar
   164  164  159 ar
   165  165  164 1
   166  166  165 2
   167  167  166 1
   168  168  167 ar
   169  169  168 ar
   170  170  169 ar
   171  171  170 ar
   172  172  158 1
   173  173  134 1
   174  174  135 1
   175  175  136 1
   176  176  138 1
   177  177  139 1
   178  178  140 1
   179  179  145 1
   180  180  146 1
   181  181  147 1
   182  182  148 1
   183  183  150 1
   184  184  151 1
   185  185  153 1
   186  186  154 1
   187  187  155 1
   188  188  156 1
   189  189  160 1
   190  190  161 1
   191  191  162 1
   192  192  163 1
   193  193  165 1
   194  194  166 1
   195  195  168 1
   196  196  169 1
   197  197  170 1
   198  198  171 1
   199    5   10 ar
   200   11   26 1
   201   16   17 ar
   202   20   25 ar
   203   24   25 ar
   204   31   32 ar
   205   35   40 ar
   206   39   40 ar
   207   71   76 ar
   208   77   92 1
   209   82   83 ar
   210   86   91 ar
   211   90   91 ar
   212   97   98 ar
   213  101  106 ar
   214  105  106 ar
   215  137  142 ar
   216  143  158 1
   217  148  149 ar
   218  152  157 ar
   219  156  157 ar
   220  163  164 ar
   221  167  172 ar
   222  171  172 ar
@<TRIPOS>SUBSTRUCTURE
     1 RES1 1
     2 RES2 67
     3 RES3 133

@<TRIPOS>CRYSIN
  10.9156   15.0873   23.6604  98.9750  90.7240  94.5620   2 1

