# MOL2 file generated by ConQuest
# Please check atom types

@<TRIPOS>MOLECULE
PEVRIU03
   198   222     3
SMALL
NO_CHARGES
****
Generated from CSD

@<TRIPOS>ATOM
      1 C1        -0.1835    1.9083   12.7245 C.ar      1 RES1    0.0000
      2 C2        -0.8349    1.9696   13.9386 C.ar      1 RES1    0.0000
      3 C3        -2.2421    1.9447   13.9766 C.ar      1 RES1    0.0000
      4 C4        -3.0110    1.8533   12.8440 C.ar      1 RES1    0.0000
      5 C5        -2.3856    1.7607   11.5812 C.ar      1 RES1    0.0000
      6 C6        -3.0212    1.6198   10.3191 C.ar      1 RES1    0.0000
      7 C7        -2.2750    1.5008    9.1768 C.ar      1 RES1    0.0000
      8 C8        -0.8634    1.5478    9.1932 C.ar      1 RES1    0.0000
      9 C9        -0.2187    1.7108   10.3960 C.ar      1 RES1    0.0000
     10 C10       -0.9734    1.7880   11.5688 C.ar      1 RES1    0.0000
     11 C11        1.3148    1.9387   12.4013 C.3       1 RES1    0.0000
     12 C12        2.0273    0.7100   13.0120 C.ar      1 RES1    0.0000
     13 C13        1.3268   -0.2334   13.7728 C.ar      1 RES1    0.0000
     14 C14        1.8884   -1.4275   14.1773 C.ar      1 RES1    0.0000
     15 C15        3.1800   -1.7395   13.8168 C.ar      1 RES1    0.0000
     16 C16        3.9147   -0.8253   13.0953 C.ar      1 RES1    0.0000
     17 C17        3.3802    0.4188   12.7234 C.ar      1 RES1    0.0000
     18 C18        4.2898    1.3199   12.0331 C.2       1 RES1    0.0000
     19 C19        4.2649    2.6526   12.0087 C.2       1 RES1    0.0000
     20 C20        3.3252    3.5439   12.6709 C.ar      1 RES1    0.0000
     21 C21        3.8315    4.7864   13.0635 C.ar      1 RES1    0.0000
     22 C22        3.0622    5.7131   13.7285 C.ar      1 RES1    0.0000
     23 C23        1.7527    5.4054   14.0131 C.ar      1 RES1    0.0000
     24 C24        1.2250    4.1957   13.6111 C.ar      1 RES1    0.0000
     25 C25        1.9701    3.2349   12.9248 C.ar      1 RES1    0.0000
     26 C26        1.2830    1.8577   10.6637 C.3       1 RES1    0.0000
     27 C27        1.9349    0.5501   10.1650 C.ar      1 RES1    0.0000
     28 C28        1.2718   -0.6189   10.5724 C.ar      1 RES1    0.0000
     29 C29        1.7760   -1.8889   10.3822 C.ar      1 RES1    0.0000
     30 C30        2.9764   -2.0538    9.7188 C.ar      1 RES1    0.0000
     31 C31        3.6070   -0.9369    9.2339 C.ar      1 RES1    0.0000
     32 C32        3.1282    0.3714    9.4300 C.ar      1 RES1    0.0000
     33 C33        3.9358    1.3987    8.8015 C.2       1 RES1    0.0000
     34 C34        3.7594    2.7120    8.7017 C.2       1 RES1    0.0000
     35 C35        2.7182    3.5878    9.2126 C.ar      1 RES1    0.0000
     36 C36        2.8341    4.9246    8.7884 C.ar      1 RES1    0.0000
     37 C37        1.9789    5.9139    9.1786 C.ar      1 RES1    0.0000
     38 C38        0.9366    5.5842   10.0259 C.ar      1 RES1    0.0000
     39 C39        0.7765    4.2810   10.4295 C.ar      1 RES1    0.0000
     40 C40        1.6504    3.2372   10.0671 C.ar      1 RES1    0.0000
     41 H1        -0.3414    2.0280   14.7360 H         1 RES1    0.0000
     42 H2        -2.6723    1.9920   14.8109 H         1 RES1    0.0000
     43 H3        -3.9484    1.8514   12.9089 H         1 RES1    0.0000
     44 H4        -3.9600    1.6086   10.2667 H         1 RES1    0.0000
     45 H5        -2.7172    1.3836    8.3553 H         1 RES1    0.0000
     46 H6        -0.3732    1.4692    8.3951 H         1 RES1    0.0000
     47 H7         0.4394   -0.0466   14.0168 H         1 RES1    0.0000
     48 H8         1.3880   -2.0276   14.6985 H         1 RES1    0.0000
     49 H9         3.5551   -2.5662   14.0590 H         1 RES1    0.0000
     50 H10        4.7959   -1.0386   12.8456 H         1 RES1    0.0000
     51 H11        4.9806    0.9115   11.5433 H         1 RES1    0.0000
     52 H12        4.9384    3.0680   11.5011 H         1 RES1    0.0000
     53 H13        4.7265    4.9962   12.8667 H         1 RES1    0.0000
     54 H14        3.4247    6.5420   13.9840 H         1 RES1    0.0000
     55 H15        1.2169    6.0202   14.4806 H         1 RES1    0.0000
     56 H16        0.3249    4.0104   13.8084 H         1 RES1    0.0000
     57 H17        0.4384   -0.5309   10.9975 H         1 RES1    0.0000
     58 H18        1.3053   -2.6367   10.7024 H         1 RES1    0.0000
     59 H19        3.3504   -2.9077    9.6014 H         1 RES1    0.0000
     60 H20        4.4020   -1.0510    8.7441 H         1 RES1    0.0000
     61 H21        4.7202    1.0809    8.3928 H         1 RES1    0.0000
     62 H22        4.4295    3.1539    8.2124 H         1 RES1    0.0000
     63 H23        3.5369    5.1481    8.2054 H         1 RES1    0.0000
     64 H24        2.0954    6.7974    8.8800 H         1 RES1    0.0000
     65 H25        0.3415    6.2487   10.3229 H         1 RES1    0.0000
     66 H26        0.0418    4.0745   10.9788 H         1 RES1    0.0000
     67 C41       -2.0744   -0.7920   17.9921 C.ar      2 RES2    0.0000
     68 C42       -1.7256   -1.4980   16.8675 C.ar      2 RES2    0.0000
     69 C43       -1.6034   -2.9032   16.9458 C.ar      2 RES2    0.0000
     70 C44       -1.8082   -3.5935   18.1153 C.ar      2 RES2    0.0000
     71 C45       -2.1621   -2.8983   19.2949 C.ar      2 RES2    0.0000
     72 C46       -2.4168   -3.4499   20.5739 C.ar      2 RES2    0.0000
     73 C47       -2.7823   -2.6388   21.6172 C.ar      2 RES2    0.0000
     74 C48       -2.9044   -1.2414   21.4780 C.ar      2 RES2    0.0000
     75 C49       -2.6523   -0.6711   20.2511 C.ar      2 RES2    0.0000
     76 C50       -2.2901   -1.4955   19.1834 C.ar      2 RES2    0.0000
     77 C51       -2.3291    0.7109   18.1687 C.3       2 RES2    0.0000
     78 C52       -3.5654    1.1069   17.3112 C.ar      2 RES2    0.0000
     79 C53       -4.3318    0.1088   16.7050 C.ar      2 RES2    0.0000
     80 C54       -5.4689    0.3763   15.9662 C.ar      2 RES2    0.0000
     81 C55       -5.8984    1.6722   15.7985 C.ar      2 RES2    0.0000
     82 C56       -5.1846    2.6740   16.4040 C.ar      2 RES2    0.0000
     83 C57       -4.0288    2.4295   17.1601 C.ar      2 RES2    0.0000
     84 C58       -3.3903    3.6061   17.7300 C.2       2 RES2    0.0000
     85 C59       -2.0824    3.8004   17.9556 C.2       2 RES2    0.0000
     86 C60       -0.9782    2.8939   17.6864 C.ar      2 RES2    0.0000
     87 C61        0.2319    3.5052   17.3269 C.ar      2 RES2    0.0000
     88 C62        1.3645    2.7941   17.0359 C.ar      2 RES2    0.0000
     89 C63        1.3197    1.4306   17.1428 C.ar      2 RES2    0.0000
     90 C64        0.1431    0.8045   17.5105 C.ar      2 RES2    0.0000
     91 C65       -1.0479    1.4895   17.7682 C.ar      2 RES2    0.0000
     92 C66       -2.6885    0.8105   19.8480 C.3       2 RES2    0.0000
     93 C67       -4.1405    1.2838   20.0796 C.ar      2 RES2    0.0000
     94 C68       -5.1370    0.3401   19.8142 C.ar      2 RES2    0.0000
     95 C69       -6.4901    0.6028   19.8789 C.ar      2 RES2    0.0000
     96 C70       -6.9050    1.8659   20.2673 C.ar      2 RES2    0.0000
     97 C71       -5.9654    2.8077   20.5465 C.ar      2 RES2    0.0000
     98 C72       -4.5945    2.5609   20.4633 C.ar      2 RES2    0.0000
     99 C73       -3.7980    3.7073   20.8660 C.2       2 RES2    0.0000
    100 C74       -2.4933    3.8027   21.1246 C.2       2 RES2    0.0000
    101 C75       -1.4519    2.7994   21.1016 C.ar      2 RES2    0.0000
    102 C76       -0.2779    3.2255   21.7366 C.ar      2 RES2    0.0000
    103 C77        0.7992    2.4244   21.9252 C.ar      2 RES2    0.0000
    104 C78        0.7524    1.1362   21.4157 C.ar      2 RES2    0.0000
    105 C79       -0.3950    0.7033   20.7903 C.ar      2 RES2    0.0000
    106 C80       -1.5261    1.4871   20.6116 C.ar      2 RES2    0.0000
    107 H27       -1.5699   -1.0515   16.0547 H         2 RES2    0.0000
    108 H28       -1.3739   -3.3822   16.1695 H         2 RES2    0.0000
    109 H29       -1.7134   -4.5289   18.1324 H         2 RES2    0.0000
    110 H30       -2.3345   -4.3765   20.7090 H         2 RES2    0.0000
    111 H31       -2.9566   -3.0284   22.4541 H         2 RES2    0.0000
    112 H32       -3.1543   -0.7088   22.2105 H         2 RES2    0.0000
    113 H33       -4.0621   -0.7865   16.8043 H         2 RES2    0.0000
    114 H34       -5.9504   -0.3308   15.5769 H         2 RES2    0.0000
    115 H35       -6.6603    1.8659   15.2817 H         2 RES2    0.0000
    116 H36       -5.4813    3.5604   16.3077 H         2 RES2    0.0000
    117 H37       -3.9617    4.3133   17.9684 H         2 RES2    0.0000
    118 H38       -1.8496    4.6284   18.3362 H         2 RES2    0.0000
    119 H39        0.2662    4.4431   17.2845 H         2 RES2    0.0000
    120 H40        2.1525    3.2309   16.7691 H         2 RES2    0.0000
    121 H41        2.0888    0.9203   16.9659 H         2 RES2    0.0000
    122 H42        0.1436   -0.1312   17.5913 H         2 RES2    0.0000
    123 H43       -4.8682   -0.5283   19.5777 H         2 RES2    0.0000
    124 H44       -7.1186   -0.0630   19.6643 H         2 RES2    0.0000
    125 H45       -7.8209    2.0688   20.3366 H         2 RES2    0.0000
    126 H46       -6.2524    3.6647   20.8074 H         2 RES2    0.0000
    127 H47       -4.2783    4.5097   20.9597 H         2 RES2    0.0000
    128 H48       -2.2020    4.6645   21.3602 H         2 RES2    0.0000
    129 H49       -0.2346    4.1121   22.0489 H         2 RES2    0.0000
    130 H50        1.5573    2.7339   22.3885 H         2 RES2    0.0000
    131 H51        1.4946    0.5648   21.4961 H         2 RES2    0.0000
    132 H52       -0.4133   -0.1779   20.4631 H         2 RES2    0.0000
    133 C81        0.9034   -6.6403   20.8161 C.ar      3 RES3    0.0000
    134 C82        0.0105   -6.8278   21.8477 C.ar      3 RES3    0.0000
    135 C83       -1.2974   -7.2745   21.5551 C.ar      3 RES3    0.0000
    136 C84       -1.7252   -7.5434   20.2876 C.ar      3 RES3    0.0000
    137 C85       -0.8368   -7.3787   19.2041 C.ar      3 RES3    0.0000
    138 C86       -1.0960   -7.6455   17.8384 C.ar      3 RES3    0.0000
    139 C87       -0.1143   -7.4918   16.9008 C.ar      3 RES3    0.0000
    140 C88        1.1801   -7.0394   17.2458 C.ar      3 RES3    0.0000
    141 C89        1.4548   -6.7429   18.5515 C.ar      3 RES3    0.0000
    142 C90        0.4631   -6.9219   19.5170 C.ar      3 RES3    0.0000
    143 C91        2.3677   -6.1687   20.8362 C.3       3 RES3    0.0000
    144 C92        3.2404   -7.1315   21.6832 C.ar      3 RES3    0.0000
    145 C93        2.6831   -8.2613   22.2829 C.ar      3 RES3    0.0000
    146 C94        3.4527   -9.2076   22.9418 C.ar      3 RES3    0.0000
    147 C95        4.8123   -9.0741   23.0062 C.ar      3 RES3    0.0000
    148 C96        5.3895   -7.9769   22.4298 C.ar      3 RES3    0.0000
    149 C97        4.6379   -6.9770   21.7959 C.ar      3 RES3    0.0000
    150 C98        5.3875   -5.8489   21.2925 C.2       3 RES3    0.0000
    151 C99        4.9770   -4.5882   21.1813 C.2       3 RES3    0.0000
    152 C100       3.6681   -4.0389   21.5223 C.ar      3 RES3    0.0000
    153 C101       3.6613   -2.7130   21.9805 C.ar      3 RES3    0.0000
    154 C102       2.5197   -2.0757   22.3330 C.ar      3 RES3    0.0000
    155 C103       1.3111   -2.7251   22.1955 C.ar      3 RES3    0.0000
    156 C104       1.2839   -4.0240   21.7338 C.ar      3 RES3    0.0000
    157 C105       2.4440   -4.7286   21.3972 C.ar      3 RES3    0.0000
    158 C106       2.7711   -6.2492   19.1647 C.3       3 RES3    0.0000
    159 C107       3.7728   -7.3957   18.8995 C.ar      3 RES3    0.0000
    160 C108       3.2699   -8.6759   19.1860 C.ar      3 RES3    0.0000
    161 C109       3.9917   -9.8392   19.0368 C.ar      3 RES3    0.0000
    162 C110       5.2699   -9.7727   18.5301 C.ar      3 RES3    0.0000
    163 C111       5.7946   -8.5504   18.2341 C.ar      3 RES3    0.0000
    164 C112       5.0978   -7.3361   18.4217 C.ar      3 RES3    0.0000
    165 C113       5.8636   -6.1540   18.1139 C.2       3 RES3    0.0000
    166 C114       5.5009   -4.8817   18.0045 C.2       3 RES3    0.0000
    167 C115       4.1970   -4.2538   18.1202 C.ar      3 RES3    0.0000
    168 C116       4.1655   -2.9179   17.6878 C.ar      3 RES3    0.0000
    169 C117       3.0325   -2.1644   17.6759 C.ar      3 RES3    0.0000
    170 C118       1.8495   -2.7265   18.1268 C.ar      3 RES3    0.0000
    171 C119       1.8544   -4.0369   18.5547 C.ar      3 RES3    0.0000
    172 C120       2.9973   -4.8386   18.5871 C.ar      3 RES3    0.0000
    173 H53        0.2684   -6.6601   22.7352 H         3 RES3    0.0000
    174 H54       -1.9006   -7.3916   22.2667 H         3 RES3    0.0000
    175 H55       -2.6059   -7.8365   20.1375 H         3 RES3    0.0000
    176 H56       -1.9514   -7.9308   17.5749 H         3 RES3    0.0000
    177 H57       -0.3040   -7.6931   16.0032 H         3 RES3    0.0000
    178 H58        1.8423   -6.9436   16.5864 H         3 RES3    0.0000
    179 H59        1.7526   -8.3859   22.2386 H         3 RES3    0.0000
    180 H60        3.0362   -9.9465   23.3466 H         3 RES3    0.0000
    181 H61        5.3383   -9.7230   23.4379 H         3 RES3    0.0000
    182 H62        6.3255   -7.8891   22.4588 H         3 RES3    0.0000
    183 H63        6.2666   -6.0260   21.0112 H         3 RES3    0.0000
    184 H64        5.6053   -3.9774   20.8426 H         3 RES3    0.0000
    185 H65        4.4774   -2.2506   22.0442 H         3 RES3    0.0000
    186 H66        2.5502   -1.1991   22.6696 H         3 RES3    0.0000
    187 H67        0.5105   -2.2857   22.4166 H         3 RES3    0.0000
    188 H68        0.4526   -4.4524   21.6413 H         3 RES3    0.0000
    189 H69        2.3865   -8.7427   19.4980 H         3 RES3    0.0000
    190 H70        3.6169  -10.6677   19.2778 H         3 RES3    0.0000
    191 H71        5.7715  -10.5556   18.3924 H         3 RES3    0.0000
    192 H72        6.6677   -8.5137   17.8865 H         3 RES3    0.0000
    193 H73        6.7777   -6.3118   17.9661 H         3 RES3    0.0000
    194 H74        6.2067   -4.2880   17.8209 H         3 RES3    0.0000
    195 H75        4.9668   -2.5251   17.3922 H         3 RES3    0.0000
    196 H76        3.0526   -1.2766   17.3665 H         3 RES3    0.0000
    197 H77        1.0570   -2.2224   18.1418 H         3 RES3    0.0000
    198 H78        1.0412   -4.4127   18.8422 H         3 RES3    0.0000
@<TRIPOS>BOND
     1    1    2 ar
     2    2    3 ar
     3    3    4 ar
     4    4    5 ar
     5    5    6 ar
     6    6    7 ar
     7    7    8 ar
     8    8    9 ar
     9    9   10 ar
    10   10    1 ar
    11   11    1 1
    12   12   11 1
    13   13   12 ar
    14   14   13 ar
    15   15   14 ar
    16   16   15 ar
    17   17   12 ar
    18   18   17 1
    19   19   18 2
    20   20   19 1
    21   21   20 ar
    22   22   21 ar
    23   23   22 ar
    24   24   23 ar
    25   25   11 1
    26   26    9 1
    27   27   26 1
    28   28   27 ar
    29   29   28 ar
    30   30   29 ar
    31   31   30 ar
    32   32   27 ar
    33   33   32 1
    34   34   33 2
    35   35   34 1
    36   36   35 ar
    37   37   36 ar
    38   38   37 ar
    39   39   38 ar
    40   40   26 1
    41   41    2 1
    42   42    3 1
    43   43    4 1
    44   44    6 1
    45   45    7 1
    46   46    8 1
    47   47   13 1
    48   48   14 1
    49   49   15 1
    50   50   16 1
    51   51   18 1
    52   52   19 1
    53   53   21 1
    54   54   22 1
    55   55   23 1
    56   56   24 1
    57   57   28 1
    58   58   29 1
    59   59   30 1
    60   60   31 1
    61   61   33 1
    62   62   34 1
    63   63   36 1
    64   64   37 1
    65   65   38 1
    66   66   39 1
    67   67   68 ar
    68   68   69 ar
    69   69   70 ar
    70   70   71 ar
    71   71   72 ar
    72   72   73 ar
    73   73   74 ar
    74   74   75 ar
    75   75   76 ar
    76   76   67 ar
    77   77   67 1
    78   78   77 1
    79   79   78 ar
    80   80   79 ar
    81   81   80 ar
    82   82   81 ar
    83   83   78 ar
    84   84   83 1
    85   85   84 2
    86   86   85 1
    87   87   86 ar
    88   88   87 ar
    89   89   88 ar
    90   90   89 ar
    91   91   77 1
    92   92   75 1
    93   93   92 1
    94   94   93 ar
    95   95   94 ar
    96   96   95 ar
    97   97   96 ar
    98   98   93 ar
    99   99   98 1
   100  100   99 2
   101  101  100 1
   102  102  101 ar
   103  103  102 ar
   104  104  103 ar
   105  105  104 ar
   106  106   92 1
   107  107   68 1
   108  108   69 1
   109  109   70 1
   110  110   72 1
   111  111   73 1
   112  112   74 1
   113  113   79 1
   114  114   80 1
   115  115   81 1
   116  116   82 1
   117  117   84 1
   118  118   85 1
   119  119   87 1
   120  120   88 1
   121  121   89 1
   122  122   90 1
   123  123   94 1
   124  124   95 1
   125  125   96 1
   126  126   97 1
   127  127   99 1
   128  128  100 1
   129  129  102 1
   130  130  103 1
   131  131  104 1
   132  132  105 1
   133  133  134 ar
   134  134  135 ar
   135  135  136 ar
   136  136  137 ar
   137  137  138 ar
   138  138  139 ar
   139  139  140 ar
   140  140  141 ar
   141  141  142 ar
   142  142  133 ar
   143  143  133 1
   144  144  143 1
   145  145  144 ar
   146  146  145 ar
   147  147  146 ar
   148  148  147 ar
   149  149  144 ar
   150  150  149 1
   151  151  150 2
   152  152  151 1
   153  153  152 ar
   154  154  153 ar
   155  155  154 ar
   156  156  155 ar
   157  157  143 1
   158  158  141 1
   159  159  158 1
   160  160  159 ar
   161  161  160 ar
   162  162  161 ar
   163  163  162 ar
   164  164  159 ar
   165  165  164 1
   166  166  165 2
   167  167  166 1
   168  168  167 ar
   169  169  168 ar
   170  170  169 ar
   171  171  170 ar
   172  172  158 1
   173  173  134 1
   174  174  135 1
   175  175  136 1
   176  176  138 1
   177  177  139 1
   178  178  140 1
   179  179  145 1
   180  180  146 1
   181  181  147 1
   182  182  148 1
   183  183  150 1
   184  184  151 1
   185  185  153 1
   186  186  154 1
   187  187  155 1
   188  188  156 1
   189  189  160 1
   190  190  161 1
   191  191  162 1
   192  192  163 1
   193  193  165 1
   194  194  166 1
   195  195  168 1
   196  196  169 1
   197  197  170 1
   198  198  171 1
   199    5   10 ar
   200   11   26 1
   201   16   17 ar
   202   20   25 ar
   203   24   25 ar
   204   31   32 ar
   205   35   40 ar
   206   39   40 ar
   207   71   76 ar
   208   77   92 1
   209   82   83 ar
   210   86   91 ar
   211   90   91 ar
   212   97   98 ar
   213  101  106 ar
   214  105  106 ar
   215  137  142 ar
   216  143  158 1
   217  148  149 ar
   218  152  157 ar
   219  156  157 ar
   220  163  164 ar
   221  167  172 ar
   222  171  172 ar
@<TRIPOS>SUBSTRUCTURE
     1 RES1 1
     2 RES2 67
     3 RES3 133

@<TRIPOS>CRYSIN
  10.9491   15.1150   23.7190  98.9570  90.5410  94.6570   2 1

