# MOL2 file generated by ConQuest
# Please check atom types

@<TRIPOS>MOLECULE
PEVRIU02
   198   222     3
SMALL
NO_CHARGES
****
Generated from CSD

@<TRIPOS>ATOM
      1 C1        -0.1990    1.9043   12.7093 C.ar      1 RES1    0.0000
      2 C2        -0.8501    1.9645   13.9261 C.ar      1 RES1    0.0000
      3 C3        -2.2608    1.9426   13.9609 C.ar      1 RES1    0.0000
      4 C4        -3.0275    1.8550   12.8265 C.ar      1 RES1    0.0000
      5 C5        -2.4010    1.7544   11.5644 C.ar      1 RES1    0.0000
      6 C6        -3.0399    1.6165   10.3031 C.ar      1 RES1    0.0000
      7 C7        -2.2904    1.4964    9.1565 C.ar      1 RES1    0.0000
      8 C8        -0.8793    1.5439    9.1741 C.ar      1 RES1    0.0000
      9 C9        -0.2325    1.7054   10.3782 C.ar      1 RES1    0.0000
     10 C10       -0.9892    1.7854   11.5529 C.ar      1 RES1    0.0000
     11 C11        1.3008    1.9299   12.3862 C.3       1 RES1    0.0000
     12 C12        2.0067    0.7015   12.9968 C.ar      1 RES1    0.0000
     13 C13        1.3047   -0.2431   13.7621 C.ar      1 RES1    0.0000
     14 C14        1.8628   -1.4396   14.1654 C.ar      1 RES1    0.0000
     15 C15        3.1548   -1.7554   13.7976 C.ar      1 RES1    0.0000
     16 C16        3.8892   -0.8369   13.0778 C.ar      1 RES1    0.0000
     17 C17        3.3594    0.4119   12.7058 C.ar      1 RES1    0.0000
     18 C18        4.2706    1.3091   12.0156 C.2       1 RES1    0.0000
     19 C19        4.2515    2.6438   11.9908 C.2       1 RES1    0.0000
     20 C20        3.3121    3.5375   12.6555 C.ar      1 RES1    0.0000
     21 C21        3.8274    4.7783   13.0478 C.ar      1 RES1    0.0000
     22 C22        3.0554    5.7083   13.7125 C.ar      1 RES1    0.0000
     23 C23        1.7447    5.4026   14.0007 C.ar      1 RES1    0.0000
     24 C24        1.2119    4.1907   13.5992 C.ar      1 RES1    0.0000
     25 C25        1.9559    3.2310   12.9091 C.ar      1 RES1    0.0000
     26 C26        1.2668    1.8496   10.6466 C.3       1 RES1    0.0000
     27 C27        1.9159    0.5419   10.1515 C.ar      1 RES1    0.0000
     28 C28        1.2486   -0.6278   10.5607 C.ar      1 RES1    0.0000
     29 C29        1.7510   -1.9005   10.3729 C.ar      1 RES1    0.0000
     30 C30        2.9516   -2.0641    9.7105 C.ar      1 RES1    0.0000
     31 C31        3.5882   -0.9478    9.2223 C.ar      1 RES1    0.0000
     32 C32        3.1082    0.3590    9.4165 C.ar      1 RES1    0.0000
     33 C33        3.9183    1.3893    8.7874 C.2       1 RES1    0.0000
     34 C34        3.7454    2.7076    8.6842 C.2       1 RES1    0.0000
     35 C35        2.7075    3.5818    9.1966 C.ar      1 RES1    0.0000
     36 C36        2.8260    4.9195    8.7708 C.ar      1 RES1    0.0000
     37 C37        1.9725    5.9154    9.1619 C.ar      1 RES1    0.0000
     38 C38        0.9267    5.5846   10.0100 C.ar      1 RES1    0.0000
     39 C39        0.7688    4.2758   10.4143 C.ar      1 RES1    0.0000
     40 C40        1.6376    3.2346   10.0514 C.ar      1 RES1    0.0000
     41 H1        -0.3521    2.0197   14.7341 H         1 RES1    0.0000
     42 H2        -2.6972    1.9904   14.8043 H         1 RES1    0.0000
     43 H3        -3.9757    1.8619   12.8906 H         1 RES1    0.0000
     44 H4        -3.9881    1.6068   10.2517 H         1 RES1    0.0000
     45 H5        -2.7365    1.3778    8.3263 H         1 RES1    0.0000
     46 H6        -0.3845    1.4659    8.3684 H         1 RES1    0.0000
     47 H7         0.4092   -0.0515   14.0136 H         1 RES1    0.0000
     48 H8         1.3580   -2.0450   14.6944 H         1 RES1    0.0000
     49 H9         3.5325   -2.5936   14.0370 H         1 RES1    0.0000
     50 H10        4.7795   -1.0544   12.8251 H         1 RES1    0.0000
     51 H11        4.9665    0.8942   11.5197 H         1 RES1    0.0000
     52 H12        4.9330    3.0614   11.4776 H         1 RES1    0.0000
     53 H13        4.7328    4.9863   12.8508 H         1 RES1    0.0000
     54 H14        3.4233    6.5458   13.9668 H         1 RES1    0.0000
     55 H15        1.2061    6.0252   14.4745 H         1 RES1    0.0000
     56 H16        0.3030    4.0038   13.8007 H         1 RES1    0.0000
     57 H17        0.4058   -0.5376   10.9909 H         1 RES1    0.0000
     58 H18        1.2754   -2.6571   10.6962 H         1 RES1    0.0000
     59 H19        3.3293   -2.9285    9.5943 H         1 RES1    0.0000
     60 H20        4.3925   -1.0651    8.7287 H         1 RES1    0.0000
     61 H21        4.7114    1.0655    8.3777 H         1 RES1    0.0000
     62 H22        4.4223    3.1523    8.1882 H         1 RES1    0.0000
     63 H23        3.5363    5.1422    8.1812 H         1 RES1    0.0000
     64 H24        2.0933    6.8091    8.8597 H         1 RES1    0.0000
     65 H25        0.3240    6.2541   10.3102 H         1 RES1    0.0000
     66 H26        0.0283    4.0667   10.9699 H         1 RES1    0.0000
     67 C41       -2.0909   -0.7945   17.9668 C.ar      2 RES2    0.0000
     68 C42       -1.7401   -1.5065   16.8416 C.ar      2 RES2    0.0000
     69 C43       -1.6209   -2.9099   16.9157 C.ar      2 RES2    0.0000
     70 C44       -1.8338   -3.6020   18.0838 C.ar      2 RES2    0.0000
     71 C45       -2.1846   -2.9069   19.2660 C.ar      2 RES2    0.0000
     72 C46       -2.4408   -3.4641   20.5443 C.ar      2 RES2    0.0000
     73 C47       -2.8038   -2.6518   21.5882 C.ar      2 RES2    0.0000
     74 C48       -2.9268   -1.2541   21.4515 C.ar      2 RES2    0.0000
     75 C49       -2.6677   -0.6817   20.2280 C.ar      2 RES2    0.0000
     76 C50       -2.3092   -1.5044   19.1574 C.ar      2 RES2    0.0000
     77 C51       -2.3408    0.7065   18.1435 C.3       2 RES2    0.0000
     78 C52       -3.5760    1.1011   17.2863 C.ar      2 RES2    0.0000
     79 C53       -4.3441    0.0993   16.6801 C.ar      2 RES2    0.0000
     80 C54       -5.4799    0.3680   15.9385 C.ar      2 RES2    0.0000
     81 C55       -5.9143    1.6651   15.7743 C.ar      2 RES2    0.0000
     82 C56       -5.1990    2.6697   16.3823 C.ar      2 RES2    0.0000
     83 C57       -4.0389    2.4244   17.1394 C.ar      2 RES2    0.0000
     84 C58       -3.4020    3.6023   17.7121 C.2       2 RES2    0.0000
     85 C59       -2.0927    3.8007   17.9395 C.2       2 RES2    0.0000
     86 C60       -0.9886    2.8929   17.6634 C.ar      2 RES2    0.0000
     87 C61        0.2168    3.5099   17.3041 C.ar      2 RES2    0.0000
     88 C62        1.3515    2.8013   17.0063 C.ar      2 RES2    0.0000
     89 C63        1.3077    1.4337   17.1134 C.ar      2 RES2    0.0000
     90 C64        0.1282    0.8019   17.4828 C.ar      2 RES2    0.0000
     91 C65       -1.0591    1.4881   17.7439 C.ar      2 RES2    0.0000
     92 C66       -2.7017    0.8039   19.8223 C.3       2 RES2    0.0000
     93 C67       -4.1529    1.2741   20.0563 C.ar      2 RES2    0.0000
     94 C68       -5.1530    0.3346   19.7849 C.ar      2 RES2    0.0000
     95 C69       -6.5051    0.5952   19.8497 C.ar      2 RES2    0.0000
     96 C70       -6.9209    1.8586   20.2366 C.ar      2 RES2    0.0000
     97 C71       -5.9753    2.8033   20.5216 C.ar      2 RES2    0.0000
     98 C72       -4.6049    2.5566   20.4420 C.ar      2 RES2    0.0000
     99 C73       -3.8037    3.6995   20.8479 C.2       2 RES2    0.0000
    100 C74       -2.4996    3.7983   21.1081 C.2       2 RES2    0.0000
    101 C75       -1.4615    2.7892   21.0863 C.ar      2 RES2    0.0000
    102 C76       -0.2869    3.2102   21.7234 C.ar      2 RES2    0.0000
    103 C77        0.7942    2.4117   21.9080 C.ar      2 RES2    0.0000
    104 C78        0.7463    1.1217   21.3879 C.ar      2 RES2    0.0000
    105 C79       -0.4047    0.6908   20.7614 C.ar      2 RES2    0.0000
    106 C80       -1.5376    1.4767   20.5885 C.ar      2 RES2    0.0000
    107 H27       -1.5794   -1.0551   16.0209 H         2 RES2    0.0000
    108 H28       -1.3864   -3.3931   16.1332 H         2 RES2    0.0000
    109 H29       -1.7453   -4.5480   18.0983 H         2 RES2    0.0000
    110 H30       -2.3612   -4.4010   20.6788 H         2 RES2    0.0000
    111 H31       -2.9790   -3.0457   22.4334 H         2 RES2    0.0000
    112 H32       -3.1844   -0.7173   22.1924 H         2 RES2    0.0000
    113 H33       -4.0727   -0.8049   16.7835 H         2 RES2    0.0000
    114 H34       -5.9637   -0.3459   15.5389 H         2 RES2    0.0000
    115 H35       -6.6864    1.8597   15.2558 H         2 RES2    0.0000
    116 H36       -5.5001    3.5651   16.2876 H         2 RES2    0.0000
    117 H37       -3.9820    4.3157   17.9533 H         2 RES2    0.0000
    118 H38       -1.8586    4.6354   18.3276 H         2 RES2    0.0000
    119 H39        0.2491    4.4585   17.2655 H         2 RES2    0.0000
    120 H40        2.1467    3.2439   16.7344 H         2 RES2    0.0000
    121 H41        2.0862    0.9192   16.9333 H         2 RES2    0.0000
    122 H42        0.1290   -0.1447   17.5626 H         2 RES2    0.0000
    123 H43       -4.8824   -0.5427   19.5395 H         2 RES2    0.0000
    124 H44       -7.1394   -0.0789   19.6330 H         2 RES2    0.0000
    125 H45       -7.8462    2.0652   20.3021 H         2 RES2    0.0000
    126 H46       -6.2647    3.6682   20.7864 H         2 RES2    0.0000
    127 H47       -4.2902    4.5104   20.9432 H         2 RES2    0.0000
    128 H48       -2.2050    4.6691   21.3455 H         2 RES2    0.0000
    129 H49       -0.2442    4.1032   22.0427 H         2 RES2    0.0000
    130 H50        1.5594    2.7235   22.3773 H         2 RES2    0.0000
    131 H51        1.4965    0.5448   21.4625 H         2 RES2    0.0000
    132 H52       -0.4243   -0.1982   20.4285 H         2 RES2    0.0000
    133 C81        0.8589   -6.6466   20.7930 C.ar      3 RES3    0.0000
    134 C82       -0.0343   -6.8356   21.8242 C.ar      3 RES3    0.0000
    135 C83       -1.3441   -7.2839   21.5320 C.ar      3 RES3    0.0000
    136 C84       -1.7711   -7.5493   20.2631 C.ar      3 RES3    0.0000
    137 C85       -0.8811   -7.3807   19.1743 C.ar      3 RES3    0.0000
    138 C86       -1.1387   -7.6490   17.8071 C.ar      3 RES3    0.0000
    139 C87       -0.1544   -7.4940   16.8710 C.ar      3 RES3    0.0000
    140 C88        1.1422   -7.0448   17.2182 C.ar      3 RES3    0.0000
    141 C89        1.4157   -6.7461   18.5283 C.ar      3 RES3    0.0000
    142 C90        0.4197   -6.9267   19.4931 C.ar      3 RES3    0.0000
    143 C91        2.3220   -6.1722   20.8157 C.3       3 RES3    0.0000
    144 C92        3.1938   -7.1365   21.6607 C.ar      3 RES3    0.0000
    145 C93        2.6380   -8.2702   22.2647 C.ar      3 RES3    0.0000
    146 C94        3.4046   -9.2152   22.9200 C.ar      3 RES3    0.0000
    147 C95        4.7696   -9.0779   22.9766 C.ar      3 RES3    0.0000
    148 C96        5.3456   -7.9806   22.3995 C.ar      3 RES3    0.0000
    149 C97        4.5939   -6.9811   21.7706 C.ar      3 RES3    0.0000
    150 C98        5.3474   -5.8503   21.2658 C.2       3 RES3    0.0000
    151 C99        4.9333   -4.5882   21.1584 C.2       3 RES3    0.0000
    152 C100       3.6305   -4.0414   21.5011 C.ar      3 RES3    0.0000
    153 C101       3.6293   -2.7164   21.9618 C.ar      3 RES3    0.0000
    154 C102       2.4846   -2.0772   22.3153 C.ar      3 RES3    0.0000
    155 C103       1.2728   -2.7295   22.1770 C.ar      3 RES3    0.0000
    156 C104       1.2453   -4.0313   21.7133 C.ar      3 RES3    0.0000
    157 C105       2.4046   -4.7321   21.3760 C.ar      3 RES3    0.0000
    158 C106       2.7306   -6.2543   19.1436 C.3       3 RES3    0.0000
    159 C107       3.7307   -7.3982   18.8774 C.ar      3 RES3    0.0000
    160 C108       3.2237   -8.6789   19.1649 C.ar      3 RES3    0.0000
    161 C109       3.9429   -9.8430   19.0154 C.ar      3 RES3    0.0000
    162 C110       5.2267   -9.7774   18.5080 C.ar      3 RES3    0.0000
    163 C111       5.7527   -8.5538   18.2144 C.ar      3 RES3    0.0000
    164 C112       5.0569   -7.3393   18.3994 C.ar      3 RES3    0.0000
    165 C113       5.8220   -6.1512   18.0894 C.2       3 RES3    0.0000
    166 C114       5.4636   -4.8800   17.9814 C.2       3 RES3    0.0000
    167 C115       4.1581   -4.2528   18.0976 C.ar      3 RES3    0.0000
    168 C116       4.1288   -2.9134   17.6637 C.ar      3 RES3    0.0000
    169 C117       2.9944   -2.1579   17.6531 C.ar      3 RES3    0.0000
    170 C118       1.8165   -2.7269   18.1077 C.ar      3 RES3    0.0000
    171 C119       1.8140   -4.0380   18.5356 C.ar      3 RES3    0.0000
    172 C120       2.9583   -4.8394   18.5648 C.ar      3 RES3    0.0000
    173 H53        0.2260   -6.6673   22.7212 H         3 RES3    0.0000
    174 H54       -1.9536   -7.4053   22.2509 H         3 RES3    0.0000
    175 H55       -2.6608   -7.8453   20.1103 H         3 RES3    0.0000
    176 H56       -2.0022   -7.9397   17.5392 H         3 RES3    0.0000
    177 H57       -0.3465   -7.6928   15.9624 H         3 RES3    0.0000
    178 H58        1.8136   -6.9512   16.5519 H         3 RES3    0.0000
    179 H59        1.6968   -8.3945   22.2229 H         3 RES3    0.0000
    180 H60        2.9850   -9.9609   23.3318 H         3 RES3    0.0000
    181 H61        5.3043   -9.7339   23.4090 H         3 RES3    0.0000
    182 H62        6.2912   -7.8940   22.4264 H         3 RES3    0.0000
    183 H63        6.2357   -6.0284   20.9806 H         3 RES3    0.0000
    184 H64        5.5678   -3.9694   20.8145 H         3 RES3    0.0000
    185 H65        4.4554   -2.2510   22.0287 H         3 RES3    0.0000
    186 H66        2.5152   -1.1898   22.6533 H         3 RES3    0.0000
    187 H67        0.4625   -2.2847   22.4007 H         3 RES3    0.0000
    188 H68        0.4054   -4.4655   21.6216 H         3 RES3    0.0000
    189 H69        2.3306   -8.7447   19.4810 H         3 RES3    0.0000
    190 H70        3.5619  -10.6785   19.2587 H         3 RES3    0.0000
    191 H71        5.7336  -10.5695   18.3674 H         3 RES3    0.0000
    192 H72        6.6363   -8.5174   17.8667 H         3 RES3    0.0000
    193 H73        6.7456   -6.3109   17.9369 H         3 RES3    0.0000
    194 H74        6.1777   -4.2805   17.7989 H         3 RES3    0.0000
    195 H75        4.9385   -2.5173   17.3637 H         3 RES3    0.0000
    196 H76        3.0116   -1.2610   17.3403 H         3 RES3    0.0000
    197 H77        1.0148   -2.2170   18.1241 H         3 RES3    0.0000
    198 H78        0.9923   -4.4156   18.8259 H         3 RES3    0.0000
@<TRIPOS>BOND
     1    1    2 ar
     2    2    3 ar
     3    3    4 ar
     4    4    5 ar
     5    5    6 ar
     6    6    7 ar
     7    7    8 ar
     8    8    9 ar
     9    9   10 ar
    10   10    1 ar
    11   11    1 1
    12   12   11 1
    13   13   12 ar
    14   14   13 ar
    15   15   14 ar
    16   16   15 ar
    17   17   12 ar
    18   18   17 1
    19   19   18 2
    20   20   19 1
    21   21   20 ar
    22   22   21 ar
    23   23   22 ar
    24   24   23 ar
    25   25   11 1
    26   26    9 1
    27   27   26 1
    28   28   27 ar
    29   29   28 ar
    30   30   29 ar
    31   31   30 ar
    32   32   27 ar
    33   33   32 1
    34   34   33 2
    35   35   34 1
    36   36   35 ar
    37   37   36 ar
    38   38   37 ar
    39   39   38 ar
    40   40   26 1
    41   41    2 1
    42   42    3 1
    43   43    4 1
    44   44    6 1
    45   45    7 1
    46   46    8 1
    47   47   13 1
    48   48   14 1
    49   49   15 1
    50   50   16 1
    51   51   18 1
    52   52   19 1
    53   53   21 1
    54   54   22 1
    55   55   23 1
    56   56   24 1
    57   57   28 1
    58   58   29 1
    59   59   30 1
    60   60   31 1
    61   61   33 1
    62   62   34 1
    63   63   36 1
    64   64   37 1
    65   65   38 1
    66   66   39 1
    67   67   68 ar
    68   68   69 ar
    69   69   70 ar
    70   70   71 ar
    71   71   72 ar
    72   72   73 ar
    73   73   74 ar
    74   74   75 ar
    75   75   76 ar
    76   76   67 ar
    77   77   67 1
    78   78   77 1
    79   79   78 ar
    80   80   79 ar
    81   81   80 ar
    82   82   81 ar
    83   83   78 ar
    84   84   83 1
    85   85   84 2
    86   86   85 1
    87   87   86 ar
    88   88   87 ar
    89   89   88 ar
    90   90   89 ar
    91   91   77 1
    92   92   75 1
    93   93   92 1
    94   94   93 ar
    95   95   94 ar
    96   96   95 ar
    97   97   96 ar
    98   98   93 ar
    99   99   98 1
   100  100   99 2
   101  101  100 1
   102  102  101 ar
   103  103  102 ar
   104  104  103 ar
   105  105  104 ar
   106  106   92 1
   107  107   68 1
   108  108   69 1
   109  109   70 1
   110  110   72 1
   111  111   73 1
   112  112   74 1
   113  113   79 1
   114  114   80 1
   115  115   81 1
   116  116   82 1
   117  117   84 1
   118  118   85 1
   119  119   87 1
   120  120   88 1
   121  121   89 1
   122  122   90 1
   123  123   94 1
   124  124   95 1
   125  125   96 1
   126  126   97 1
   127  127   99 1
   128  128  100 1
   129  129  102 1
   130  130  103 1
   131  131  104 1
   132  132  105 1
   133  133  134 ar
   134  134  135 ar
   135  135  136 ar
   136  136  137 ar
   137  137  138 ar
   138  138  139 ar
   139  139  140 ar
   140  140  141 ar
   141  141  142 ar
   142  142  133 ar
   143  143  133 1
   144  144  143 1
   145  145  144 ar
   146  146  145 ar
   147  147  146 ar
   148  148  147 ar
   149  149  144 ar
   150  150  149 1
   151  151  150 2
   152  152  151 1
   153  153  152 ar
   154  154  153 ar
   155  155  154 ar
   156  156  155 ar
   157  157  143 1
   158  158  141 1
   159  159  158 1
   160  160  159 ar
   161  161  160 ar
   162  162  161 ar
   163  163  162 ar
   164  164  159 ar
   165  165  164 1
   166  166  165 2
   167  167  166 1
   168  168  167 ar
   169  169  168 ar
   170  170  169 ar
   171  171  170 ar
   172  172  158 1
   173  173  134 1
   174  174  135 1
   175  175  136 1
   176  176  138 1
   177  177  139 1
   178  178  140 1
   179  179  145 1
   180  180  146 1
   181  181  147 1
   182  182  148 1
   183  183  150 1
   184  184  151 1
   185  185  153 1
   186  186  154 1
   187  187  155 1
   188  188  156 1
   189  189  160 1
   190  190  161 1
   191  191  162 1
   192  192  163 1
   193  193  165 1
   194  194  166 1
   195  195  168 1
   196  196  169 1
   197  197  170 1
   198  198  171 1
   199    5   10 ar
   200   11   26 1
   201   16   17 ar
   202   20   25 ar
   203   24   25 ar
   204   31   32 ar
   205   35   40 ar
   206   39   40 ar
   207   71   76 ar
   208   77   92 1
   209   82   83 ar
   210   86   91 ar
   211   90   91 ar
   212   97   98 ar
   213  101  106 ar
   214  105  106 ar
   215  137  142 ar
   216  143  158 1
   217  148  149 ar
   218  152  157 ar
   219  156  157 ar
   220  163  164 ar
   221  167  172 ar
   222  171  172 ar
@<TRIPOS>SUBSTRUCTURE
     1 RES1 1
     2 RES2 67
     3 RES3 133

@<TRIPOS>CRYSIN
  10.9310   15.1030   23.6920  98.9790  90.6440  94.5440   2 1

