# MOL2 file generated by ConQuest
# Please check atom types

@<TRIPOS>MOLECULE
PEVRIU06
   198   222     3
SMALL
NO_CHARGES
****
Generated from CSD

@<TRIPOS>ATOM
      1 C1        -0.1451    1.9227   12.7747 C.ar      1 RES1    0.0000
      2 C2        -0.8033    1.9776   13.9812 C.ar      1 RES1    0.0000
      3 C3        -2.2041    1.9508   14.0217 C.ar      1 RES1    0.0000
      4 C4        -2.9643    1.8550   12.8940 C.ar      1 RES1    0.0000
      5 C5        -2.3407    1.7611   11.6334 C.ar      1 RES1    0.0000
      6 C6        -2.9730    1.6197   10.3734 C.ar      1 RES1    0.0000
      7 C7        -2.2340    1.5093    9.2318 C.ar      1 RES1    0.0000
      8 C8        -0.8277    1.5647    9.2488 C.ar      1 RES1    0.0000
      9 C9        -0.1858    1.7244   10.4458 C.ar      1 RES1    0.0000
     10 C10       -0.9322    1.7981   11.6189 C.ar      1 RES1    0.0000
     11 C11        1.3530    1.9504   12.4497 C.3       1 RES1    0.0000
     12 C12        2.0625    0.7247   13.0546 C.ar      1 RES1    0.0000
     13 C13        1.3569   -0.2226   13.8152 C.ar      1 RES1    0.0000
     14 C14        1.9205   -1.4101   14.2185 C.ar      1 RES1    0.0000
     15 C15        3.2076   -1.7205   13.8678 C.ar      1 RES1    0.0000
     16 C16        3.9413   -0.8036   13.1557 C.ar      1 RES1    0.0000
     17 C17        3.4124    0.4383   12.7771 C.ar      1 RES1    0.0000
     18 C18        4.3224    1.3402   12.0930 C.2       1 RES1    0.0000
     19 C19        4.2953    2.6723   12.0704 C.2       1 RES1    0.0000
     20 C20        3.3574    3.5599   12.7284 C.ar      1 RES1    0.0000
     21 C21        3.8601    4.8052   13.1198 C.ar      1 RES1    0.0000
     22 C22        3.0902    5.7247   13.7829 C.ar      1 RES1    0.0000
     23 C23        1.7858    5.4184   14.0621 C.ar      1 RES1    0.0000
     24 C24        1.2561    4.2081   13.6569 C.ar      1 RES1    0.0000
     25 C25        2.0002    3.2529   12.9723 C.ar      1 RES1    0.0000
     26 C26        1.3182    1.8740   10.7094 C.3       1 RES1    0.0000
     27 C27        1.9658    0.5657   10.2125 C.ar      1 RES1    0.0000
     28 C28        1.3057   -0.6051   10.6161 C.ar      1 RES1    0.0000
     29 C29        1.8010   -1.8776   10.4181 C.ar      1 RES1    0.0000
     30 C30        2.9935   -2.0352    9.7525 C.ar      1 RES1    0.0000
     31 C31        3.6271   -0.9238    9.2725 C.ar      1 RES1    0.0000
     32 C32        3.1544    0.3828    9.4743 C.ar      1 RES1    0.0000
     33 C33        3.9679    1.4148    8.8527 C.2       1 RES1    0.0000
     34 C34        3.7966    2.7301    8.7575 C.2       1 RES1    0.0000
     35 C35        2.7614    3.5994    9.2624 C.ar      1 RES1    0.0000
     36 C36        2.8752    4.9372    8.8424 C.ar      1 RES1    0.0000
     37 C37        2.0277    5.9249    9.2234 C.ar      1 RES1    0.0000
     38 C38        0.9825    5.5994   10.0643 C.ar      1 RES1    0.0000
     39 C39        0.8204    4.2946   10.4672 C.ar      1 RES1    0.0000
     40 C40        1.6867    3.2541   10.1114 C.ar      1 RES1    0.0000
     41 H1        -0.3178    2.0325   14.7714 H         1 RES1    0.0000
     42 H2        -2.6302    1.9994   14.8466 H         1 RES1    0.0000
     43 H3        -3.8926    1.8517   12.9558 H         1 RES1    0.0000
     44 H4        -3.9015    1.6022   10.3242 H         1 RES1    0.0000
     45 H5        -2.6720    1.3947    8.4193 H         1 RES1    0.0000
     46 H6        -0.3430    1.4943    8.4593 H         1 RES1    0.0000
     47 H7         0.4776   -0.0404   14.0541 H         1 RES1    0.0000
     48 H8         1.4250   -2.0064   14.7314 H         1 RES1    0.0000
     49 H9         3.5797   -2.5385   14.1082 H         1 RES1    0.0000
     50 H10        4.8150   -1.0132   12.9182 H         1 RES1    0.0000
     51 H11        5.0088    0.9378   11.6106 H         1 RES1    0.0000
     52 H12        4.9614    3.0845   11.5683 H         1 RES1    0.0000
     53 H13        4.7450    5.0168   12.9229 H         1 RES1    0.0000
     54 H14        3.4482    6.5435   14.0400 H         1 RES1    0.0000
     55 H15        1.2543    6.0262   14.5245 H         1 RES1    0.0000
     56 H16        0.3646    4.0252   13.8495 H         1 RES1    0.0000
     57 H17        0.4843   -0.5173   11.0439 H         1 RES1    0.0000
     58 H18        1.3340   -2.6181   10.7311 H         1 RES1    0.0000
     59 H19        3.3621   -2.8811    9.6328 H         1 RES1    0.0000
     60 H20        4.4128   -1.0384    8.7885 H         1 RES1    0.0000
     61 H21        4.7456    1.0993    8.4499 H         1 RES1    0.0000
     62 H22        4.4642    3.1677    8.2805 H         1 RES1    0.0000
     63 H23        3.5738    5.1581    8.2688 H         1 RES1    0.0000
     64 H24        2.1467    6.7989    8.9249 H         1 RES1    0.0000
     65 H25        0.3934    6.2566   10.3571 H         1 RES1    0.0000
     66 H26        0.0914    4.0920   11.0086 H         1 RES1    0.0000
     67 C41       -2.0777   -0.7907   18.0749 C.ar      2 RES2    0.0000
     68 C42       -1.7310   -1.5075   16.9545 C.ar      2 RES2    0.0000
     69 C43       -1.6089   -2.9064   17.0364 C.ar      2 RES2    0.0000
     70 C44       -1.8168   -3.5902   18.2113 C.ar      2 RES2    0.0000
     71 C45       -2.1635   -2.8915   19.3839 C.ar      2 RES2    0.0000
     72 C46       -2.4200   -3.4304   20.6656 C.ar      2 RES2    0.0000
     73 C47       -2.7715   -2.6206   21.7016 C.ar      2 RES2    0.0000
     74 C48       -2.8975   -1.2270   21.5593 C.ar      2 RES2    0.0000
     75 C49       -2.6438   -0.6612   20.3331 C.ar      2 RES2    0.0000
     76 C50       -2.2907   -1.4907   19.2654 C.ar      2 RES2    0.0000
     77 C51       -2.3167    0.7120   18.2423 C.3       2 RES2    0.0000
     78 C52       -3.5482    1.1104   17.3861 C.ar      2 RES2    0.0000
     79 C53       -4.3208    0.1162   16.7887 C.ar      2 RES2    0.0000
     80 C54       -5.4524    0.3804   16.0519 C.ar      2 RES2    0.0000
     81 C55       -5.8738    1.6705   15.8791 C.ar      2 RES2    0.0000
     82 C56       -5.1564    2.6783   16.4745 C.ar      2 RES2    0.0000
     83 C57       -4.0022    2.4362   17.2269 C.ar      2 RES2    0.0000
     84 C58       -3.3571    3.6108   17.7920 C.2       2 RES2    0.0000
     85 C59       -2.0473    3.7979   18.0220 C.2       2 RES2    0.0000
     86 C60       -0.9564    2.8858   17.7525 C.ar      2 RES2    0.0000
     87 C61        0.2638    3.4850   17.4030 C.ar      2 RES2    0.0000
     88 C62        1.3833    2.7707   17.1227 C.ar      2 RES2    0.0000
     89 C63        1.3310    1.4155   17.2370 C.ar      2 RES2    0.0000
     90 C64        0.1464    0.7946   17.5940 C.ar      2 RES2    0.0000
     91 C65       -1.0359    1.4851   17.8470 C.ar      2 RES2    0.0000
     92 C66       -2.6829    0.8141   19.9262 C.3       2 RES2    0.0000
     93 C67       -4.1292    1.2909   20.1614 C.ar      2 RES2    0.0000
     94 C68       -5.1237    0.3525   19.9027 C.ar      2 RES2    0.0000
     95 C69       -6.4736    0.6113   19.9761 C.ar      2 RES2    0.0000
     96 C70       -6.8823    1.8727   20.3622 C.ar      2 RES2    0.0000
     97 C71       -5.9482    2.8226   20.6320 C.ar      2 RES2    0.0000
     98 C72       -4.5790    2.5748   20.5348 C.ar      2 RES2    0.0000
     99 C73       -3.7853    3.7134   20.9283 C.2       2 RES2    0.0000
    100 C74       -2.4844    3.8140   21.1745 C.2       2 RES2    0.0000
    101 C75       -1.4403    2.8140   21.1609 C.ar      2 RES2    0.0000
    102 C76       -0.2676    3.2460   21.7874 C.ar      2 RES2    0.0000
    103 C77        0.7990    2.4522   21.9831 C.ar      2 RES2    0.0000
    104 C78        0.7481    1.1646   21.5045 C.ar      2 RES2    0.0000
    105 C79       -0.3931    0.7233   20.8758 C.ar      2 RES2    0.0000
    106 C80       -1.5200    1.5005   20.6875 C.ar      2 RES2    0.0000
    107 H27       -1.5784   -1.0704   16.1472 H         2 RES2    0.0000
    108 H28       -1.3812   -3.3845   16.2718 H         2 RES2    0.0000
    109 H29       -1.7282   -4.5158   18.2308 H         2 RES2    0.0000
    110 H30       -2.3488   -4.3474   20.8013 H         2 RES2    0.0000
    111 H31       -2.9344   -3.0033   22.5345 H         2 RES2    0.0000
    112 H32       -3.1470   -0.6979   22.2829 H         2 RES2    0.0000
    113 H33       -4.0592   -0.7700   16.8950 H         2 RES2    0.0000
    114 H34       -5.9313   -0.3196   15.6698 H         2 RES2    0.0000
    115 H35       -6.6285    1.8605   15.3687 H         2 RES2    0.0000
    116 H36       -5.4492    3.5549   16.3729 H         2 RES2    0.0000
    117 H37       -3.9179    4.3162   18.0215 H         2 RES2    0.0000
    118 H38       -1.8124    4.6147   18.4002 H         2 RES2    0.0000
    119 H39        0.3073    4.4135   17.3607 H         2 RES2    0.0000
    120 H40        2.1672    3.1961   16.8598 H         2 RES2    0.0000
    121 H41        2.0926    0.9072   17.0738 H         2 RES2    0.0000
    122 H42        0.1394   -0.1316   17.6688 H         2 RES2    0.0000
    123 H43       -4.8594   -0.5058   19.6630 H         2 RES2    0.0000
    124 H44       -7.0965   -0.0493   19.7712 H         2 RES2    0.0000
    125 H45       -7.7880    2.0712   20.4368 H         2 RES2    0.0000
    126 H46       -6.2319    3.6699   20.8907 H         2 RES2    0.0000
    127 H47       -4.2613    4.5067   21.0247 H         2 RES2    0.0000
    128 H48       -2.1967    4.6709   21.3916 H         2 RES2    0.0000
    129 H49       -0.2239    4.1267   22.0830 H         2 RES2    0.0000
    130 H50        1.5518    2.7654   22.4311 H         2 RES2    0.0000
    131 H51        1.4780    0.5977   21.6056 H         2 RES2    0.0000
    132 H52       -0.4071   -0.1517   20.5591 H         2 RES2    0.0000
    133 C81        0.9309   -6.6625   20.8972 C.ar      3 RES3    0.0000
    134 C82        0.0379   -6.8426   21.9292 C.ar      3 RES3    0.0000
    135 C83       -1.2690   -7.2909   21.6425 C.ar      3 RES3    0.0000
    136 C84       -1.6934   -7.5594   20.3839 C.ar      3 RES3    0.0000
    137 C85       -0.8163   -7.4031   19.2959 C.ar      3 RES3    0.0000
    138 C86       -1.0743   -7.6693   17.9310 C.ar      3 RES3    0.0000
    139 C87       -0.1083   -7.5149   16.9962 C.ar      3 RES3    0.0000
    140 C88        1.1877   -7.0653   17.3303 C.ar      3 RES3    0.0000
    141 C89        1.4723   -6.7673   18.6344 C.ar      3 RES3    0.0000
    142 C90        0.4844   -6.9456   19.6033 C.ar      3 RES3    0.0000
    143 C91        2.3897   -6.1911   20.9104 C.3       3 RES3    0.0000
    144 C92        3.2603   -7.1542   21.7552 C.ar      3 RES3    0.0000
    145 C93        2.6999   -8.2898   22.3502 C.ar      3 RES3    0.0000
    146 C94        3.4594   -9.2264   23.0087 C.ar      3 RES3    0.0000
    147 C95        4.8107   -9.0927   23.0844 C.ar      3 RES3    0.0000
    148 C96        5.3932   -7.9950   22.5188 C.ar      3 RES3    0.0000
    149 C97        4.6513   -6.9934   21.8803 C.ar      3 RES3    0.0000
    150 C98        5.4070   -5.8663   21.3822 C.2       3 RES3    0.0000
    151 C99        4.9976   -4.6065   21.2709 C.2       3 RES3    0.0000
    152 C100       3.6946   -4.0572   21.5967 C.ar      3 RES3    0.0000
    153 C101       3.6869   -2.7305   22.0489 C.ar      3 RES3    0.0000
    154 C102       2.5481   -2.0955   22.3956 C.ar      3 RES3    0.0000
    155 C103       1.3472   -2.7461   22.2641 C.ar      3 RES3    0.0000
    156 C104       1.3165   -4.0430   21.8022 C.ar      3 RES3    0.0000
    157 C105       2.4738   -4.7497   21.4690 C.ar      3 RES3    0.0000
    158 C106       2.7931   -6.2768   19.2374 C.3       3 RES3    0.0000
    159 C107       3.7886   -7.4223   18.9690 C.ar      3 RES3    0.0000
    160 C108       3.2838   -8.7061   19.2463 C.ar      3 RES3    0.0000
    161 C109       3.9918   -9.8669   19.0956 C.ar      3 RES3    0.0000
    162 C110       5.2735   -9.8041   18.5963 C.ar      3 RES3    0.0000
    163 C111       5.8000   -8.5808   18.3073 C.ar      3 RES3    0.0000
    164 C112       5.1089   -7.3660   18.4987 C.ar      3 RES3    0.0000
    165 C113       5.8760   -6.1821   18.1932 C.2       3 RES3    0.0000
    166 C114       5.5195   -4.9104   18.0855 C.2       3 RES3    0.0000
    167 C115       4.2222   -4.2801   18.1967 C.ar      3 RES3    0.0000
    168 C116       4.1972   -2.9488   17.7598 C.ar      3 RES3    0.0000
    169 C117       3.0744   -2.1992   17.7471 C.ar      3 RES3    0.0000
    170 C118       1.8909   -2.7572   18.1847 C.ar      3 RES3    0.0000
    171 C119       1.8822   -4.0652   18.6189 C.ar      3 RES3    0.0000
    172 C120       3.0192   -4.8628   18.6537 C.ar      3 RES3    0.0000
    173 H53        0.2931   -6.6697   22.8073 H         3 RES3    0.0000
    174 H54       -1.8642   -7.4080   22.3488 H         3 RES3    0.0000
    175 H55       -2.5654   -7.8479   20.2392 H         3 RES3    0.0000
    176 H56       -1.9200   -7.9546   17.6711 H         3 RES3    0.0000
    177 H57       -0.3032   -7.7108   16.1072 H         3 RES3    0.0000
    178 H58        1.8387   -6.9726   16.6716 H         3 RES3    0.0000
    179 H59        1.7804   -8.4153   22.2970 H         3 RES3    0.0000
    180 H60        3.0461   -9.9581   23.4070 H         3 RES3    0.0000
    181 H61        5.3280   -9.7373   23.5129 H         3 RES3    0.0000
    182 H62        6.3184   -7.9104   22.5581 H         3 RES3    0.0000
    183 H63        6.2789   -6.0429   21.1094 H         3 RES3    0.0000
    184 H64        5.6238   -4.0024   20.9448 H         3 RES3    0.0000
    185 H65        4.4934   -2.2717   22.1112 H         3 RES3    0.0000
    186 H66        2.5765   -1.2244   22.7203 H         3 RES3    0.0000
    187 H67        0.5562   -2.3118   22.4875 H         3 RES3    0.0000
    188 H68        0.4934   -4.4643   21.7091 H         3 RES3    0.0000
    189 H69        2.4092   -8.7694   19.5525 H         3 RES3    0.0000
    190 H70        3.6138  -10.6843   19.3267 H         3 RES3    0.0000
    191 H71        5.7677  -10.5798   18.4589 H         3 RES3    0.0000
    192 H72        6.6644   -8.5461   17.9651 H         3 RES3    0.0000
    193 H73        6.7801   -6.3402   18.0450 H         3 RES3    0.0000
    194 H74        6.2198   -4.3239   17.9086 H         3 RES3    0.0000
    195 H75        4.9905   -2.5644   17.4642 H         3 RES3    0.0000
    196 H76        3.0983   -1.3178   17.4477 H         3 RES3    0.0000
    197 H77        1.1080   -2.2568   18.1861 H         3 RES3    0.0000
    198 H78        1.0757   -4.4316   18.9011 H         3 RES3    0.0000
@<TRIPOS>BOND
     1    1    2 ar
     2    2    3 ar
     3    3    4 ar
     4    4    5 ar
     5    5    6 ar
     6    6    7 ar
     7    7    8 ar
     8    8    9 ar
     9    9   10 ar
    10   10    1 ar
    11   11    1 1
    12   12   11 1
    13   13   12 ar
    14   14   13 ar
    15   15   14 ar
    16   16   15 ar
    17   17   12 ar
    18   18   17 1
    19   19   18 2
    20   20   19 1
    21   21   20 ar
    22   22   21 ar
    23   23   22 ar
    24   24   23 ar
    25   25   11 1
    26   26    9 1
    27   27   26 1
    28   28   27 ar
    29   29   28 ar
    30   30   29 ar
    31   31   30 ar
    32   32   27 ar
    33   33   32 1
    34   34   33 2
    35   35   34 1
    36   36   35 ar
    37   37   36 ar
    38   38   37 ar
    39   39   38 ar
    40   40   26 1
    41   41    2 1
    42   42    3 1
    43   43    4 1
    44   44    6 1
    45   45    7 1
    46   46    8 1
    47   47   13 1
    48   48   14 1
    49   49   15 1
    50   50   16 1
    51   51   18 1
    52   52   19 1
    53   53   21 1
    54   54   22 1
    55   55   23 1
    56   56   24 1
    57   57   28 1
    58   58   29 1
    59   59   30 1
    60   60   31 1
    61   61   33 1
    62   62   34 1
    63   63   36 1
    64   64   37 1
    65   65   38 1
    66   66   39 1
    67   67   68 ar
    68   68   69 ar
    69   69   70 ar
    70   70   71 ar
    71   71   72 ar
    72   72   73 ar
    73   73   74 ar
    74   74   75 ar
    75   75   76 ar
    76   76   67 ar
    77   77   67 1
    78   78   77 1
    79   79   78 ar
    80   80   79 ar
    81   81   80 ar
    82   82   81 ar
    83   83   78 ar
    84   84   83 1
    85   85   84 2
    86   86   85 1
    87   87   86 ar
    88   88   87 ar
    89   89   88 ar
    90   90   89 ar
    91   91   77 1
    92   92   75 1
    93   93   92 1
    94   94   93 ar
    95   95   94 ar
    96   96   95 ar
    97   97   96 ar
    98   98   93 ar
    99   99   98 1
   100  100   99 2
   101  101  100 1
   102  102  101 ar
   103  103  102 ar
   104  104  103 ar
   105  105  104 ar
   106  106   92 1
   107  107   68 1
   108  108   69 1
   109  109   70 1
   110  110   72 1
   111  111   73 1
   112  112   74 1
   113  113   79 1
   114  114   80 1
   115  115   81 1
   116  116   82 1
   117  117   84 1
   118  118   85 1
   119  119   87 1
   120  120   88 1
   121  121   89 1
   122  122   90 1
   123  123   94 1
   124  124   95 1
   125  125   96 1
   126  126   97 1
   127  127   99 1
   128  128  100 1
   129  129  102 1
   130  130  103 1
   131  131  104 1
   132  132  105 1
   133  133  134 ar
   134  134  135 ar
   135  135  136 ar
   136  136  137 ar
   137  137  138 ar
   138  138  139 ar
   139  139  140 ar
   140  140  141 ar
   141  141  142 ar
   142  142  133 ar
   143  143  133 1
   144  144  143 1
   145  145  144 ar
   146  146  145 ar
   147  147  146 ar
   148  148  147 ar
   149  149  144 ar
   150  150  149 1
   151  151  150 2
   152  152  151 1
   153  153  152 ar
   154  154  153 ar
   155  155  154 ar
   156  156  155 ar
   157  157  143 1
   158  158  141 1
   159  159  158 1
   160  160  159 ar
   161  161  160 ar
   162  162  161 ar
   163  163  162 ar
   164  164  159 ar
   165  165  164 1
   166  166  165 2
   167  167  166 1
   168  168  167 ar
   169  169  168 ar
   170  170  169 ar
   171  171  170 ar
   172  172  158 1
   173  173  134 1
   174  174  135 1
   175  175  136 1
   176  176  138 1
   177  177  139 1
   178  178  140 1
   179  179  145 1
   180  180  146 1
   181  181  147 1
   182  182  148 1
   183  183  150 1
   184  184  151 1
   185  185  153 1
   186  186  154 1
   187  187  155 1
   188  188  156 1
   189  189  160 1
   190  190  161 1
   191  191  162 1
   192  192  163 1
   193  193  165 1
   194  194  166 1
   195  195  168 1
   196  196  169 1
   197  197  170 1
   198  198  171 1
   199    5   10 ar
   200   11   26 1
   201   16   17 ar
   202   20   25 ar
   203   24   25 ar
   204   31   32 ar
   205   35   40 ar
   206   39   40 ar
   207   71   76 ar
   208   77   92 1
   209   82   83 ar
   210   86   91 ar
   211   90   91 ar
   212   97   98 ar
   213  101  106 ar
   214  105  106 ar
   215  137  142 ar
   216  143  158 1
   217  148  149 ar
   218  152  157 ar
   219  156  157 ar
   220  163  164 ar
   221  167  172 ar
   222  171  172 ar
@<TRIPOS>SUBSTRUCTURE
     1 RES1 1
     2 RES2 67
     3 RES3 133

@<TRIPOS>CRYSIN
  10.9850   15.1800   23.8130  98.9590  90.4560  94.4750   2 1

