# MOL2 file generated by ConQuest
# Please check atom types

@<TRIPOS>MOLECULE
PEYNAP
    42    45     1
SMALL
NO_CHARGES
****
Generated from CSD

@<TRIPOS>ATOM
      1 C1         0.5016   -2.0429    2.6082 C.ar      1 RES1    0.0000
      2 C2         2.6674   -2.7749    3.4928 C.ar      1 RES1    0.0000
      3 C3        -0.4964   -1.0693    2.2474 C.1       1 RES1    0.0000
      4 C4        -1.3892   -0.3641    1.8939 C.1       1 RES1    0.0000
      5 C5        -2.4111    0.5838    1.5354 C.ar      1 RES1    0.0000
      6 C6        -2.8409    0.7029    0.2178 C.ar      1 RES1    0.0000
      7 C7        -3.8131    1.6327   -0.1222 C.ar      1 RES1    0.0000
      8 C8        -4.3525    2.4532    0.8501 C.ar      1 RES1    0.0000
      9 C9        -3.9260    2.3465    2.1534 C.ar      1 RES1    0.0000
     10 C10       -2.9673    1.4140    2.4980 C.ar      1 RES1    0.0000
     11 C11        1.3984    0.7946    3.2902 C.1       1 RES1    0.0000
     12 C12        0.2136   -3.3648    2.3323 C.ar      1 RES1    0.0000
     13 C13        0.8415    1.8269    3.0990 C.1       1 RES1    0.0000
     14 C14        0.0515    2.9917    2.7980 C.ar      1 RES1    0.0000
     15 C15       -0.2917    3.2746    1.4816 C.ar      1 RES1    0.0000
     16 C16       -1.1250    4.3330    1.1974 C.ar      1 RES1    0.0000
     17 C17       -1.6268    5.1142    2.2155 C.ar      1 RES1    0.0000
     18 C18       -1.2825    4.8573    3.5204 C.ar      1 RES1    0.0000
     19 C19       -0.4354    3.8014    3.8213 C.ar      1 RES1    0.0000
     20 C20        1.1064   -4.3960    2.6245 C.ar      1 RES1    0.0000
     21 C21        2.3093   -4.1043    3.1877 C.ar      1 RES1    0.0000
     22 C22        3.9376   -2.5048    4.0466 C.ar      1 RES1    0.0000
     23 C23        4.3191   -1.2368    4.3376 C.ar      1 RES1    0.0000
     24 C24        3.4399   -0.1802    4.0966 C.ar      1 RES1    0.0000
     25 C25        2.1906   -0.3841    3.5424 C.ar      1 RES1    0.0000
     26 C26        1.7632   -1.7073    3.2137 C.ar      1 RES1    0.0000
     27 H1        -0.6309   -3.5613    1.9340 H         1 RES1    0.0000
     28 H2         0.8888   -5.2959    2.4089 H         1 RES1    0.0000
     29 H3         2.9370   -4.8138    3.4351 H         1 RES1    0.0000
     30 H4         4.5370   -3.2612    4.1976 H         1 RES1    0.0000
     31 H5         5.2420   -1.0469    4.7367 H         1 RES1    0.0000
     32 H6         3.7226    0.7657    4.3018 H         1 RES1    0.0000
     33 H7        -2.4263    0.1123   -0.4088 H         1 RES1    0.0000
     34 H8        -4.1455    1.7098   -1.1103 H         1 RES1    0.0000
     35 H9        -5.0454    3.0958    0.6574 H         1 RES1    0.0000
     36 H10       -4.3305    2.9162    2.8398 H         1 RES1    0.0000
     37 H11       -2.6485    1.3399    3.4270 H         1 RES1    0.0000
     38 H12        0.0851    2.6610    0.7325 H         1 RES1    0.0000
     39 H13       -1.3809    4.5303    0.2235 H         1 RES1    0.0000
     40 H14       -2.2469    5.8052    2.0161 H         1 RES1    0.0000
     41 H15       -1.6432    5.4614    4.2437 H         1 RES1    0.0000
     42 H16       -0.1808    3.6110    4.7748 H         1 RES1    0.0000
@<TRIPOS>BOND
     1    1    3 1
     2    2   21 ar
     3    3    4 3
     4    4    5 1
     5    5    6 ar
     6    6    7 ar
     7    7    8 ar
     8    8    9 ar
     9    9   10 ar
    10   10    5 ar
    11   11   13 3
    12   12    1 ar
    13   13   14 1
    14   14   15 ar
    15   15   16 ar
    16   16   17 ar
    17   17   18 ar
    18   18   19 ar
    19   19   14 ar
    20   20   12 ar
    21   21   20 ar
    22   22    2 ar
    23   23   22 ar
    24   24   23 ar
    25   25   11 1
    26   26    1 ar
    27   27   12 1
    28   28   20 1
    29   29   21 1
    30   30   22 1
    31   31   23 1
    32   32   24 1
    33   33    6 1
    34   34    7 1
    35   35    8 1
    36   36    9 1
    37   37   10 1
    38   38   15 1
    39   39   16 1
    40   40   17 1
    41   41   18 1
    42   42   19 1
    43    2   26 ar
    44   24   25 ar
    45   25   26 ar
@<TRIPOS>SUBSTRUCTURE
     1 RES1 1

@<TRIPOS>CRYSIN
  15.0520   11.8160   10.0250  90.0000  91.7000  90.0000 231 1

