# MOL2 file generated by ConQuest
# Please check atom types

@<TRIPOS>MOLECULE
PEZPUG
    52    58     1
SMALL
NO_CHARGES
****
Generated from CSD

@<TRIPOS>ATOM
      1 C1         5.5123    2.7043   -0.1387 C.ar      1 RES1    0.0000
      2 C2         4.5462    2.8432   -1.2588 C.ar      1 RES1    0.0000
      3 C3         5.2027    2.3473   -2.4081 C.ar      1 RES1    0.0000
      4 C4         6.5031    1.9309   -2.0862 C.ar      1 RES1    0.0000
      5 C5         7.2936    1.4381   -3.0914 C.ar      1 RES1    0.0000
      6 H1         8.1690    1.1438   -2.9149 H         1 RES1    0.0000
      7 C6         6.7594    1.3829   -4.4039 C.ar      1 RES1    0.0000
      8 H2         7.2985    1.0417   -5.0943 H         1 RES1    0.0000
      9 C7         5.4945    1.8037   -4.7101 C.ar      1 RES1    0.0000
     10 H3         5.1808    1.7470   -5.5941 H         1 RES1    0.0000
     11 C8         4.6555    2.3253   -3.6924 C.ar      1 RES1    0.0000
     12 C9         6.6758    2.1858   -0.6346 C.ar      1 RES1    0.0000
     13 C10        3.2867    3.3587   -1.4135 C.ar      1 RES1    0.0000
     14 H4         2.8157    3.7011   -0.6765 H         1 RES1    0.0000
     15 C11        2.7080    3.3655   -2.7068 C.ar      1 RES1    0.0000
     16 H5         1.8437    3.7213   -2.8105 H         1 RES1    0.0000
     17 C12        3.3525    2.8766   -3.8120 C.ar      1 RES1    0.0000
     18 H6         2.9315    2.9059   -4.6517 H         1 RES1    0.0000
     19 C13        7.9259    1.8403    0.0833 C.ar      1 RES1    0.0000
     20 C14        7.9533    0.8310    1.0168 C.ar      1 RES1    0.0000
     21 H7         7.1476    0.4274    1.2858 H         1 RES1    0.0000
     22 C15        9.1664    0.3942    1.5754 C.ar      1 RES1    0.0000
     23 H8         9.1618   -0.2900    2.2198 H         1 RES1    0.0000
     24 C16       10.3435    0.9488    1.1959 C.ar      1 RES1    0.0000
     25 H9        11.1502    0.6113    1.5416 H         1 RES1    0.0000
     26 C17       10.3690    2.0305    0.2851 C.ar      1 RES1    0.0000
     27 C18        9.1494    2.5049   -0.2624 C.ar      1 RES1    0.0000
     28 C19        9.1796    3.6445   -1.1047 C.ar      1 RES1    0.0000
     29 H10        8.3769    3.9769   -1.4642 H         1 RES1    0.0000
     30 C20       10.3551    4.2648   -1.4011 C.ar      1 RES1    0.0000
     31 H11       10.3554    5.0288   -1.9489 H         1 RES1    0.0000
     32 C21       11.5659    3.7688   -0.8926 C.ar      1 RES1    0.0000
     33 H12       12.3748    4.1891   -1.1208 H         1 RES1    0.0000
     34 C22       11.5754    2.6846   -0.0719 C.ar      1 RES1    0.0000
     35 H13       12.3936    2.3653    0.2642 H         1 RES1    0.0000
     36 C23        5.2676    3.1754    1.2442 C.ar      1 RES1    0.0000
     37 C24        6.0963    4.1180    1.8002 C.ar      1 RES1    0.0000
     38 H14        6.8286    4.4377    1.3060 H         1 RES1    0.0000
     39 C25        5.8706    4.6150    3.0959 C.ar      1 RES1    0.0000
     40 H15        6.4548    5.2571    3.4568 H         1 RES1    0.0000
     41 C26        4.8187    4.1767    3.8317 C.ar      1 RES1    0.0000
     42 H16        4.6722    4.5286    4.6921 H         1 RES1    0.0000
     43 C27        3.9413    3.1980    3.3189 C.ar      1 RES1    0.0000
     44 C28        4.1577    2.6795    2.0126 C.ar      1 RES1    0.0000
     45 C29        3.2947    1.6687    1.5384 C.ar      1 RES1    0.0000
     46 H17        3.4404    1.2974    0.6866 H         1 RES1    0.0000
     47 C30        2.2534    1.2231    2.2969 C.ar      1 RES1    0.0000
     48 H18        1.6849    0.5547    1.9589 H         1 RES1    0.0000
     49 C31        2.0221    1.7520    3.5759 C.ar      1 RES1    0.0000
     50 H19        1.2973    1.4439    4.0896 H         1 RES1    0.0000
     51 C32        2.8457    2.7069    4.0695 C.ar      1 RES1    0.0000
     52 H20        2.6863    3.0514    4.9293 H         1 RES1    0.0000
@<TRIPOS>BOND
     1    1    2 ar
     2    2    3 ar
     3    3    4 ar
     4    4    5 ar
     5    5    6 1
     6    7    5 ar
     7    8    7 1
     8    9    7 ar
     9   10    9 1
    10   11    3 ar
    11   12    1 ar
    12   13    2 ar
    13   14   13 1
    14   15   13 ar
    15   16   15 1
    16   17   11 ar
    17   18   17 1
    18   19   12 1
    19   20   19 ar
    20   21   20 1
    21   22   20 ar
    22   23   22 1
    23   24   22 ar
    24   25   24 1
    25   26   24 ar
    26   27   19 ar
    27   28   27 ar
    28   29   28 1
    29   30   28 ar
    30   31   30 1
    31   32   30 ar
    32   33   32 1
    33   34   26 ar
    34   35   34 1
    35   36    1 1
    36   37   36 ar
    37   38   37 1
    38   39   37 ar
    39   40   39 1
    40   41   39 ar
    41   42   41 1
    42   43   41 ar
    43   44   36 ar
    44   45   44 ar
    45   46   45 1
    46   47   45 ar
    47   48   47 1
    48   49   47 ar
    49   50   49 1
    50   51   43 ar
    51   52   51 1
    52    4   12 ar
    53    9   11 ar
    54   15   17 ar
    55   26   27 ar
    56   32   34 ar
    57   43   44 ar
    58   49   51 ar
@<TRIPOS>SUBSTRUCTURE
     1 RES1 1

@<TRIPOS>CRYSIN
  12.1900   10.1040   17.2370  90.0000 102.4840  90.0000 231 1

