# MOL2 file generated by ConQuest
# Please check atom types

@<TRIPOS>MOLECULE
PEZPIU
    52    58     1
SMALL
NO_CHARGES
****
Generated from CSD

@<TRIPOS>ATOM
      1 C1         9.4796   -0.5650   -5.3843 C.ar      1 RES1    0.0000
      2 H1         9.9384   -0.6765   -6.1856 H         1 RES1    0.0000
      3 C2         9.7608    5.3540    3.7195 C.ar      1 RES1    0.0000
      4 H2         9.3229    6.0378    4.1738 H         1 RES1    0.0000
      5 C3         5.6542    4.9442   -2.7206 C.ar      1 RES1    0.0000
      6 H3         5.1427    5.3030   -3.4098 H         1 RES1    0.0000
      7 C4        11.0487    4.9902    4.1046 C.ar      1 RES1    0.0000
      8 H4        11.4463    5.4049    4.8359 H         1 RES1    0.0000
      9 C5         8.2627   -1.2245   -5.2132 C.ar      1 RES1    0.0000
     10 H5         7.9267   -1.7556   -5.8993 H         1 RES1    0.0000
     11 C6         7.5784   -1.1033   -4.0828 C.ar      1 RES1    0.0000
     12 H6         6.7676   -1.5422   -3.9661 H         1 RES1    0.0000
     13 C7         3.2524    4.2289    0.0661 C.ar      1 RES1    0.0000
     14 H7         2.3480    4.2895    0.2723 H         1 RES1    0.0000
     15 C8        10.0228    0.2328   -4.4282 C.ar      1 RES1    0.0000
     16 H8        10.8325    0.6644   -4.5729 H         1 RES1    0.0000
     17 C9         3.6763    4.6508   -1.1755 C.ar      1 RES1    0.0000
     18 H9         3.0645    4.9951   -1.7854 H         1 RES1    0.0000
     19 C10       11.7181    4.0494    3.4324 C.ar      1 RES1    0.0000
     20 H10       12.5843    3.8312    3.6883 H         1 RES1    0.0000
     21 C11        7.8338    4.2604   -1.8547 C.ar      1 RES1    0.0000
     22 H11        8.7505    4.1707   -1.9830 H         1 RES1    0.0000
     23 C12        6.6584    3.1692    1.4143 C.ar      1 RES1    0.0000
     24 H12        6.6966    2.8443    2.2841 H         1 RES1    0.0000
     25 C13        7.4719   -0.1091   -1.8376 C.ar      1 RES1    0.0000
     26 H13        6.6526   -0.5310   -1.7162 H         1 RES1    0.0000
     27 C14        9.1391    4.7308    2.6972 C.ar      1 RES1    0.0000
     28 H14        8.2747    4.9830    2.4638 H         1 RES1    0.0000
     29 C15        9.9085    1.2269   -2.1558 C.ar      1 RES1    0.0000
     30 H15       10.7132    1.6804   -2.2686 H         1 RES1    0.0000
     31 C16        4.1189    3.7124    1.0246 C.ar      1 RES1    0.0000
     32 H16        3.7984    3.4481    1.8562 H         1 RES1    0.0000
     33 C17        9.3602    0.3807   -3.2690 C.ar      1 RES1    0.0000
     34 C18       11.2203    1.8477    0.4956 C.ar      1 RES1    0.0000
     35 H17       11.7104    1.2439   -0.0163 H         1 RES1    0.0000
     36 C19        6.9904    4.8011   -2.8925 C.ar      1 RES1    0.0000
     37 H18        7.3740    5.0557   -3.7008 H         1 RES1    0.0000
     38 C20       11.1234    3.3826    2.3362 C.ar      1 RES1    0.0000
     39 C21        8.0171    0.6644   -0.8215 C.ar      1 RES1    0.0000
     40 H19        7.5664    0.7396   -0.0117 H         1 RES1    0.0000
     41 C22        9.8879    2.1265    0.1400 C.ar      1 RES1    0.0000
     42 C23       11.7987    2.4296    1.5567 C.ar      1 RES1    0.0000
     43 H20       12.6697    2.1944    1.7823 H         1 RES1    0.0000
     44 C24        5.4554    3.5984    0.7266 C.ar      1 RES1    0.0000
     45 C25        5.0147    4.5610   -1.5085 C.ar      1 RES1    0.0000
     46 C26        8.1429   -0.2449   -3.0092 C.ar      1 RES1    0.0000
     47 C27        7.7318    3.3268    0.5718 C.ar      1 RES1    0.0000
     48 C28        9.2385    1.3312   -1.0012 C.ar      1 RES1    0.0000
     49 C29        5.8639    4.0470   -0.5477 C.ar      1 RES1    0.0000
     50 C30        9.1553    3.0068    0.8768 C.ar      1 RES1    0.0000
     51 C31        7.2588    3.8942   -0.6978 C.ar      1 RES1    0.0000
     52 C32        9.7850    3.7027    1.9745 C.ar      1 RES1    0.0000
@<TRIPOS>BOND
     1    1    2 1
     2    3    4 1
     3    5    6 1
     4    7    3 ar
     5    8    7 1
     6    9    1 ar
     7   10    9 1
     8   11    9 ar
     9   12   11 1
    10   13   14 1
    11   15    1 ar
    12   16   15 1
    13   17   13 ar
    14   18   17 1
    15   19    7 ar
    16   20   19 1
    17   21   22 1
    18   23   24 1
    19   25   26 1
    20   27    3 ar
    21   28   27 1
    22   29   30 1
    23   31   13 ar
    24   32   31 1
    25   33   15 ar
    26   34   35 1
    27   36    5 ar
    28   37   36 1
    29   38   19 ar
    30   39   25 ar
    31   40   39 1
    32   41   34 ar
    33   42   34 ar
    34   43   42 1
    35   44   23 ar
    36   45    5 ar
    37   46   11 ar
    38   47   23 ar
    39   48   29 ar
    40   49   44 ar
    41   50   41 ar
    42   51   21 ar
    43   52   27 ar
    44   17   45 ar
    45   21   36 ar
    46   25   46 ar
    47   29   33 ar
    48   31   44 ar
    49   33   46 ar
    50   38   42 ar
    51   38   52 ar
    52   39   48 ar
    53   41   48 1
    54   45   49 ar
    55   47   50 1
    56   47   51 ar
    57   49   51 ar
    58   50   52 ar
@<TRIPOS>SUBSTRUCTURE
     1 RES1 1

@<TRIPOS>CRYSIN
  11.3520   24.2480    7.8348  90.0000  96.8000  90.0000  14 1

