# MOL2 file generated by ConQuest
# Please check atom types

@<TRIPOS>MOLECULE
PEZPOA
    52    59     1
SMALL
NO_CHARGES
****
Generated from CSD

@<TRIPOS>ATOM
      1 C1         8.1803    5.3357    3.0258 C.3       1 RES1    0.0000
      2 C2         6.6588    4.8437    2.8963 C.3       1 RES1    0.0000
      3 H1         6.6071    3.9982    2.4251 H         1 RES1    0.0000
      4 H2         6.2536    4.7403    3.7718 H         1 RES1    0.0000
      5 C3         5.9786    5.9290    2.1189 C.ar      1 RES1    0.0000
      6 C4         4.7196    6.1419    1.7229 C.ar      1 RES1    0.0000
      7 H3         4.0643    5.5259    1.9570 H         1 RES1    0.0000
      8 C5         4.3599    7.2604    0.9717 C.ar      1 RES1    0.0000
      9 H4         3.4793    7.3389    0.6791 H         1 RES1    0.0000
     10 C6         5.2303    8.2279    0.6467 C.ar      1 RES1    0.0000
     11 H5         4.9553    8.9824    0.1787 H         1 RES1    0.0000
     12 C7         6.6257    8.0604    1.0553 C.ar      1 RES1    0.0000
     13 C8         7.6490    8.9617    0.8797 C.ar      1 RES1    0.0000
     14 H6         7.4795    9.7515    0.4158 H         1 RES1    0.0000
     15 C9         8.9266    8.7302    1.3729 C.ar      1 RES1    0.0000
     16 H7         9.6047    9.3566    1.2517 H         1 RES1    0.0000
     17 C10        9.1788    7.4857    2.0855 C.ar      1 RES1    0.0000
     18 H8        10.0367    7.2893    2.3895 H         1 RES1    0.0000
     19 C11        8.2010    6.6402    2.2986 C.ar      1 RES1    0.0000
     20 C12        6.9441    6.9296    1.7825 C.ar      1 RES1    0.0000
     21 C13        7.0226    7.1218    5.3662 C.ar      1 RES1    0.0000
     22 H9         6.6877    7.2542    4.5084 H         1 RES1    0.0000
     23 C14        6.4128    7.7937    6.4288 C.ar      1 RES1    0.0000
     24 H10        5.6417    8.3023    6.3223 H         1 RES1    0.0000
     25 C15        7.0929    7.6304    7.7474 C.ar      1 RES1    0.0000
     26 H11        6.7497    8.0769    8.4882 H         1 RES1    0.0000
     27 C16        8.1865    6.8655    7.9020 C.ar      1 RES1    0.0000
     28 H12        8.5814    6.7931    8.7410 H         1 RES1    0.0000
     29 C17        8.7302    6.1812    6.8269 C.ar      1 RES1    0.0000
     30 C18        9.8631    5.3460    6.9847 C.ar      1 RES1    0.0000
     31 H13       10.2807    5.3047    7.8143 H         1 RES1    0.0000
     32 C19       10.3592    4.5956    5.9524 C.ar      1 RES1    0.0000
     33 H14       11.1035    4.0519    6.0767 H         1 RES1    0.0000
     34 C20        9.7432    4.6659    4.7425 C.ar      1 RES1    0.0000
     35 C21       10.0471    3.9920    3.5556 C.ar      1 RES1    0.0000
     36 C22       11.0952    3.0100    3.2714 C.ar      1 RES1    0.0000
     37 H15       11.7009    2.7681    3.9348 H         1 RES1    0.0000
     38 C23       11.1841    2.4415    2.0082 C.ar      1 RES1    0.0000
     39 H16       11.8890    1.8647    1.8243 H         1 RES1    0.0000
     40 C24       10.2393    2.7082    0.9947 C.ar      1 RES1    0.0000
     41 C25       10.2910    2.0508   -0.2069 C.ar      1 RES1    0.0000
     42 H17       10.9526    1.4140   -0.3552 H         1 RES1    0.0000
     43 C26        9.4021    2.3195   -1.1702 C.ar      1 RES1    0.0000
     44 H18        9.4331    1.8254   -1.9559 H         1 RES1    0.0000
     45 C27        8.3726    3.3676   -1.0354 C.ar      1 RES1    0.0000
     46 H19        7.7917    3.5888   -1.7292 H         1 RES1    0.0000
     47 C28        8.3292    3.9816    0.1536 C.ar      1 RES1    0.0000
     48 H20        7.6676    4.6204    0.2946 H         1 RES1    0.0000
     49 C29        9.2367    3.7108    1.2120 C.ar      1 RES1    0.0000
     50 C30        9.1705    4.3103    2.5149 C.ar      1 RES1    0.0000
     51 C31        8.6392    5.4515    4.5084 C.ar      1 RES1    0.0000
     52 C32        8.1142    6.2577    5.5272 C.ar      1 RES1    0.0000
@<TRIPOS>BOND
     1    1    2 1
     2    2    3 1
     3    4    2 1
     4    5    2 1
     5    6    5 ar
     6    7    6 1
     7    8    6 ar
     8    9    8 1
     9   10    8 ar
    10   11   10 1
    11   12   10 ar
    12   13   12 ar
    13   14   13 1
    14   15   13 ar
    15   16   15 1
    16   17   15 ar
    17   18   17 1
    18   19    1 1
    19   20    5 ar
    20   21   22 1
    21   23   21 ar
    22   24   23 1
    23   25   23 ar
    24   26   25 1
    25   27   25 ar
    26   28   27 1
    27   29   27 ar
    28   30   29 ar
    29   31   30 1
    30   32   30 ar
    31   33   32 1
    32   34   32 ar
    33   35   34 1
    34   36   35 ar
    35   37   36 1
    36   38   36 ar
    37   39   38 1
    38   40   38 ar
    39   41   40 ar
    40   42   41 1
    41   43   41 ar
    42   44   43 1
    43   45   43 ar
    44   46   45 1
    45   47   45 ar
    46   48   47 1
    47   49   40 ar
    48   50    1 1
    49   51    1 1
    50   52   21 ar
    51   12   20 ar
    52   17   19 ar
    53   19   20 ar
    54   29   52 ar
    55   34   51 ar
    56   35   50 ar
    57   47   49 ar
    58   49   50 ar
    59   51   52 ar
@<TRIPOS>SUBSTRUCTURE
     1 RES1 1

@<TRIPOS>CRYSIN
  20.6730   20.6730   10.4483  90.0000  90.0000  90.0000  82 1

