# MOL2 file generated by ConQuest
# Please check atom types

@<TRIPOS>MOLECULE
PHENAN01
    14    16     1
SMALL
NO_CHARGES
****
Generated from CSD

@<TRIPOS>ATOM
      1 C1         1.5005    1.7432   -3.5209 C.ar      1 RES1    0.0000
      2 C2         3.3096    0.3923    0.9840 C.ar      1 RES1    0.0000
      3 C3         2.1642    2.6676    1.4234 C.ar      1 RES1    0.0000
      4 C4         3.6899    0.1772    2.3979 C.ar      1 RES1    0.0000
      5 C5         2.4704    2.3047    2.9125 C.ar      1 RES1    0.0000
      6 C6         3.2649    1.2281    3.2110 C.ar      1 RES1    0.0000
      7 C7         2.2053    0.7301   -3.1200 C.ar      1 RES1    0.0000
      8 C8         1.0737    2.8020   -2.7266 C.ar      1 RES1    0.0000
      9 C9         2.5836    0.3666   -1.7689 C.ar      1 RES1    0.0000
     10 C10        1.4707    2.7361   -1.3999 C.ar      1 RES1    0.0000
     11 C11        2.1891    1.4908   -0.8751 C.ar      1 RES1    0.0000
     12 C12        1.0631    3.8249   -0.5436 C.ar      1 RES1    0.0000
     13 C13        2.4755    1.4548    0.5690 C.ar      1 RES1    0.0000
     14 C14        1.3854    3.6972    0.9530 C.ar      1 RES1    0.0000
@<TRIPOS>BOND
     1    1    7 ar
     2    2    4 ar
     3    3    5 ar
     4    4    6 ar
     5    5    6 ar
     6    7    9 ar
     7    8    1 ar
     8    9   11 ar
     9   10    8 ar
    10   11   10 ar
    11   12   10 ar
    12   13    2 ar
    13   14    3 ar
    14    3   13 ar
    15   11   13 ar
    16   12   14 ar
@<TRIPOS>SUBSTRUCTURE
     1 RES1 1

@<TRIPOS>CRYSIN
   8.5700    6.1100    9.4700  90.0000  97.5000  90.0000   4 1

