# MOL2 file generated by ConQuest
# Please check atom types

@<TRIPOS>MOLECULE
PHENAN
    14    16     1
SMALL
NO_CHARGES
****
Generated from CSD

@<TRIPOS>ATOM
      1 C1         1.7995    2.3858   -2.8914 C.ar      1 RES1    0.0000
      2 C2         2.8599    3.5260   -0.9544 C.ar      1 RES1    0.0000
      3 C3         2.1250    2.4474   -1.4631 C.ar      1 RES1    0.0000
      4 C4         1.7063    1.4297   -0.6128 C.ar      1 RES1    0.0000
      5 C5         2.0450    1.4950    0.7930 C.ar      1 RES1    0.0000
      6 C6         2.7612    2.6211    1.2716 C.ar      1 RES1    0.0000
      7 C7         1.0823    1.2924   -3.3306 C.ar      1 RES1    0.0000
      8 C8         0.6346    0.2710   -2.4785 C.ar      1 RES1    0.0000
      9 C9         0.9586    0.3573   -1.1205 C.ar      1 RES1    0.0000
     10 C10        1.7015    0.5304    1.7568 C.ar      1 RES1    0.0000
     11 C11        2.0962    0.6443    3.0613 C.ar      1 RES1    0.0000
     12 C12        2.7897    1.7642    3.5070 C.ar      1 RES1    0.0000
     13 C13        3.1772    2.7751    2.6493 C.ar      1 RES1    0.0000
     14 C14        3.1509    3.6030    0.3848 C.ar      1 RES1    0.0000
@<TRIPOS>BOND
     1    1    3 ar
     2    2    3 ar
     3    3    4 ar
     4    4    5 ar
     5    5    6 ar
     6    6   13 ar
     7    7    1 ar
     8    8    7 ar
     9    9    4 ar
    10   10    5 ar
    11   11   10 ar
    12   12   11 ar
    13   13   12 ar
    14   14    2 ar
    15    6   14 ar
    16    8    9 ar
@<TRIPOS>SUBSTRUCTURE
     1 RES1 1

@<TRIPOS>CRYSIN
   8.4600    6.1600    9.4700  90.0000  97.7000  90.0000   4 1

