# MOL2 file generated by ConQuest
# Please check atom types

@<TRIPOS>MOLECULE
PHINDC01
    98   108     1
SMALL
NO_CHARGES
****
Generated from CSD

@<TRIPOS>ATOM
      1 C1        11.2471    3.9118   -0.6434 C.2       1 RES1    0.0000
      2 C2        10.2583    3.0898   -1.0296 C.2       1 RES1    0.0000
      3 C3         8.9006    3.5319   -0.4413 C.3       1 RES1    0.0000
      4 C4         9.3022    4.8290    0.2676 C.ar      1 RES1    0.0000
      5 C5        13.4747    5.3353    1.9121 C.ar      1 RES1    0.0000
      6 C6        12.8700    4.8235    3.0518 C.ar      1 RES1    0.0000
      7 C7        13.5236    3.9126    3.8489 C.ar      1 RES1    0.0000
      8 C8        14.7908    3.4953    3.5282 C.ar      1 RES1    0.0000
      9 C9         8.4774    5.7505    0.9603 C.ar      1 RES1    0.0000
     10 C10       15.4067    3.9942    2.4056 C.ar      1 RES1    0.0000
     11 C11        7.0710    5.6044    1.0666 C.ar      1 RES1    0.0000
     12 C12       14.7487    4.9143    1.5971 C.ar      1 RES1    0.0000
     13 C13        6.3132    6.5185    1.7489 C.ar      1 RES1    0.0000
     14 C14       12.6743    3.7348   -1.0078 C.ar      1 RES1    0.0000
     15 C15        6.9190    7.6359    2.3448 C.ar      1 RES1    0.0000
     16 C16       13.3850    4.6993   -1.7185 C.ar      1 RES1    0.0000
     17 C17        8.2667    7.8264    2.2585 C.ar      1 RES1    0.0000
     18 C18       14.7206    4.4871   -2.0317 C.ar      1 RES1    0.0000
     19 C19        9.0957    6.8920    1.5828 C.ar      1 RES1    0.0000
     20 C20       15.3525    3.3210   -1.6436 C.ar      1 RES1    0.0000
     21 C21       10.5130    7.0061    1.5240 C.ar      1 RES1    0.0000
     22 C22       14.6522    2.3634   -0.9537 C.ar      1 RES1    0.0000
     23 C23       11.4125    8.0236    2.1133 C.2       1 RES1    0.0000
     24 C24       13.3230    2.5670   -0.6424 C.ar      1 RES1    0.0000
     25 C25       12.6853    7.6934    1.8324 C.2       1 RES1    0.0000
     26 C26       10.3913    1.9559   -1.9852 C.ar      1 RES1    0.0000
     27 C27       12.7553    6.3820    1.0733 C.3       1 RES1    0.0000
     28 C28       10.5890    2.2193   -3.3222 C.ar      1 RES1    0.0000
     29 C29       11.2917    6.0711    0.8664 C.ar      1 RES1    0.0000
     30 C30       10.7004    1.2044   -4.2408 C.ar      1 RES1    0.0000
     31 C31       10.6741    4.9903    0.1926 C.ar      1 RES1    0.0000
     32 C32       10.6202   -0.0976   -3.8385 C.ar      1 RES1    0.0000
     33 C33       11.0419    9.2334    2.8933 C.ar      1 RES1    0.0000
     34 C34       10.4352   -0.3797   -2.5109 C.ar      1 RES1    0.0000
     35 C35       10.7759   10.4273    2.2604 C.ar      1 RES1    0.0000
     36 C36       10.3086    0.6407   -1.5923 C.ar      1 RES1    0.0000
     37 C37       10.4751   11.5593    2.9892 C.ar      1 RES1    0.0000
     38 C38        7.9172    3.6987   -1.6066 C.ar      1 RES1    0.0000
     39 C39       10.4400   11.5152    4.3575 C.ar      1 RES1    0.0000
     40 C40        7.3609    2.5778   -2.2196 C.ar      1 RES1    0.0000
     41 C41       10.7099   10.3380    4.9952 C.ar      1 RES1    0.0000
     42 C42        6.5642    2.7067   -3.3365 C.ar      1 RES1    0.0000
     43 C43       11.0119    9.2047    4.2759 C.ar      1 RES1    0.0000
     44 C44        6.3283    3.9406   -3.8859 C.ar      1 RES1    0.0000
     45 C45       13.9034    8.4638    2.1873 C.ar      1 RES1    0.0000
     46 C46        6.8730    5.0690   -3.3071 C.ar      1 RES1    0.0000
     47 C47       14.4087    8.4707    3.4560 C.ar      1 RES1    0.0000
     48 C48        7.6555    4.9407   -2.1588 C.ar      1 RES1    0.0000
     49 C49       15.5203    9.2323    3.7768 C.ar      1 RES1    0.0000
     50 C50        8.4426    2.5134    0.6386 C.ar      1 RES1    0.0000
     51 C51       16.1284    9.9816    2.8288 C.ar      1 RES1    0.0000
     52 C52        9.3974    1.9883    1.5145 C.ar      1 RES1    0.0000
     53 C53       15.6514    9.9680    1.5525 C.ar      1 RES1    0.0000
     54 C54        9.0525    1.0845    2.5005 C.ar      1 RES1    0.0000
     55 C55       14.5442    9.2118    1.2374 C.ar      1 RES1    0.0000
     56 C56        7.7393    0.7066    2.6523 C.ar      1 RES1    0.0000
     57 C57        6.7723    1.2234    1.8182 C.ar      1 RES1    0.0000
     58 C58        7.1182    2.1287    0.8000 C.ar      1 RES1    0.0000
     59 H1         6.6426    4.8086    0.6396 H         1 RES1    0.0000
     60 H2        12.9266    5.5429   -1.9956 H         1 RES1    0.0000
     61 H3         5.3228    6.3844    1.8077 H         1 RES1    0.0000
     62 H4        15.2283    5.1853   -2.5365 H         1 RES1    0.0000
     63 H5         6.3650    8.3079    2.8383 H         1 RES1    0.0000
     64 H6        16.3130    3.1740   -1.8723 H         1 RES1    0.0000
     65 H7         8.6949    8.6241    2.6855 H         1 RES1    0.0000
     66 H8        15.1111    1.5183   -0.6775 H         1 RES1    0.0000
     67 H9        13.1942    6.5316    0.1869 H         1 RES1    0.0000
     68 H10       12.8153    1.8689   -0.1376 H         1 RES1    0.0000
     69 H11       10.7976   10.4471    1.2982 H         1 RES1    0.0000
     70 H12       10.6454    3.1718   -3.6202 H         1 RES1    0.0000
     71 H13       10.2797   12.4204    2.5204 H         1 RES1    0.0000
     72 H14       10.8434    1.4085   -5.2097 H         1 RES1    0.0000
     73 H15       10.2256   12.3360    4.8861 H         1 RES1    0.0000
     74 H16       10.7026   -0.8384   -4.5046 H         1 RES1    0.0000
     75 H17       10.6843   10.3079    5.9945 H         1 RES1    0.0000
     76 H18       10.3802   -1.3340   -2.2129 H         1 RES1    0.0000
     77 H19       11.2084    8.3432    4.7457 H         1 RES1    0.0000
     78 H20       10.1668    0.4366   -0.6235 H         1 RES1    0.0000
     79 H21       13.9512    7.9217    4.1554 H         1 RES1    0.0000
     80 H22        7.5383    1.6761   -1.8267 H         1 RES1    0.0000
     81 H23       15.8794    9.2423    4.7096 H         1 RES1    0.0000
     82 H24        6.1390    2.0773   -3.7654 H         1 RES1    0.0000
     83 H25       16.9317   10.5309    3.0584 H         1 RES1    0.0000
     84 H26        5.7598    4.0258   -4.7039 H         1 RES1    0.0000
     85 H27       16.1094   10.5155    0.8521 H         1 RES1    0.0000
     86 H28        6.6969    5.9711   -3.7009 H         1 RES1    0.0000
     87 H29       14.1860    9.2037    0.3046 H         1 RES1    0.0000
     88 H30        8.0512    5.7545   -1.7309 H         1 RES1    0.0000
     89 H31       11.9466    5.1250    3.2871 H         1 RES1    0.0000
     90 H32       10.3509    2.2650    1.4044 H         1 RES1    0.0000
     91 H33       13.0781    3.5490    4.6659 H         1 RES1    0.0000
     92 H34        9.7493    0.7085    3.1116 H         1 RES1    0.0000
     93 H35       15.2660    2.8345    4.1080 H         1 RES1    0.0000
     94 H36        7.4846    0.0630    3.3735 H         1 RES1    0.0000
     95 H37       16.3303    3.6930    2.1693 H         1 RES1    0.0000
     96 H38        5.8187    0.9467    1.9282 H         1 RES1    0.0000
     97 H39       15.1931    5.2782    0.7791 H         1 RES1    0.0000
     98 H40        6.4240    2.5051    0.1879 H         1 RES1    0.0000
@<TRIPOS>BOND
     1    1    2 2
     2    2    3 1
     3    3    4 1
     4    4    9 ar
     5    5    6 ar
     6    6    7 ar
     7    7    8 ar
     8    8   10 ar
     9    9   11 ar
    10   10   12 ar
    11   11   13 ar
    12   12    5 ar
    13   13   15 ar
    14   14    1 1
    15   15   17 ar
    16   16   14 ar
    17   17   19 ar
    18   18   16 ar
    19   19    9 ar
    20   20   18 ar
    21   21   19 ar
    22   22   20 ar
    23   23   21 1
    24   24   14 ar
    25   25   23 2
    26   26    2 1
    27   27    5 1
    28   28   26 ar
    29   29   21 ar
    30   30   28 ar
    31   31    1 1
    32   32   30 ar
    33   33   23 1
    34   34   32 ar
    35   35   33 ar
    36   36   26 ar
    37   37   35 ar
    38   38    3 1
    39   39   37 ar
    40   40   38 ar
    41   41   39 ar
    42   42   40 ar
    43   43   33 ar
    44   44   42 ar
    45   45   25 1
    46   46   44 ar
    47   47   45 ar
    48   48   38 ar
    49   49   47 ar
    50   50    3 1
    51   51   49 ar
    52   52   50 ar
    53   53   51 ar
    54   54   52 ar
    55   55   45 ar
    56   56   54 ar
    57   57   56 ar
    58   58   50 ar
    59   59   11 1
    60   60   16 1
    61   61   13 1
    62   62   18 1
    63   63   15 1
    64   64   20 1
    65   65   17 1
    66   66   22 1
    67   67   27 1
    68   68   24 1
    69   69   35 1
    70   70   28 1
    71   71   37 1
    72   72   30 1
    73   73   39 1
    74   74   32 1
    75   75   41 1
    76   76   34 1
    77   77   43 1
    78   78   36 1
    79   79   47 1
    80   80   40 1
    81   81   49 1
    82   82   42 1
    83   83   51 1
    84   84   44 1
    85   85   53 1
    86   86   46 1
    87   87   55 1
    88   88   48 1
    89   89    6 1
    90   90   52 1
    91   91    7 1
    92   92   54 1
    93   93    8 1
    94   94   56 1
    95   95   10 1
    96   96   57 1
    97   97   12 1
    98   98   58 1
    99    4   31 ar
   100   22   24 ar
   101   25   27 1
   102   27   29 1
   103   29   31 ar
   104   34   36 ar
   105   41   43 ar
   106   46   48 ar
   107   53   55 ar
   108   57   58 ar
@<TRIPOS>SUBSTRUCTURE
     1 RES1 1

@<TRIPOS>CRYSIN
  11.9030   18.4330   10.0350 107.0500  95.4200  98.7600   2 1

