# MOL2 file generated by ConQuest
# Please check atom types

@<TRIPOS>MOLECULE
PHINDC
    58    68     1
SMALL
NO_CHARGES
****
Generated from CSD

@<TRIPOS>ATOM
      1 C1        -1.9854   12.1151   14.1057 C.3       1 RES1    0.0000
      2 C2        -2.5369   13.4293   14.7122 C.2       1 RES1    0.0000
      3 C3        -2.5152   14.4248   13.8059 C.2       1 RES1    0.0000
      4 C4        -1.7984   16.0001   10.9259 C.3       1 RES1    0.0000
      5 C5        -1.4893   15.9542    9.4425 C.2       1 RES1    0.0000
      6 C6        -1.2031   14.7121    9.0387 C.2       1 RES1    0.0000
      7 C7        -0.7046   11.5924    9.1895 C.ar      1 RES1    0.0000
      8 C8        -0.4371   10.2688    9.3472 C.ar      1 RES1    0.0000
      9 C9        -0.5961    9.6495   10.5914 C.ar      1 RES1    0.0000
     10 C10       -1.0271   10.3741   11.6606 C.ar      1 RES1    0.0000
     11 C11       -1.3062   11.7559   11.5636 C.ar      1 RES1    0.0000
     12 C12       -1.7546   12.5451   12.6536 C.ar      1 RES1    0.0000
     13 C13       -2.0031   13.8982   12.5253 C.ar      1 RES1    0.0000
     14 C14       -1.7617   14.5383   11.2967 C.ar      1 RES1    0.0000
     15 C15       -1.3592   13.7883   10.1946 C.ar      1 RES1    0.0000
     16 C16       -1.1286   12.3905   10.2830 C.ar      1 RES1    0.0000
     17 C17       -3.0673   11.0324   14.2998 C.ar      1 RES1    0.0000
     18 C18       -3.9340   10.6804   13.2913 C.ar      1 RES1    0.0000
     19 C19       -4.9822    9.7955   13.5321 C.ar      1 RES1    0.0000
     20 C20       -5.1406    9.2450   14.7763 C.ar      1 RES1    0.0000
     21 C21       -4.2722    9.5560   15.7693 C.ar      1 RES1    0.0000
     22 C22       -3.2499   10.4562   15.5579 C.ar      1 RES1    0.0000
     23 C23       -0.6052   11.7820   14.7382 C.ar      1 RES1    0.0000
     24 C24       -0.2116   10.5026   15.0536 C.ar      1 RES1    0.0000
     25 C25        1.0516   10.2790   15.5977 C.ar      1 RES1    0.0000
     26 C26        1.9011   11.3215   15.8195 C.ar      1 RES1    0.0000
     27 C27        1.5354   12.5945   15.5076 C.ar      1 RES1    0.0000
     28 C28        0.2858   12.8254   14.9583 C.ar      1 RES1    0.0000
     29 C29       -3.0971   13.5182   16.0829 C.ar      1 RES1    0.0000
     30 C30       -2.3101   13.4951   17.2041 C.ar      1 RES1    0.0000
     31 C31       -2.8786   13.5754   18.4709 C.ar      1 RES1    0.0000
     32 C32       -4.2376   13.6427   18.6199 C.ar      1 RES1    0.0000
     33 C33       -5.0184   13.6541   17.5230 C.ar      1 RES1    0.0000
     34 C34       -4.4589   13.6002   16.2580 C.ar      1 RES1    0.0000
     35 C35       -2.9431   15.8288   14.0919 C.ar      1 RES1    0.0000
     36 C36       -2.2934   16.5395   15.0848 C.ar      1 RES1    0.0000
     37 C37       -2.6640   17.8405   15.3655 C.ar      1 RES1    0.0000
     38 C38       -3.6692   18.4333   14.6845 C.ar      1 RES1    0.0000
     39 C39       -4.3415   17.7442   13.6933 C.ar      1 RES1    0.0000
     40 C40       -3.9766   16.4328   13.3952 C.ar      1 RES1    0.0000
     41 C41       -0.7425   16.8287   11.6623 C.ar      1 RES1    0.0000
     42 C42        0.5448   16.3307   11.7836 C.ar      1 RES1    0.0000
     43 C43        1.5144   17.0943   12.3954 C.ar      1 RES1    0.0000
     44 C44        1.2321   18.3322   12.8858 C.ar      1 RES1    0.0000
     45 C45       -0.0347   18.8369   12.7679 C.ar      1 RES1    0.0000
     46 C46       -1.0263   18.0802   12.1493 C.ar      1 RES1    0.0000
     47 C47       -1.5121   17.1848    8.5969 C.ar      1 RES1    0.0000
     48 C48       -2.6959   17.7086    8.1914 C.ar      1 RES1    0.0000
     49 C49       -2.7395   18.8168    7.3630 C.ar      1 RES1    0.0000
     50 C50       -1.5887   19.3997    6.9627 C.ar      1 RES1    0.0000
     51 C51       -0.3996   18.9144    7.3648 C.ar      1 RES1    0.0000
     52 C52       -0.3554   17.8097    8.1931 C.ar      1 RES1    0.0000
     53 C53       -0.8107   14.3653    7.6542 C.ar      1 RES1    0.0000
     54 C54        0.5085   14.4711    7.2400 C.ar      1 RES1    0.0000
     55 C55        0.8585   14.2011    5.9317 C.ar      1 RES1    0.0000
     56 C56       -0.0867   13.8341    5.0219 C.ar      1 RES1    0.0000
     57 C57       -1.3857   13.7416    5.4187 C.ar      1 RES1    0.0000
     58 C58       -1.7482   14.0013    6.7167 C.ar      1 RES1    0.0000
@<TRIPOS>BOND
     1    1    2 1
     2    2    3 2
     3    3   13 1
     4    4    5 1
     5    5    6 2
     6    6   15 1
     7    7    8 ar
     8    8    9 ar
     9    9   10 ar
    10   10   11 ar
    11   11   12 ar
    12   12    1 1
    13   13   12 ar
    14   14    4 1
    15   15   14 ar
    16   16    7 ar
    17   17    1 1
    18   18   17 ar
    19   19   18 ar
    20   20   19 ar
    21   21   20 ar
    22   22   17 ar
    23   23    1 1
    24   24   23 ar
    25   25   24 ar
    26   26   25 ar
    27   27   26 ar
    28   28   23 ar
    29   29    2 1
    30   30   29 ar
    31   31   30 ar
    32   32   31 ar
    33   33   32 ar
    34   34   29 ar
    35   35    3 1
    36   36   35 ar
    37   37   36 ar
    38   38   37 ar
    39   39   38 ar
    40   40   35 ar
    41   41    4 1
    42   42   41 ar
    43   43   42 ar
    44   44   43 ar
    45   45   44 ar
    46   46   41 ar
    47   47    5 1
    48   48   47 ar
    49   49   48 ar
    50   50   49 ar
    51   51   50 ar
    52   52   47 ar
    53   53    6 1
    54   54   53 ar
    55   55   54 ar
    56   56   55 ar
    57   57   56 ar
    58   58   53 ar
    59   11   16 ar
    60   13   14 ar
    61   15   16 ar
    62   21   22 ar
    63   27   28 ar
    64   33   34 ar
    65   39   40 ar
    66   45   46 ar
    67   51   52 ar
    68   57   58 ar
@<TRIPOS>SUBSTRUCTURE
     1 RES1 1

@<TRIPOS>CRYSIN
  10.0410   11.9160   18.2640  77.8500 104.7400  95.4400   2 1

