# MOL2 file generated by ConQuest
# Please check atom types

@<TRIPOS>MOLECULE
PHINDC02
    98   108     1
SMALL
NO_CHARGES
****
Generated from CSD

@<TRIPOS>ATOM
      1 C1        11.2430    3.9161   -0.6439 C.2       1 RES1    0.0000
      2 C2        13.4620    5.3432    1.9135 C.ar      1 RES1    0.0000
      3 C3        10.2575    3.0928   -1.0304 C.2       1 RES1    0.0000
      4 C4        12.8569    4.8316    3.0540 C.ar      1 RES1    0.0000
      5 C5         8.8952    3.5359   -0.4416 C.3       1 RES1    0.0000
      6 C6        13.5139    3.9202    3.8517 C.ar      1 RES1    0.0000
      7 C7         9.2902    4.8350    0.2678 C.ar      1 RES1    0.0000
      8 C8        14.7849    3.5022    3.5308 C.ar      1 RES1    0.0000
      9 C9         8.4591    5.7582    0.9610 C.ar      1 RES1    0.0000
     10 C10       15.4013    4.0008    2.4073 C.ar      1 RES1    0.0000
     11 C11        7.0516    5.6120    1.0674 C.ar      1 RES1    0.0000
     12 C12       14.7399    4.9214    1.5982 C.ar      1 RES1    0.0000
     13 C13        6.2876    6.5277    1.7502 C.ar      1 RES1    0.0000
     14 C14       12.6732    3.7386   -1.0085 C.ar      1 RES1    0.0000
     15 C15        6.8880    7.6469    2.3466 C.ar      1 RES1    0.0000
     16 C16       13.3816    4.7037   -1.7198 C.ar      1 RES1    0.0000
     17 C17        8.2365    7.8376    2.2601 C.ar      1 RES1    0.0000
     18 C18       14.7202    4.4911   -2.0332 C.ar      1 RES1    0.0000
     19 C19        9.0718    6.9015    1.5840 C.ar      1 RES1    0.0000
     20 C20       15.3573    3.3238   -1.6448 C.ar      1 RES1    0.0000
     21 C21       10.4902    7.0157    1.5251 C.ar      1 RES1    0.0000
     22 C22       14.6593    2.3656   -0.9544 C.ar      1 RES1    0.0000
     23 C23       11.3851    8.0349    2.1148 C.2       1 RES1    0.0000
     24 C24       13.3272    2.5697   -0.6429 C.ar      1 RES1    0.0000
     25 C25       12.6612    7.7041    1.8338 C.2       1 RES1    0.0000
     26 C26       10.3974    1.9569   -1.9866 C.ar      1 RES1    0.0000
     27 C27       12.7386    6.3905    1.0740 C.3       1 RES1    0.0000
     28 C28       10.5965    2.2195   -3.3247 C.ar      1 RES1    0.0000
     29 C29       11.2752    6.0791    0.8670 C.ar      1 RES1    0.0000
     30 C30       10.7143    1.2028   -4.2439 C.ar      1 RES1    0.0000
     31 C31       10.6630    4.9965    0.1928 C.ar      1 RES1    0.0000
     32 C32       10.6391   -0.1005   -3.8413 C.ar      1 RES1    0.0000
     33 C33       11.0073    9.2468    2.8955 C.ar      1 RES1    0.0000
     34 C34       10.4528   -0.3820   -2.5127 C.ar      1 RES1    0.0000
     35 C35       10.4292   11.5755    2.9914 C.ar      1 RES1    0.0000
     36 C36        7.9121    3.7020   -1.6077 C.ar      1 RES1    0.0000
     37 C37       10.6662   10.3542    4.9989 C.ar      1 RES1    0.0000
     38 C38        6.5652    2.7076   -3.3389 C.ar      1 RES1    0.0000
     39 C39       10.7368   10.4417    2.2620 C.ar      1 RES1    0.0000
     40 C40       10.3919   11.5324    4.3607 C.ar      1 RES1    0.0000
     41 C41       10.3199    0.6403   -1.5935 C.ar      1 RES1    0.0000
     42 C42        7.3614    2.5793   -2.2212 C.ar      1 RES1    0.0000
     43 C43       10.9749    9.2190    4.2791 C.ar      1 RES1    0.0000
     44 C44        6.3244    3.9425   -3.8888 C.ar      1 RES1    0.0000
     45 C45       13.8766    8.4757    2.1889 C.ar      1 RES1    0.0000
     46 C46        6.8637    5.0728   -3.3095 C.ar      1 RES1    0.0000
     47 C47       14.3802    8.4836    3.4586 C.ar      1 RES1    0.0000
     48 C48        7.6455    4.9451   -2.1604 C.ar      1 RES1    0.0000
     49 C49       15.4889    9.2463    3.7796 C.ar      1 RES1    0.0000
     50 C50        8.4394    2.5169    0.6391 C.ar      1 RES1    0.0000
     51 C51       16.0961    9.9958    2.8309 C.ar      1 RES1    0.0000
     52 C52        9.3960    1.9918    1.5156 C.ar      1 RES1    0.0000
     53 C53       15.6209    9.9813    1.5536 C.ar      1 RES1    0.0000
     54 C54        9.0530    1.0876    2.5023 C.ar      1 RES1    0.0000
     55 C55       14.5164    9.2239    1.2383 C.ar      1 RES1    0.0000
     56 C56        7.7398    0.7094    2.6542 C.ar      1 RES1    0.0000
     57 C57        6.7709    1.2262    1.8195 C.ar      1 RES1    0.0000
     58 C58        7.1150    2.1319    0.8005 C.ar      1 RES1    0.0000
     59 H1         6.6270    4.8149    0.6401 H         1 RES1    0.0000
     60 H2        12.9194    5.5481   -1.9971 H         1 RES1    0.0000
     61 H3         5.2966    6.3934    1.8091 H         1 RES1    0.0000
     62 H4        15.2262    5.1897   -2.5384 H         1 RES1    0.0000
     63 H5         6.3295    8.3200    2.8404 H         1 RES1    0.0000
     64 H6        16.3200    3.1765   -1.8736 H         1 RES1    0.0000
     65 H7         8.6608    8.6366    2.6875 H         1 RES1    0.0000
     66 H8        15.1220    1.5196   -0.6780 H         1 RES1    0.0000
     67 H9        13.1789    6.5396    0.1871 H         1 RES1    0.0000
     68 H10       12.8212    1.8711   -0.1377 H         1 RES1    0.0000
     69 H11       10.7639   10.4732    1.2611 H         1 RES1    0.0000
     70 H12       10.6492    3.1730   -3.6229 H         1 RES1    0.0000
     71 H13       10.2305   12.4374    2.5222 H         1 RES1    0.0000
     72 H14       10.8583    1.4064   -5.2135 H         1 RES1    0.0000
     73 H15       10.1726   12.3545    4.8897 H         1 RES1    0.0000
     74 H16       10.7261   -0.8428   -4.5079 H         1 RES1    0.0000
     75 H17       10.6389   10.3248    5.9989 H         1 RES1    0.0000
     76 H18       10.4015   -1.3372   -2.2146 H         1 RES1    0.0000
     77 H19       11.1746    8.3569    4.7491 H         1 RES1    0.0000
     78 H20       10.1771    0.4366   -0.6239 H         1 RES1    0.0000
     79 H21       13.9233    7.9344    4.1585 H         1 RES1    0.0000
     80 H22        7.5423    1.6768   -1.8281 H         1 RES1    0.0000
     81 H23       15.8467    9.2570    4.7131 H         1 RES1    0.0000
     82 H24        6.1720    1.8946   -3.7682 H         1 RES1    0.0000
     83 H25       16.8974   10.5459    3.0607 H         1 RES1    0.0000
     84 H26        6.9469    4.0272   -4.7074 H         1 RES1    0.0000
     85 H27       16.0972   10.5913    0.6628 H         1 RES1    0.0000
     86 H28        6.6840    5.9756   -3.7036 H         1 RES1    0.0000
     87 H29       14.1595    9.2151    0.3048 H         1 RES1    0.0000
     88 H30        8.0373    5.7602   -1.7321 H         1 RES1    0.0000
     89 H31       11.9307    5.1337    3.2896 H         1 RES1    0.0000
     90 H32       10.3495    2.2688    1.4055 H         1 RES1    0.0000
     91 H33       13.0680    3.5568    4.6694 H         1 RES1    0.0000
     92 H34        9.7511    0.7116    3.1139 H         1 RES1    0.0000
     93 H35       15.2625    2.8410    4.1110 H         1 RES1    0.0000
     94 H36        7.4865    0.0655    3.3760 H         1 RES1    0.0000
     95 H37       16.3276    3.6991    2.1709 H         1 RES1    0.0000
     96 H38        5.8174    0.9493    1.9297 H         1 RES1    0.0000
     97 H39       15.1846    5.2852    0.7797 H         1 RES1    0.0000
     98 H40        6.4194    2.5083    0.1880 H         1 RES1    0.0000
@<TRIPOS>BOND
     1    1    3 2
     2    2    4 ar
     3    3    5 1
     4    4    6 ar
     5    5    7 1
     6    6    8 ar
     7    7    9 ar
     8    8   10 ar
     9    9   11 ar
    10   10   12 ar
    11   11   13 ar
    12   12    2 ar
    13   13   15 ar
    14   14    1 1
    15   15   17 ar
    16   16   14 ar
    17   17   19 ar
    18   18   16 ar
    19   19    9 ar
    20   20   18 ar
    21   21   19 ar
    22   22   20 ar
    23   23   21 1
    24   24   14 ar
    25   25   23 2
    26   26    3 1
    27   27    2 1
    28   28   26 ar
    29   29   21 ar
    30   30   28 ar
    31   31    1 1
    32   32   30 ar
    33   33   23 1
    34   34   32 ar
    35   35   39 ar
    36   36    5 1
    37   37   40 ar
    38   38   42 ar
    39   39   33 ar
    40   40   35 ar
    41   41   26 ar
    42   42   36 ar
    43   43   33 ar
    44   44   38 ar
    45   45   25 1
    46   46   44 ar
    47   47   45 ar
    48   48   36 ar
    49   49   47 ar
    50   50    5 1
    51   51   49 ar
    52   52   50 ar
    53   53   51 ar
    54   54   52 ar
    55   55   45 ar
    56   56   54 ar
    57   57   56 ar
    58   58   50 ar
    59   59   11 1
    60   60   16 1
    61   61   13 1
    62   62   18 1
    63   63   15 1
    64   64   20 1
    65   65   17 1
    66   66   22 1
    67   67   27 1
    68   68   24 1
    69   69   39 1
    70   70   28 1
    71   71   35 1
    72   72   30 1
    73   73   40 1
    74   74   32 1
    75   75   37 1
    76   76   34 1
    77   77   43 1
    78   78   41 1
    79   79   47 1
    80   80   42 1
    81   81   49 1
    82   82   38 1
    83   83   51 1
    84   84   44 1
    85   85   53 1
    86   86   46 1
    87   87   55 1
    88   88   48 1
    89   89    4 1
    90   90   52 1
    91   91    6 1
    92   92   54 1
    93   93    8 1
    94   94   56 1
    95   95   10 1
    96   96   57 1
    97   97   12 1
    98   98   58 1
    99    7   31 ar
   100   22   24 ar
   101   25   27 1
   102   27   29 1
   103   29   31 ar
   104   34   41 ar
   105   37   43 ar
   106   46   48 ar
   107   53   55 ar
   108   57   58 ar
@<TRIPOS>SUBSTRUCTURE
     1 RES1 1

@<TRIPOS>CRYSIN
  11.9160   18.4680   10.0410 106.9800  95.4400  99.0100   2 1

