# MOL2 file generated by ConQuest
# Please check atom types

@<TRIPOS>MOLECULE
PHNAPH02
    46    53     1
SMALL
NO_CHARGES
****
Generated from CSD

@<TRIPOS>ATOM
      1 C1        -0.7496    2.3627    5.3300 C.ar      1 RES1    0.0000
      2 H1        -1.6201    2.6873    5.3401 H         1 RES1    0.0000
      3 C2        -0.2272    1.8050    4.1719 C.ar      1 RES1    0.0000
      4 H2        -0.7537    1.7588    3.4063 H         1 RES1    0.0000
      5 C3         1.0566    1.3204    4.1423 C.ar      1 RES1    0.0000
      6 H3         1.3924    0.9542    3.3567 H         1 RES1    0.0000
      7 C4         1.8603    1.3705    5.2719 C.ar      1 RES1    0.0000
      8 H4         2.7280    1.0365    5.2427 H         1 RES1    0.0000
      9 C5         1.3658    1.9203    6.4440 C.ar      1 RES1    0.0000
     10 C6         0.0308    2.4337    6.4687 C.ar      1 RES1    0.0000
     11 C7        -0.2389    2.9692    7.8271 C.ar      1 RES1    0.0000
     12 C8        -1.2973    3.5964    8.5189 C.ar      1 RES1    0.0000
     13 C9        -2.5545    3.8912    7.9038 C.ar      1 RES1    0.0000
     14 H5        -2.6811    3.6803    7.0075 H         1 RES1    0.0000
     15 C10       -3.5658    4.4686    8.5920 C.ar      1 RES1    0.0000
     16 H6        -4.3754    4.6325    8.1656 H         1 RES1    0.0000
     17 C11       -3.4101    4.8251    9.9426 C.ar      1 RES1    0.0000
     18 H7        -4.1145    5.2247   10.4009 H         1 RES1    0.0000
     19 C12       -2.2389    4.5886   10.5803 C.ar      1 RES1    0.0000
     20 H8        -2.1539    4.8376   11.4726 H         1 RES1    0.0000
     21 C13       -1.1344    3.9719    9.9314 C.ar      1 RES1    0.0000
     22 C14        0.0842    3.7075   10.5906 C.ar      1 RES1    0.0000
     23 C15        0.9407    2.7339    8.5286 C.ar      1 RES1    0.0000
     24 C1F        2.7925    3.4624   13.0526 C.ar      1 RES1    0.0000
     25 H1F        3.6630    3.1378   13.0425 H         1 RES1    0.0000
     26 C2F        2.2701    4.0201   14.2107 C.ar      1 RES1    0.0000
     27 H2F        2.7966    4.0663   14.9763 H         1 RES1    0.0000
     28 C3F        0.9863    4.5047   14.2403 C.ar      1 RES1    0.0000
     29 H3F        0.6505    4.8709   15.0259 H         1 RES1    0.0000
     30 C4F        0.1826    4.4546   13.1107 C.ar      1 RES1    0.0000
     31 H4F       -0.6851    4.7886   13.1399 H         1 RES1    0.0000
     32 C5F        0.6771    3.9048   11.9386 C.ar      1 RES1    0.0000
     33 C6F        2.0122    3.3914   11.9140 C.ar      1 RES1    0.0000
     34 C7F        2.2818    2.8559   10.5555 C.ar      1 RES1    0.0000
     35 C8F        3.3403    2.2287    9.8637 C.ar      1 RES1    0.0000
     36 C9F        4.5974    1.9339   10.4788 C.ar      1 RES1    0.0000
     37 H5F        4.7240    2.1448   11.3752 H         1 RES1    0.0000
     38 C10F       5.6087    1.3565    9.7906 C.ar      1 RES1    0.0000
     39 H6F        6.4183    1.1926   10.2171 H         1 RES1    0.0000
     40 C11F       5.4531    1.0000    8.4400 C.ar      1 RES1    0.0000
     41 H7F        6.1575    0.6004    7.9817 H         1 RES1    0.0000
     42 C12F       4.2818    1.2365    7.8023 C.ar      1 RES1    0.0000
     43 H8F        4.1968    0.9875    6.9100 H         1 RES1    0.0000
     44 C13F       3.1773    1.8532    8.4512 C.ar      1 RES1    0.0000
     45 C14F       1.9587    2.1176    7.7920 C.ar      1 RES1    0.0000
     46 C15F       1.1022    3.0912    9.8540 C.ar      1 RES1    0.0000
@<TRIPOS>BOND
     1    1    2 1
     2    3    1 ar
     3    4    3 1
     4    5    3 ar
     5    6    5 1
     6    7    5 ar
     7    8    7 1
     8    9    7 ar
     9   10    1 ar
    10   11   10 ar
    11   12   11 ar
    12   13   12 ar
    13   14   13 1
    14   15   13 ar
    15   16   15 1
    16   17   15 ar
    17   18   17 1
    18   19   17 ar
    19   20   19 1
    20   21   12 ar
    21   22   21 ar
    22   23   11 ar
    23   24   25 1
    24   26   24 ar
    25   27   26 1
    26   28   26 ar
    27   29   28 1
    28   30   28 ar
    29   31   30 1
    30   32   22 ar
    31   33   24 ar
    32   34   33 ar
    33   35   34 ar
    34   36   35 ar
    35   37   36 1
    36   38   36 ar
    37   39   38 1
    38   40   38 ar
    39   41   40 1
    40   42   40 ar
    41   43   42 1
    42   44   35 ar
    43   45    9 ar
    44   46   22 ar
    45    9   10 ar
    46   19   21 ar
    47   23   45 ar
    48   23   46 ar
    49   30   32 ar
    50   32   33 ar
    51   34   46 ar
    52   42   44 ar
    53   44   45 ar
@<TRIPOS>SUBSTRUCTURE
     1 RES1 1

@<TRIPOS>CRYSIN
  24.8020    3.8834   21.1000  90.0000 119.4000  90.0000  15 1

