# MOL2 file generated by ConQuest
# Please check atom types

@<TRIPOS>MOLECULE
PHNAPH01
    46    53     1
SMALL
NO_CHARGES
****
Generated from CSD

@<TRIPOS>ATOM
      1 C1         6.0276    2.7290   -0.3379 C.ar      1 RES1    0.0000
      2 C2         4.8372    1.4074    1.3057 C.ar      1 RES1    0.0000
      3 C3         6.0209    0.7094    1.5750 C.ar      1 RES1    0.0000
      4 C4         6.0919   -0.3294    2.5622 C.ar      1 RES1    0.0000
      5 H1         5.3264   -0.5493    3.0431 H         1 RES1    0.0000
      6 C5         7.2390   -0.9959    2.8127 C.ar      1 RES1    0.0000
      7 H2         7.2540   -1.6531    3.4703 H         1 RES1    0.0000
      8 C6         8.4118   -0.7073    2.0895 C.ar      1 RES1    0.0000
      9 H3         9.1922   -1.1807    2.2671 H         1 RES1    0.0000
     10 C7         8.4106    0.2530    1.1404 C.ar      1 RES1    0.0000
     11 H4         9.1933    0.4202    0.6672 H         1 RES1    0.0000
     12 C8         7.2485    1.0171    0.8417 C.ar      1 RES1    0.0000
     13 C9         7.2305    2.0511   -0.1285 C.ar      1 RES1    0.0000
     14 C10        8.1892    2.7197   -1.0348 C.ar      1 RES1    0.0000
     15 C11        9.5459    2.5586   -1.2444 C.ar      1 RES1    0.0000
     16 H5        10.0101    1.8813   -0.8080 H         1 RES1    0.0000
     17 C12       10.2111    3.4156   -2.1119 C.ar      1 RES1    0.0000
     18 H6        11.1249    3.3057   -2.2479 H         1 RES1    0.0000
     19 C13        9.5481    4.4229   -2.7711 C.ar      1 RES1    0.0000
     20 H7        10.0181    4.9959   -3.3327 H         1 RES1    0.0000
     21 C14        8.1862    4.5891   -2.6050 C.ar      1 RES1    0.0000
     22 H8         7.7391    5.2572   -3.0719 H         1 RES1    0.0000
     23 C15        7.4839    3.7579   -1.7388 C.ar      1 RES1    0.0000
     24 C1B        4.8824    2.4337    0.3379 C.ar      1 RES1    0.0000
     25 C2B        6.0728    3.7553   -1.3057 C.ar      1 RES1    0.0000
     26 C3B        4.8891    4.4533   -1.5750 C.ar      1 RES1    0.0000
     27 C4B        4.8181    5.4921   -2.5622 C.ar      1 RES1    0.0000
     28 H1B        5.5836    5.7120   -3.0431 H         1 RES1    0.0000
     29 C5B        3.6710    6.1586   -2.8127 C.ar      1 RES1    0.0000
     30 H2B        3.6560    6.8158   -3.4703 H         1 RES1    0.0000
     31 C6B        2.4982    5.8700   -2.0895 C.ar      1 RES1    0.0000
     32 H3B        1.7178    6.3434   -2.2671 H         1 RES1    0.0000
     33 C7B        2.4994    4.9097   -1.1404 C.ar      1 RES1    0.0000
     34 H4B        1.7167    4.7425   -0.6672 H         1 RES1    0.0000
     35 C8B        3.6615    4.1456   -0.8417 C.ar      1 RES1    0.0000
     36 C9B        3.6795    3.1116    0.1285 C.ar      1 RES1    0.0000
     37 C10B       2.7208    2.4430    1.0348 C.ar      1 RES1    0.0000
     38 C11B       1.3641    2.6041    1.2444 C.ar      1 RES1    0.0000
     39 H5B        0.8999    3.2814    0.8080 H         1 RES1    0.0000
     40 C12B       0.6989    1.7471    2.1119 C.ar      1 RES1    0.0000
     41 H6B       -0.2149    1.8570    2.2479 H         1 RES1    0.0000
     42 C13B       1.3619    0.7398    2.7711 C.ar      1 RES1    0.0000
     43 H7B        0.8919    0.1668    3.3327 H         1 RES1    0.0000
     44 C14B       2.7238    0.5736    2.6050 C.ar      1 RES1    0.0000
     45 H8B        3.1709   -0.0945    3.0719 H         1 RES1    0.0000
     46 C15B       3.4261    1.4048    1.7388 C.ar      1 RES1    0.0000
@<TRIPOS>BOND
     1    1   13 ar
     2    2    3 ar
     3    3    4 ar
     4    4    5 1
     5    6    4 ar
     6    7    6 1
     7    8    6 ar
     8    9    8 1
     9   10    8 ar
    10   11   10 1
    11   12    3 ar
    12   13   12 ar
    13   14   13 ar
    14   15   14 ar
    15   16   15 1
    16   17   15 ar
    17   18   17 1
    18   19   17 ar
    19   20   19 1
    20   21   19 ar
    21   22   21 1
    22   23   14 ar
    23   24    1 ar
    24   25    1 ar
    25   26   25 ar
    26   27   26 ar
    27   28   27 1
    28   29   27 ar
    29   30   29 1
    30   31   29 ar
    31   32   31 1
    32   33   31 ar
    33   34   33 1
    34   35   26 ar
    35   36   24 ar
    36   37   36 ar
    37   38   37 ar
    38   39   38 1
    39   40   38 ar
    40   41   40 1
    41   42   40 ar
    42   43   42 1
    43   44   42 ar
    44   45   44 1
    45   46    2 ar
    46    2   24 ar
    47   10   12 ar
    48   21   23 ar
    49   23   25 ar
    50   33   35 ar
    51   35   36 ar
    52   37   46 ar
    53   44   46 ar
@<TRIPOS>SUBSTRUCTURE
     1 RES1 1

@<TRIPOS>CRYSIN
  10.9100    5.1627   16.0060  90.0000  91.6400  90.0000 231 1

