# MOL2 file generated by ConQuest
# Please check atom types

@<TRIPOS>MOLECULE
PHTPIC
    72    82     1
SMALL
NO_CHARGES
****
Generated from CSD

@<TRIPOS>ATOM
      1 C1         4.5942    2.4463   -2.6320 C.ar      1 RES1    0.0000
      2 C2         5.3961    3.4255   -3.0844 C.ar      1 RES1    0.0000
      3 C3         6.7081    3.5938   -2.6025 C.ar      1 RES1    0.0000
      4 C4         7.6015    4.5266   -3.2143 C.ar      1 RES1    0.0000
      5 C5         8.8873    4.5683   -2.8740 C.ar      1 RES1    0.0000
      6 C6         9.3856    3.7884   -1.8157 C.ar      1 RES1    0.0000
      7 C7        10.7849    3.7560   -1.5560 C.ar      1 RES1    0.0000
      8 C8        11.2779    2.9483   -0.6373 C.ar      1 RES1    0.0000
      9 C9        10.4719    2.1915    0.2262 C.ar      1 RES1    0.0000
     10 C10       10.9898    1.2541    1.1232 C.ar      1 RES1    0.0000
     11 C11       10.2098    0.5266    1.9219 C.ar      1 RES1    0.0000
     12 C12        8.8245    0.8556    2.0674 C.ar      1 RES1    0.0000
     13 C13        8.0265    0.2502    3.0510 C.ar      1 RES1    0.0000
     14 C14        6.7811    0.6347    3.3716 C.ar      1 RES1    0.0000
     15 C15        6.2200    1.8054    2.7048 C.ar      1 RES1    0.0000
     16 C16        4.9333    2.3197    3.0903 C.ar      1 RES1    0.0000
     17 C17        4.0494    1.5815    3.9185 C.ar      1 RES1    0.0000
     18 C18        2.8056    1.9985    4.1408 C.ar      1 RES1    0.0000
     19 C19        2.3129    3.2340    3.6451 C.ar      1 RES1    0.0000
     20 C20        0.9308    3.5598    3.7159 C.ar      1 RES1    0.0000
     21 C21        0.4148    4.5992    3.0707 C.ar      1 RES1    0.0000
     22 C22        1.3053    5.5691    2.4805 C.ar      1 RES1    0.0000
     23 C23        0.7678    6.6595    1.7802 C.ar      1 RES1    0.0000
     24 C24        1.5538    7.6278    1.2747 C.ar      1 RES1    0.0000
     25 C25        2.9489    7.6494    1.5875 C.ar      1 RES1    0.0000
     26 C26        3.7596    8.7259    1.1488 C.ar      1 RES1    0.0000
     27 C27        5.0506    8.8154    1.4498 C.ar      1 RES1    0.0000
     28 C28        5.6436    7.8826    2.3605 C.ar      1 RES1    0.0000
     29 C29        6.9763    8.0324    2.7953 C.ar      1 RES1    0.0000
     30 C30        7.4799    7.2602    3.7847 C.ar      1 RES1    0.0000
     31 C31        6.6742    6.3089    4.3945 C.ar      1 RES1    0.0000
     32 C32        5.3935    6.0973    3.9519 C.ar      1 RES1    0.0000
     33 C33        4.8459    6.8309    2.8818 C.ar      1 RES1    0.0000
     34 C34        3.5119    6.6100    2.3487 C.ar      1 RES1    0.0000
     35 C35        2.7114    5.4301    2.6104 C.ar      1 RES1    0.0000
     36 C36        3.2041    4.1035    2.9704 C.ar      1 RES1    0.0000
     37 C37        4.4827    3.5614    2.5809 C.ar      1 RES1    0.0000
     38 C38        5.3088    4.1869    1.6170 C.ar      1 RES1    0.0000
     39 C39        6.4938    3.6633    1.2157 C.ar      1 RES1    0.0000
     40 C40        6.9882    2.4263    1.7212 C.ar      1 RES1    0.0000
     41 C41        8.2575    1.8718    1.2649 C.ar      1 RES1    0.0000
     42 C42        9.0338    2.3645    0.1416 C.ar      1 RES1    0.0000
     43 C43        8.5176    2.9884   -1.0347 C.ar      1 RES1    0.0000
     44 C44        7.1708    2.7660   -1.5580 C.ar      1 RES1    0.0000
     45 C45        6.3281    1.7328   -1.1311 C.ar      1 RES1    0.0000
     46 C46        5.0737    1.5629   -1.6701 C.ar      1 RES1    0.0000
     47 H1         3.6774    2.2703   -3.0097 H         1 RES1    0.0000
     48 H2         5.1194    4.0309   -3.7375 H         1 RES1    0.0000
     49 H3         7.1793    5.1120   -3.9146 H         1 RES1    0.0000
     50 H4         9.5838    5.2201   -3.3638 H         1 RES1    0.0000
     51 H5        11.4091    4.3398   -2.1442 H         1 RES1    0.0000
     52 H6        12.3304    2.8417   -0.4131 H         1 RES1    0.0000
     53 H7        12.1350    1.1892    1.1213 H         1 RES1    0.0000
     54 H8        10.5312   -0.2162    2.5573 H         1 RES1    0.0000
     55 H9         8.5033   -0.5097    3.5015 H         1 RES1    0.0000
     56 H10        6.1323    0.2471    3.9933 H         1 RES1    0.0000
     57 H11        4.4959    0.6486    4.3080 H         1 RES1    0.0000
     58 H12        2.2228    1.4517    4.6424 H         1 RES1    0.0000
     59 H13        0.3858    2.8726    4.2293 H         1 RES1    0.0000
     60 H14       -0.5436    4.8494    2.9900 H         1 RES1    0.0000
     61 H15       -0.2452    6.7336    1.6917 H         1 RES1    0.0000
     62 H16        1.2326    8.4324    0.7672 H         1 RES1    0.0000
     63 H17        3.2829    9.3900    0.5901 H         1 RES1    0.0000
     64 H18        5.7372    9.5444    0.9836 H         1 RES1    0.0000
     65 H19        7.5415    8.7413    2.3605 H         1 RES1    0.0000
     66 H20        8.4558    7.3668    4.0719 H         1 RES1    0.0000
     67 H21        6.9998    5.8224    5.1932 H         1 RES1    0.0000
     68 H22        4.7997    5.4054    4.4063 H         1 RES1    0.0000
     69 H23        5.0360    5.0502    1.1999 H         1 RES1    0.0000
     70 H24        7.0263    4.1390    0.3934 H         1 RES1    0.0000
     71 H25        6.6207    1.0502   -0.4524 H         1 RES1    0.0000
     72 H26        4.5158    0.7568   -1.3770 H         1 RES1    0.0000
@<TRIPOS>BOND
     1    1    2 ar
     2    2    3 ar
     3    3    4 ar
     4    4    5 ar
     5    5    6 ar
     6    6    7 ar
     7    7    8 ar
     8    8    9 ar
     9    9   10 ar
    10   10   11 ar
    11   11   12 ar
    12   12   13 ar
    13   13   14 ar
    14   14   15 ar
    15   15   16 ar
    16   16   17 ar
    17   17   18 ar
    18   18   19 ar
    19   19   20 ar
    20   20   21 ar
    21   21   22 ar
    22   22   23 ar
    23   23   24 ar
    24   24   25 ar
    25   25   26 ar
    26   26   27 ar
    27   27   28 ar
    28   28   29 ar
    29   29   30 ar
    30   30   31 ar
    31   31   32 ar
    32   32   33 ar
    33   33   28 ar
    34   34   25 ar
    35   35   22 ar
    36   36   19 ar
    37   37   16 ar
    38   38   37 ar
    39   39   38 ar
    40   40   15 ar
    41   41   12 ar
    42   42    9 ar
    43   43    6 ar
    44   44    3 ar
    45   45   44 ar
    46   46    1 ar
    47   47    1 1
    48   48    2 1
    49   49    4 1
    50   50    5 1
    51   51    7 1
    52   52    8 1
    53   53   10 1
    54   54   11 1
    55   55   13 1
    56   56   14 1
    57   57   17 1
    58   58   18 1
    59   59   20 1
    60   60   21 1
    61   61   23 1
    62   62   24 1
    63   63   26 1
    64   64   27 1
    65   65   29 1
    66   66   30 1
    67   67   31 1
    68   68   32 1
    69   69   38 1
    70   70   39 1
    71   71   45 1
    72   72   46 1
    73   33   34 ar
    74   34   35 ar
    75   35   36 ar
    76   36   37 ar
    77   39   40 ar
    78   40   41 ar
    79   41   42 ar
    80   42   43 ar
    81   43   44 ar
    82   45   46 ar
@<TRIPOS>SUBSTRUCTURE
     1 RES1 1

@<TRIPOS>CRYSIN
   9.6050   15.4440   19.8460  90.0000  97.6100  90.0000  14 1

