# MOL2 file generated by ConQuest
# Please check atom types

@<TRIPOS>MOLECULE
PIBWED
    96   105     1
SMALL
NO_CHARGES
****
Generated from CSD

@<TRIPOS>ATOM
      1 C1         2.9453   11.3668    3.6138 C.ar      1 RES1    0.0000
      2 C2         3.0537   12.6209    2.9685 C.ar      1 RES1    0.0000
      3 H1         2.2805   13.0789    2.7301 H         1 RES1    0.0000
      4 C3         4.2594   13.1659    2.6920 C.ar      1 RES1    0.0000
      5 H2         4.2986   14.0499    2.4044 H         1 RES1    0.0000
      6 C4         5.4762   12.4284    2.8269 C.ar      1 RES1    0.0000
      7 C5         6.7592   12.9403    2.4143 C.ar      1 RES1    0.0000
      8 C6         7.6907   11.9798    2.0522 C.ar      1 RES1    0.0000
      9 C7         9.0042   12.1563    1.3007 C.3       1 RES1    0.0000
     10 H3         8.8755   12.6799    0.4941 H         1 RES1    0.0000
     11 H4         9.6669   12.5928    1.8584 H         1 RES1    0.0000
     12 C8         9.4181   10.7744    0.9725 C.ar      1 RES1    0.0000
     13 C9        10.5443   10.3716    0.2724 C.ar      1 RES1    0.0000
     14 H5        11.1526   11.0017   -0.0409 H         1 RES1    0.0000
     15 C10       10.7525    9.0445    0.0488 C.ar      1 RES1    0.0000
     16 H6        11.5133    8.7684   -0.4107 H         1 RES1    0.0000
     17 C11        9.8416    8.1074    0.4977 C.ar      1 RES1    0.0000
     18 H7         9.9842    7.2050    0.3226 H         1 RES1    0.0000
     19 C12        8.7141    8.4995    1.2088 C.ar      1 RES1    0.0000
     20 H8         8.1042    7.8634    1.5059 H         1 RES1    0.0000
     21 C13        8.5062    9.8424    1.4716 C.ar      1 RES1    0.0000
     22 C14        7.4349   10.5875    2.1765 C.ar      1 RES1    0.0000
     23 C15        6.3122   10.1170    2.8442 C.ar      1 RES1    0.0000
     24 C16        5.3478   11.0788    3.2442 C.ar      1 RES1    0.0000
     25 C17        4.1221   10.6852    3.9188 C.ar      1 RES1    0.0000
     26 C18        4.0630    9.6165    4.8877 C.ar      1 RES1    0.0000
     27 C19        5.1005    9.4230    5.8463 C.ar      1 RES1    0.0000
     28 C20        4.9725    8.3595    6.7123 C.ar      1 RES1    0.0000
     29 C21        5.7439    8.0140    7.9203 C.ar      1 RES1    0.0000
     30 C22        6.7459    8.6816    8.6317 C.ar      1 RES1    0.0000
     31 H9         7.0715    9.4975    8.3288 H         1 RES1    0.0000
     32 C23        7.2457    8.1168    9.7900 C.ar      1 RES1    0.0000
     33 H10        7.9119    8.5603   10.2642 H         1 RES1    0.0000
     34 C24        6.7761    6.9199   10.2485 C.ar      1 RES1    0.0000
     35 H11        7.1357    6.5505   11.0227 H         1 RES1    0.0000
     36 C25        5.7781    6.2542    9.5755 C.ar      1 RES1    0.0000
     37 H12        5.4606    5.4388    9.8897 H         1 RES1    0.0000
     38 C26        5.2520    6.8156    8.4229 C.ar      1 RES1    0.0000
     39 C27        4.1250    6.3066    7.5881 C.3       1 RES1    0.0000
     40 H13        3.3256    6.1805    8.1226 H         1 RES1    0.0000
     41 H14        4.3578    5.4652    7.1643 H         1 RES1    0.0000
     42 C28        3.9238    7.3970    6.5551 C.ar      1 RES1    0.0000
     43 C29        2.8501    7.6184    5.7046 C.ar      1 RES1    0.0000
     44 C30        2.8594    8.8701    5.0039 C.ar      1 RES1    0.0000
     45 C31        1.6821    9.5287    4.5129 C.ar      1 RES1    0.0000
     46 H15        0.8645    9.0888    4.5759 H         1 RES1    0.0000
     47 C32        1.7140   10.7560    3.9655 C.ar      1 RES1    0.0000
     48 H16        0.9171   11.2112    3.8143 H         1 RES1    0.0000
     49 C33        7.0313   14.4578    2.3960 C.3       1 RES1    0.0000
     50 C34        6.3361   15.1585    3.5767 C.3       1 RES1    0.0000
     51 H17        6.6716   14.8014    4.4028 H         1 RES1    0.0000
     52 H18        5.3888   15.0101    3.5247 H         1 RES1    0.0000
     53 H19        6.5144   16.1016    3.5405 H         1 RES1    0.0000
     54 C35        6.5979   15.0667    1.0590 C.3       1 RES1    0.0000
     55 H20        6.7838   16.0095    1.0606 H         1 RES1    0.0000
     56 H21        5.6566   14.9275    0.9331 H         1 RES1    0.0000
     57 H22        7.0812   14.6478    0.3430 H         1 RES1    0.0000
     58 C36        8.5125   14.7930    2.6121 C.3       1 RES1    0.0000
     59 H23        9.0104   14.5630    1.8237 H         1 RES1    0.0000
     60 H24        8.8481   14.2936    3.3595 H         1 RES1    0.0000
     61 H25        8.6057   15.7320    2.7867 H         1 RES1    0.0000
     62 C37        5.9855    8.6600    2.8731 C.ar      1 RES1    0.0000
     63 C38        4.9032    8.2021    2.1257 C.ar      1 RES1    0.0000
     64 H26        4.3794    8.8083    1.6538 H         1 RES1    0.0000
     65 C39        4.6034    6.8563    2.0818 C.ar      1 RES1    0.0000
     66 H27        3.8816    6.5622    1.5735 H         1 RES1    0.0000
     67 C40        5.3554    5.9532    2.7757 C.ar      1 RES1    0.0000
     68 H28        5.1477    5.0476    2.7411 H         1 RES1    0.0000
     69 C41        6.4139    6.3863    3.5184 C.ar      1 RES1    0.0000
     70 H29        6.9237    5.7737    3.9984 H         1 RES1    0.0000
     71 C42        6.7320    7.7273    3.5619 C.ar      1 RES1    0.0000
     72 H30        7.4627    8.0072    4.0645 H         1 RES1    0.0000
     73 C43        6.1155   10.4972    6.0690 C.ar      1 RES1    0.0000
     74 C44        5.6817   11.7516    6.4688 C.ar      1 RES1    0.0000
     75 H31        4.7686   11.9174    6.5412 H         1 RES1    0.0000
     76 C45        6.5722   12.7519    6.7593 C.ar      1 RES1    0.0000
     77 H32        6.2602   13.5849    7.0290 H         1 RES1    0.0000
     78 C46        7.9181   12.5285    6.6540 C.ar      1 RES1    0.0000
     79 H33        8.5207   13.2093    6.8512 H         1 RES1    0.0000
     80 C47        8.3734   11.3044    6.2591 C.ar      1 RES1    0.0000
     81 H34        9.2882   11.1523    6.1856 H         1 RES1    0.0000
     82 C48        7.4872   10.2968    5.9700 C.ar      1 RES1    0.0000
     83 H35        7.8090    9.4660    5.7041 H         1 RES1    0.0000
     84 C49        1.6823    6.6197    5.5135 C.3       1 RES1    0.0000
     85 C50        2.0609    5.1734    5.8284 C.3       1 RES1    0.0000
     86 H36        2.8728    4.9461    5.3705 H         1 RES1    0.0000
     87 H37        1.3560    4.5878    5.5404 H         1 RES1    0.0000
     88 H38        2.1902    5.0747    6.7757 H         1 RES1    0.0000
     89 C51        0.5069    7.0059    6.4457 C.3       1 RES1    0.0000
     90 H39       -0.2230    6.3978    6.3083 H         1 RES1    0.0000
     91 H40        0.2208    7.8996    6.2454 H         1 RES1    0.0000
     92 H41        0.7956    6.9582    7.3610 H         1 RES1    0.0000
     93 C52        1.2229    6.5769    4.0349 C.3       1 RES1    0.0000
     94 H42        1.9508    6.2872    3.4807 H         1 RES1    0.0000
     95 H43        0.9426    7.4533    3.7608 H         1 RES1    0.0000
     96 H44        0.4894    5.9644    3.9449 H         1 RES1    0.0000
@<TRIPOS>BOND
     1    1    2 ar
     2    2    3 1
     3    4    2 ar
     4    5    4 1
     5    6    4 ar
     6    7    6 ar
     7    8    7 ar
     8    9    8 1
     9   10    9 1
    10   11    9 1
    11   12    9 1
    12   13   12 ar
    13   14   13 1
    14   15   13 ar
    15   16   15 1
    16   17   15 ar
    17   18   17 1
    18   19   17 ar
    19   20   19 1
    20   21   12 ar
    21   22    8 ar
    22   23   22 ar
    23   24    6 ar
    24   25    1 ar
    25   26   25 ar
    26   27   26 ar
    27   28   27 ar
    28   29   28 1
    29   30   29 ar
    30   31   30 1
    31   32   30 ar
    32   33   32 1
    33   34   32 ar
    34   35   34 1
    35   36   34 ar
    36   37   36 1
    37   38   29 ar
    38   39   38 1
    39   40   39 1
    40   41   39 1
    41   42   28 ar
    42   43   42 ar
    43   44   26 ar
    44   45   44 ar
    45   46   45 1
    46   47    1 ar
    47   48   47 1
    48   49    7 1
    49   50   49 1
    50   51   50 1
    51   52   50 1
    52   53   50 1
    53   54   49 1
    54   55   54 1
    55   56   54 1
    56   57   54 1
    57   58   49 1
    58   59   58 1
    59   60   58 1
    60   61   58 1
    61   62   23 1
    62   63   62 ar
    63   64   63 1
    64   65   63 ar
    65   66   65 1
    66   67   65 ar
    67   68   67 1
    68   69   67 ar
    69   70   69 1
    70   71   62 ar
    71   72   71 1
    72   73   27 1
    73   74   73 ar
    74   75   74 1
    75   76   74 ar
    76   77   76 1
    77   78   76 ar
    78   79   78 1
    79   80   78 ar
    80   81   80 1
    81   82   73 ar
    82   83   82 1
    83   84   43 1
    84   85   84 1
    85   86   85 1
    86   87   85 1
    87   88   85 1
    88   89   84 1
    89   90   89 1
    90   91   89 1
    91   92   89 1
    92   93   84 1
    93   94   93 1
    94   95   93 1
    95   96   93 1
    96   19   21 ar
    97   21   22 1
    98   23   24 ar
    99   24   25 ar
   100   36   38 ar
   101   39   42 1
   102   43   44 ar
   103   45   47 ar
   104   69   71 ar
   105   80   82 ar
@<TRIPOS>SUBSTRUCTURE
     1 RES1 1

@<TRIPOS>CRYSIN
   9.4794   12.9657   16.3977  96.2450 103.0610 103.8060   2 1

