# MOL2 file generated by ConQuest
# Please check atom types

@<TRIPOS>MOLECULE
PIBWIH
   102   112     1
SMALL
NO_CHARGES
****
Generated from CSD

@<TRIPOS>ATOM
      1 C1         0.0050    8.1063    3.9789 C.ar      1 RES1    0.0000
      2 H1         0.0923    8.9104    4.4369 H         1 RES1    0.0000
      3 C2         0.3332    6.8904    4.6256 C.ar      1 RES1    0.0000
      4 C3         0.1793    5.6449    3.9559 C.ar      1 RES1    0.0000
      5 C4         0.8964    4.4954    4.5162 C.ar      1 RES1    0.0000
      6 C5         1.4563    3.4643    3.7063 C.ar      1 RES1    0.0000
      7 C6         2.2120    2.4842    4.3400 C.ar      1 RES1    0.0000
      8 C7         3.2120    1.5406    3.7726 C.ar      1 RES1    0.0000
      9 C8         3.8437    1.4729    2.5298 C.ar      1 RES1    0.0000
     10 H2         3.5705    2.0207    1.8299 H         1 RES1    0.0000
     11 C9         4.8849    0.5780    2.3559 C.ar      1 RES1    0.0000
     12 H3         5.3205    0.5417    1.5356 H         1 RES1    0.0000
     13 C10        5.2892   -0.2617    3.3716 C.ar      1 RES1    0.0000
     14 H4         5.9696   -0.8777    3.2223 H         1 RES1    0.0000
     15 C11        4.6864   -0.1883    4.6086 C.ar      1 RES1    0.0000
     16 H5         4.9607   -0.7474    5.2996 H         1 RES1    0.0000
     17 C12        3.6682    0.7271    4.8091 C.ar      1 RES1    0.0000
     18 C13        3.0032    1.0840    6.1026 C.3       1 RES1    0.0000
     19 H6         3.6590    1.2686    6.7938 H         1 RES1    0.0000
     20 H7         2.4178    0.3705    6.4032 H         1 RES1    0.0000
     21 C14        2.2096    2.3329    5.7546 C.ar      1 RES1    0.0000
     22 C15        1.7097    3.3252    6.5839 C.ar      1 RES1    0.0000
     23 C16        1.2310    4.5087    5.9128 C.ar      1 RES1    0.0000
     24 C17        1.2408    5.7868    6.5653 C.ar      1 RES1    0.0000
     25 H8         1.4981    5.8345    7.4572 H         1 RES1    0.0000
     26 C18        0.8919    6.9138    5.9278 C.ar      1 RES1    0.0000
     27 H9         1.0198    7.7312    6.3510 H         1 RES1    0.0000
     28 C19        1.4937    3.4594    2.2151 C.ar      1 RES1    0.0000
     29 C20        2.1778    4.4241    1.5198 C.ar      1 RES1    0.0000
     30 H10        2.4760    5.1876    1.9596 H         1 RES1    0.0000
     31 C21        2.4271    4.2660    0.1552 C.ar      1 RES1    0.0000
     32 H11        2.8946    4.9223   -0.3090 H         1 RES1    0.0000
     33 C22        1.9917    3.1559   -0.4975 C.ar      1 RES1    0.0000
     34 H12        2.1891    3.0397   -1.3991 H         1 RES1    0.0000
     35 C23        1.2644    2.2123    0.1691 C.ar      1 RES1    0.0000
     36 H13        0.9414    1.4681   -0.2876 H         1 RES1    0.0000
     37 C24        1.0076    2.3561    1.5159 C.ar      1 RES1    0.0000
     38 H14        0.5056    1.7114    1.9609 H         1 RES1    0.0000
     39 C25        1.7817    3.2104    8.1338 C.3       1 RES1    0.0000
     40 C26        1.4921    1.7708    8.6044 C.3       1 RES1    0.0000
     41 H15        1.4107    1.7570    9.5613 H         1 RES1    0.0000
     42 H16        2.2133    1.1964    8.3374 H         1 RES1    0.0000
     43 H17        0.6737    1.4633    8.2090 H         1 RES1    0.0000
     44 C27        3.1905    3.6205    8.5996 C.3       1 RES1    0.0000
     45 H18        3.2519    3.5265    9.5533 H         1 RES1    0.0000
     46 H19        3.3539    4.5345    8.3561 H         1 RES1    0.0000
     47 H20        3.8434    3.0554    8.1795 H         1 RES1    0.0000
     48 C28        0.7301    4.0597    8.8776 C.3       1 RES1    0.0000
     49 H21       -0.0572    4.1420    8.3347 H         1 RES1    0.0000
     50 H22        1.0889    4.9317    9.0543 H         1 RES1    0.0000
     51 H23        0.5024    3.6332    9.7071 H         1 RES1    0.0000
     52 C1B       -0.4303    8.1063    2.7092 C.ar      1 RES1    0.0000
     53 H1B       -0.5176    8.9104    2.2512 H         1 RES1    0.0000
     54 C2B       -0.7584    6.8904    2.0625 C.ar      1 RES1    0.0000
     55 C3B       -0.6045    5.6449    2.7322 C.ar      1 RES1    0.0000
     56 C4B       -1.3216    4.4954    2.1719 C.ar      1 RES1    0.0000
     57 C5B       -1.8816    3.4643    2.9818 C.ar      1 RES1    0.0000
     58 C6B       -2.6372    2.4842    2.3481 C.ar      1 RES1    0.0000
     59 C7B       -3.6372    1.5406    2.9155 C.ar      1 RES1    0.0000
     60 C8B       -4.2690    1.4729    4.1583 C.ar      1 RES1    0.0000
     61 H2B       -3.9958    2.0207    4.8582 H         1 RES1    0.0000
     62 C9B       -5.3101    0.5780    4.3321 C.ar      1 RES1    0.0000
     63 H3B       -5.7458    0.5417    5.1525 H         1 RES1    0.0000
     64 C10B      -5.7145   -0.2617    3.3165 C.ar      1 RES1    0.0000
     65 H4B       -6.3948   -0.8777    3.4658 H         1 RES1    0.0000
     66 C11B      -5.1116   -0.1883    2.0795 C.ar      1 RES1    0.0000
     67 H5B       -5.3860   -0.7474    1.3884 H         1 RES1    0.0000
     68 C12B      -4.0935    0.7271    1.8790 C.ar      1 RES1    0.0000
     69 C13B      -3.4284    1.0840    0.5855 C.3       1 RES1    0.0000
     70 H6B       -4.0842    1.2686   -0.1057 H         1 RES1    0.0000
     71 H7B       -2.8430    0.3705    0.2849 H         1 RES1    0.0000
     72 C14B      -2.6348    2.3329    0.9335 C.ar      1 RES1    0.0000
     73 C15B      -2.1350    3.3252    0.1042 C.ar      1 RES1    0.0000
     74 C16B      -1.6562    4.5087    0.7753 C.ar      1 RES1    0.0000
     75 C17B      -1.6661    5.7868    0.1228 C.ar      1 RES1    0.0000
     76 H8B       -1.9234    5.8345   -0.7691 H         1 RES1    0.0000
     77 C18B      -1.3172    6.9138    0.7603 C.ar      1 RES1    0.0000
     78 H9B       -1.4450    7.7312    0.3371 H         1 RES1    0.0000
     79 C19B      -1.9189    3.4594    4.4730 C.ar      1 RES1    0.0000
     80 C20B      -2.6030    4.4241    5.1683 C.ar      1 RES1    0.0000
     81 H10B      -2.9013    5.1876    4.7285 H         1 RES1    0.0000
     82 C21B      -2.8523    4.2660    6.5329 C.ar      1 RES1    0.0000
     83 H11B      -3.3199    4.9223    6.9971 H         1 RES1    0.0000
     84 C22B      -2.4169    3.1559    7.1856 C.ar      1 RES1    0.0000
     85 H12B      -2.6144    3.0397    8.0872 H         1 RES1    0.0000
     86 C23B      -1.6896    2.2123    6.5190 C.ar      1 RES1    0.0000
     87 H13B      -1.3666    1.4681    6.9757 H         1 RES1    0.0000
     88 C24B      -1.4329    2.3561    5.1722 C.ar      1 RES1    0.0000
     89 H14B      -0.9308    1.7114    4.7271 H         1 RES1    0.0000
     90 C25B      -2.2070    3.2104   -1.4457 C.3       1 RES1    0.0000
     91 C26B      -1.9173    1.7708   -1.9163 C.3       1 RES1    0.0000
     92 H15B      -1.8359    1.7570   -2.8732 H         1 RES1    0.0000
     93 H16B      -2.6385    1.1964   -1.6493 H         1 RES1    0.0000
     94 H17B      -1.0989    1.4633   -1.5209 H         1 RES1    0.0000
     95 C27B      -3.6158    3.6205   -1.9115 C.3       1 RES1    0.0000
     96 H18B      -3.6771    3.5265   -2.8652 H         1 RES1    0.0000
     97 H19B      -3.7792    4.5345   -1.6680 H         1 RES1    0.0000
     98 H20B      -4.2686    3.0554   -1.4914 H         1 RES1    0.0000
     99 C28B      -1.1554    4.0597   -2.1895 C.3       1 RES1    0.0000
    100 H21B      -0.3680    4.1420   -1.6466 H         1 RES1    0.0000
    101 H22B      -1.5141    4.9317   -2.3662 H         1 RES1    0.0000
    102 H23B      -0.9276    3.6332   -3.0190 H         1 RES1    0.0000
@<TRIPOS>BOND
     1    1    2 1
     2    3    1 ar
     3    4    3 ar
     4    5    4 ar
     5    6    5 ar
     6    7    6 ar
     7    8    7 1
     8    9    8 ar
     9   10    9 1
    10   11    9 ar
    11   12   11 1
    12   13   11 ar
    13   14   13 1
    14   15   13 ar
    15   16   15 1
    16   17    8 ar
    17   18   17 1
    18   19   18 1
    19   20   18 1
    20   21    7 ar
    21   22   21 ar
    22   23    5 ar
    23   24   23 ar
    24   25   24 1
    25   26    3 ar
    26   27   26 1
    27   28    6 1
    28   29   28 ar
    29   30   29 1
    30   31   29 ar
    31   32   31 1
    32   33   31 ar
    33   34   33 1
    34   35   33 ar
    35   36   35 1
    36   37   28 ar
    37   38   37 1
    38   39   22 1
    39   40   39 1
    40   41   40 1
    41   42   40 1
    42   43   40 1
    43   44   39 1
    44   45   44 1
    45   46   44 1
    46   47   44 1
    47   48   39 1
    48   49   48 1
    49   50   48 1
    50   51   48 1
    51   52    1 ar
    52   53   52 1
    53   54   52 ar
    54   55    4 ar
    55   56   55 ar
    56   57   56 ar
    57   58   57 ar
    58   59   58 1
    59   60   59 ar
    60   61   60 1
    61   62   60 ar
    62   63   62 1
    63   64   62 ar
    64   65   64 1
    65   66   64 ar
    66   67   66 1
    67   68   59 ar
    68   69   68 1
    69   70   69 1
    70   71   69 1
    71   72   58 ar
    72   73   72 ar
    73   74   56 ar
    74   75   74 ar
    75   76   75 1
    76   77   54 ar
    77   78   77 1
    78   79   57 1
    79   80   79 ar
    80   81   80 1
    81   82   80 ar
    82   83   82 1
    83   84   82 ar
    84   85   84 1
    85   86   84 ar
    86   87   86 1
    87   88   79 ar
    88   89   88 1
    89   90   73 1
    90   91   90 1
    91   92   91 1
    92   93   91 1
    93   94   91 1
    94   95   90 1
    95   96   95 1
    96   97   95 1
    97   98   95 1
    98   99   90 1
    99  100   99 1
   100  101   99 1
   101  102   99 1
   102   15   17 ar
   103   18   21 1
   104   22   23 ar
   105   24   26 ar
   106   35   37 ar
   107   54   55 ar
   108   66   68 ar
   109   69   72 1
   110   73   74 ar
   111   75   77 ar
   112   86   88 ar
@<TRIPOS>SUBSTRUCTURE
     1 RES1 1

@<TRIPOS>CRYSIN
  18.5363   15.7011   13.4032  90.0000  93.6380  90.0000  15 1

