# MOL2 file generated by ConQuest
# Please check atom types

@<TRIPOS>MOLECULE
PICWIH
    54    58     1
SMALL
NO_CHARGES
****
Generated from CSD

@<TRIPOS>ATOM
      1 C1         8.3022   -0.8453   -0.7234 C.ar      1 RES1    0.0000
      2 C2         7.7999   -0.0114    0.2830 C.ar      1 RES1    0.0000
      3 C3         6.4135   -0.0041    0.6351 C.ar      1 RES1    0.0000
      4 C4         5.9408    0.8037    1.6038 C.ar      1 RES1    0.0000
      5 C5         6.8043    1.6889    2.2911 C.ar      1 RES1    0.0000
      6 C6         8.1275    1.7077    2.0046 C.ar      1 RES1    0.0000
      7 C7         9.6825   -0.8567   -1.0056 C.ar      1 RES1    0.0000
      8 C8         7.3729   -1.6995   -1.5304 C.ar      1 RES1    0.0000
      9 C9         6.9677   -2.9495   -1.0878 C.ar      1 RES1    0.0000
     10 C10        6.1007   -3.7270   -1.8476 C.ar      1 RES1    0.0000
     11 C11        5.6965   -5.1043   -1.3691 C.3       1 RES1    0.0000
     12 C12        5.6537   -3.2326   -3.0557 C.ar      1 RES1    0.0000
     13 C13        6.0515   -1.9949   -3.5340 C.ar      1 RES1    0.0000
     14 C14        5.5389   -1.4825   -4.8476 C.3       1 RES1    0.0000
     15 C15        6.9164   -1.2336   -2.7519 C.ar      1 RES1    0.0000
     16 H1         5.8457   -0.6282    0.1790 H         1 RES1    0.0000
     17 H2         4.9801    0.7588    1.8355 H         1 RES1    0.0000
     18 H3         6.3922    2.2927    2.9263 H         1 RES1    0.0000
     19 H4         8.7449    2.2600    2.4554 H         1 RES1    0.0000
     20 H5         4.7515   -5.0994   -1.3541 H         1 RES1    0.0000
     21 H6         6.0913   -5.3441   -0.5266 H         1 RES1    0.0000
     22 H7         5.9353   -5.7684   -2.0161 H         1 RES1    0.0000
     23 H8         5.0585   -3.7531   -3.5838 H         1 RES1    0.0000
     24 H9         6.2598   -1.1667   -5.3712 H         1 RES1    0.0000
     25 H10        4.9826   -0.7262   -4.6490 H         1 RES1    0.0000
     26 H11        4.9946   -2.1458   -5.2809 H         1 RES1    0.0000
     27 H12        7.2181   -0.3835   -3.0783 H         1 RES1    0.0000
     28 C7B        8.6855    0.8567    1.0056 C.ar      1 RES1    0.0000
     29 C2B       10.5681    0.0114   -0.2830 C.ar      1 RES1    0.0000
     30 C6B       10.2405   -1.7077   -2.0046 C.ar      1 RES1    0.0000
     31 C1B       10.0658    0.8453    0.7234 C.ar      1 RES1    0.0000
     32 C3B       11.9545    0.0041   -0.6351 C.ar      1 RES1    0.0000
     33 C5B       11.5637   -1.6889   -2.2911 C.ar      1 RES1    0.0000
     34 H4B        9.6231   -2.2600   -2.4554 H         1 RES1    0.0000
     35 C8B       10.9951    1.6995    1.5304 C.ar      1 RES1    0.0000
     36 C4B       12.4272   -0.8037   -1.6038 C.ar      1 RES1    0.0000
     37 H1B       12.5223    0.6282   -0.1790 H         1 RES1    0.0000
     38 H3B       11.9758   -2.2927   -2.9263 H         1 RES1    0.0000
     39 C9B       11.4003    2.9495    1.0878 C.ar      1 RES1    0.0000
     40 C15B      11.4516    1.2336    2.7519 C.ar      1 RES1    0.0000
     41 H2B       13.3879   -0.7588   -1.8355 H         1 RES1    0.0000
     42 C10B      12.2673    3.7270    1.8476 C.ar      1 RES1    0.0000
     43 C13B      12.3165    1.9949    3.5340 C.ar      1 RES1    0.0000
     44 H12B      11.1499    0.3835    3.0783 H         1 RES1    0.0000
     45 C11B      12.6715    5.1043    1.3691 C.3       1 RES1    0.0000
     46 C12B      12.7143    3.2326    3.0557 C.ar      1 RES1    0.0000
     47 C14B      12.8291    1.4825    4.8476 C.3       1 RES1    0.0000
     48 H5B       13.6165    5.0994    1.3541 H         1 RES1    0.0000
     49 H6B       12.2767    5.3441    0.5266 H         1 RES1    0.0000
     50 H7B       12.4327    5.7684    2.0161 H         1 RES1    0.0000
     51 H8B       13.3095    3.7531    3.5838 H         1 RES1    0.0000
     52 H9B       12.1082    1.1667    5.3712 H         1 RES1    0.0000
     53 H10B      13.3854    0.7262    4.6490 H         1 RES1    0.0000
     54 H11B      13.3734    2.1458    5.2809 H         1 RES1    0.0000
@<TRIPOS>BOND
     1    1    2 ar
     2    2    3 ar
     3    3    4 ar
     4    4    5 ar
     5    5    6 ar
     6    6   19 1
     7    7    1 ar
     8    8    1 1
     9    9    8 ar
    10   10    9 ar
    11   11   10 1
    12   12   10 ar
    13   13   12 ar
    14   14   13 1
    15   15    8 ar
    16   16    3 1
    17   17    4 1
    18   18    5 1
    19   20   11 1
    20   21   11 1
    21   22   11 1
    22   23   12 1
    23   24   14 1
    24   25   14 1
    25   26   14 1
    26   27   15 1
    27   28    2 ar
    28   29    7 ar
    29   30    7 ar
    30   31   28 ar
    31   32   29 ar
    32   33   30 ar
    33   34   30 1
    34   35   31 1
    35   36   32 ar
    36   37   32 1
    37   38   33 1
    38   39   35 ar
    39   40   35 ar
    40   41   36 1
    41   42   39 ar
    42   43   40 ar
    43   44   40 1
    44   45   42 1
    45   46   42 ar
    46   47   43 1
    47   48   45 1
    48   49   45 1
    49   50   45 1
    50   51   46 1
    51   52   47 1
    52   53   47 1
    53   54   47 1
    54    6   28 ar
    55   13   15 ar
    56   29   31 ar
    57   33   36 ar
    58   43   46 ar
@<TRIPOS>SUBSTRUCTURE
     1 RES1 1

@<TRIPOS>CRYSIN
   9.1840    8.1590   15.2840  90.0000 100.1400  90.0000 231 1

