# MOL2 file generated by ConQuest
# Please check atom types

@<TRIPOS>MOLECULE
PIDCUA
    54    62     1
SMALL
NO_CHARGES
****
Generated from CSD

@<TRIPOS>ATOM
      1 C1         2.5272    2.7258    1.8644 C.ar      1 RES1    0.0000
      2 H1         3.3554    2.7410    1.4000 H         1 RES1    0.0000
      3 C2         1.3592    2.9701    1.1636 C.ar      1 RES1    0.0000
      4 H2         1.3837    3.1341    0.2279 H         1 RES1    0.0000
      5 C3         0.1617    2.9732    1.8440 C.ar      1 RES1    0.0000
      6 H3        -0.6436    3.1887    1.3881 H         1 RES1    0.0000
      7 C4         0.1323    2.6620    3.1811 C.ar      1 RES1    0.0000
      8 H4        -0.7024    2.6423    3.6353 H         1 RES1    0.0000
      9 C5         1.2971    2.3767    3.8870 C.ar      1 RES1    0.0000
     10 C6         1.2350    2.0322    5.3176 C.ar      1 RES1    0.0000
     11 C7         0.0327    1.6513    5.9147 C.ar      1 RES1    0.0000
     12 H5        -0.7433    1.5693    5.3721 H         1 RES1    0.0000
     13 C8        -0.0686    1.3948    7.2416 C.ar      1 RES1    0.0000
     14 H6        -0.9001    1.1201    7.6073 H         1 RES1    0.0000
     15 C9         1.0096    1.5283    8.0462 C.ar      1 RES1    0.0000
     16 H7         0.9230    1.4175    8.9869 H         1 RES1    0.0000
     17 C10        2.2429    1.8303    7.4865 C.ar      1 RES1    0.0000
     18 H8         3.0091    1.8653    8.0479 H         1 RES1    0.0000
     19 C11        2.3932    2.0823    6.1291 C.ar      1 RES1    0.0000
     20 C12        3.7687    2.3646    5.5626 C.3       1 RES1    0.0000
     21 C13        4.7881    1.3098    6.0202 C.ar      1 RES1    0.0000
     22 C14        5.3827    1.0852    7.2195 C.ar      1 RES1    0.0000
     23 H9         5.2406    1.6695    7.9526 H         1 RES1    0.0000
     24 C15        6.2338   -0.0637    7.3419 C.ar      1 RES1    0.0000
     25 H10        6.6618   -0.2322    8.1738 H         1 RES1    0.0000
     26 C16        6.4478   -0.9182    6.3094 C.ar      1 RES1    0.0000
     27 H11        7.0032   -1.6771    6.4404 H         1 RES1    0.0000
     28 C17        5.8630   -0.7012    5.0438 C.ar      1 RES1    0.0000
     29 C18        5.0625    0.4447    4.9264 C.ar      1 RES1    0.0000
     30 C19        5.9528   -1.4904    3.8700 C.ar      1 RES1    0.0000
     31 H12        6.4740   -2.2841    3.8870 H         1 RES1    0.0000
     32 C20        5.3190   -1.1489    2.7286 C.ar      1 RES1    0.0000
     33 H13        5.3729   -1.7302    1.9801 H         1 RES1    0.0000
     34 C21        4.5610    0.0713    2.6095 C.ar      1 RES1    0.0000
     35 H14        4.1412    0.3142    1.7930 H         1 RES1    0.0000
     36 C22        4.4728    0.8651    3.7169 C.ar      1 RES1    0.0000
     37 C23        3.8537    2.2416    3.9585 C.3       1 RES1    0.0000
     38 C24        2.5239    2.4572    3.2321 C.ar      1 RES1    0.0000
     39 C25        4.8534    3.3693    3.6046 C.ar      1 RES1    0.0000
     40 C26        4.3274    3.7593    5.8620 C.ar      1 RES1    0.0000
     41 C27        4.3584    4.4894    7.0153 C.ar      1 RES1    0.0000
     42 H15        3.8798    4.2055    7.7842 H         1 RES1    0.0000
     43 C28        5.1230    5.6853    7.0323 C.ar      1 RES1    0.0000
     44 H16        5.1426    6.2074    7.8251 H         1 RES1    0.0000
     45 C29        5.8352    6.1072    5.9368 C.ar      1 RES1    0.0000
     46 H17        6.3563    6.8995    5.9896 H         1 RES1    0.0000
     47 C30        5.7993    5.3772    4.7393 C.ar      1 RES1    0.0000
     48 C31        5.0054    4.2116    4.7240 C.ar      1 RES1    0.0000
     49 C32        6.4756    5.6656    3.5196 C.ar      1 RES1    0.0000
     50 H18        7.0065    6.4502    3.4498 H         1 RES1    0.0000
     51 C33        6.3678    4.8278    2.4598 C.ar      1 RES1    0.0000
     52 H19        6.8611    5.0266    1.6722 H         1 RES1    0.0000
     53 C34        5.5477    3.6607    2.4751 C.ar      1 RES1    0.0000
     54 H20        5.4889    3.0991    1.7113 H         1 RES1    0.0000
@<TRIPOS>BOND
     1    1    2 1
     2    3    1 ar
     3    4    3 1
     4    5    3 ar
     5    6    5 1
     6    7    5 ar
     7    8    7 1
     8    9    7 ar
     9   10    9 1
    10   11   10 ar
    11   12   11 1
    12   13   11 ar
    13   14   13 1
    14   15   13 ar
    15   16   15 1
    16   17   15 ar
    17   18   17 1
    18   19   10 ar
    19   20   19 1
    20   21   20 1
    21   22   21 ar
    22   23   22 1
    23   24   22 ar
    24   25   24 1
    25   26   24 ar
    26   27   26 1
    27   28   26 ar
    28   29   21 ar
    29   30   28 ar
    30   31   30 1
    31   32   30 ar
    32   33   32 1
    33   34   32 ar
    34   35   34 1
    35   36   29 ar
    36   37   20 1
    37   38    1 ar
    38   39   37 1
    39   40   20 1
    40   41   40 ar
    41   42   41 1
    42   43   41 ar
    43   44   43 1
    44   45   43 ar
    45   46   45 1
    46   47   45 ar
    47   48   39 ar
    48   49   47 ar
    49   50   49 1
    50   51   49 ar
    51   52   51 1
    52   53   39 ar
    53   54   53 1
    54    9   38 ar
    55   17   19 ar
    56   28   29 ar
    57   34   36 ar
    58   36   37 1
    59   37   38 1
    60   40   48 ar
    61   47   48 ar
    62   51   53 ar
@<TRIPOS>SUBSTRUCTURE
     1 RES1 1

@<TRIPOS>CRYSIN
  16.3360   15.1770   17.0110  90.0000  90.0000  90.0000  61 1

