# MOL2 file generated by ConQuest
# Please check atom types

@<TRIPOS>MOLECULE
PIFHIW
    94   101     1
SMALL
NO_CHARGES
****
Generated from CSD

@<TRIPOS>ATOM
      1 C1        13.2668   25.1188    2.5470 C.ar      1 RES1    0.0000
      2 C2        12.7304   25.8230    1.4681 C.ar      1 RES1    0.0000
      3 C3        12.0923   25.1598    0.3640 C.ar      1 RES1    0.0000
      4 C4        13.9408   25.8135    3.5978 C.ar      1 RES1    0.0000
      5 C5        14.6112   25.1173    4.6492 C.ar      1 RES1    0.0000
      6 C6        15.7663   25.1570    6.8373 C.ar      1 RES1    0.0000
      7 C7        15.1467   25.8315    5.7339 C.ar      1 RES1    0.0000
      8 C8        11.5388   25.8365   -0.6586 C.ar      1 RES1    0.0000
      9 C9        16.3157   25.8386    7.8685 C.ar      1 RES1    0.0000
     10 H1        15.7734   24.1997    6.8027 H         1 RES1    0.0000
     11 H2        12.1008   24.1749    0.3250 H         1 RES1    0.0000
     12 H3        13.4218   22.9716    5.8278 H         1 RES1    0.0000
     13 H4        17.2586   21.6799    3.4663 H         1 RES1    0.0000
     14 H5        11.2981   23.9590    3.8057 H         1 RES1    0.0000
     15 H6        14.1580   20.7208    5.8278 H         1 RES1    0.0000
     16 H7        10.5477   21.7436    3.8563 H         1 RES1    0.0000
     17 H8        16.5790   23.9555    3.3941 H         1 RES1    0.0000
     18 H9        14.4270   22.9292    1.4010 H         1 RES1    0.0000
     19 H10       11.7228   20.1263    2.5925 H         1 RES1    0.0000
     20 H11       11.1423   25.3251   -1.4226 H         1 RES1    0.0000
     21 H12       13.6483   20.7173    1.4154 H         1 RES1    0.0000
     22 H13       16.6923   25.3782    8.6008 H         1 RES1    0.0000
     23 C10       12.9345   23.6632    2.5983 C.ar      1 RES1    0.0000
     24 C11       14.9292   23.6579    4.6023 C.ar      1 RES1    0.0000
     25 C12       14.2401   22.6981    5.3266 C.ar      1 RES1    0.0000
     26 C13       13.6115   22.6885    1.8834 C.ar      1 RES1    0.0000
     27 C14       16.0637   23.2438    3.9133 C.ar      1 RES1    0.0000
     28 C15       11.7851   23.2742    3.2851 C.ar      1 RES1    0.0000
     29 C16       11.3547   21.9683    3.2742 C.ar      1 RES1    0.0000
     30 C17       16.4714   21.9238    3.9357 C.ar      1 RES1    0.0000
     31 C18       14.6564   21.3872    5.3381 C.ar      1 RES1    0.0000
     32 C19       15.7947   20.9643    4.6571 C.ar      1 RES1    0.0000
     33 C20       13.1783   21.3787    1.8826 C.ar      1 RES1    0.0000
     34 C21       12.0485   21.0234    2.5752 C.ar      1 RES1    0.0000
     35 C22       16.2307   19.4918    4.6362 C.3       1 RES1    0.0000
     36 C23       15.6573   18.7061    5.7808 C.3       1 RES1    0.0000
     37 H14       14.7003   18.6788    5.7021 H         1 RES1    0.0000
     38 H15       15.8980   19.1248    6.6098 H         1 RES1    0.0000
     39 H16       16.0056   17.8118    5.7620 H         1 RES1    0.0000
     40 C24       17.7598   19.3704    4.6810 C.3       1 RES1    0.0000
     41 H17       18.0897   19.7759    5.4855 H         1 RES1    0.0000
     42 H18       18.1378   19.8149    3.9191 H         1 RES1    0.0000
     43 H19       18.0076   18.4417    4.6673 H         1 RES1    0.0000
     44 C25       15.8032   18.8912    3.3074 C.3       1 RES1    0.0000
     45 H20       16.0792   17.9710    3.2670 H         1 RES1    0.0000
     46 H21       16.2109   19.3796    2.5889 H         1 RES1    0.0000
     47 H22       14.8475   18.9407    3.2258 H         1 RES1    0.0000
     48 C1G       13.2668   27.9662    2.5470 C.ar      1 RES1    0.0000
     49 C2G       12.7304   27.2620    1.4681 C.ar      1 RES1    0.0000
     50 C3G       12.0923   27.9252    0.3640 C.ar      1 RES1    0.0000
     51 C4G       13.9408   27.2715    3.5978 C.ar      1 RES1    0.0000
     52 C5G       14.6112   27.9677    4.6492 C.ar      1 RES1    0.0000
     53 C6G       15.7663   27.9280    6.8373 C.ar      1 RES1    0.0000
     54 C7G       15.1467   27.2535    5.7339 C.ar      1 RES1    0.0000
     55 C8G       11.5388   27.2485   -0.6586 C.ar      1 RES1    0.0000
     56 C9G       16.3157   27.2464    7.8685 C.ar      1 RES1    0.0000
     57 H1G       15.7734   28.8853    6.8027 H         1 RES1    0.0000
     58 H2G       12.1008   28.9101    0.3250 H         1 RES1    0.0000
     59 H3G       13.4218   30.1134    5.8278 H         1 RES1    0.0000
     60 H4G       17.2586   31.4051    3.4663 H         1 RES1    0.0000
     61 H5G       11.2981   29.1260    3.8057 H         1 RES1    0.0000
     62 H6G       14.1580   32.3642    5.8278 H         1 RES1    0.0000
     63 H7G       10.5477   31.3414    3.8563 H         1 RES1    0.0000
     64 H8G       16.5790   29.1295    3.3941 H         1 RES1    0.0000
     65 H9G       14.4270   30.1558    1.4010 H         1 RES1    0.0000
     66 H10G      11.7228   32.9587    2.5925 H         1 RES1    0.0000
     67 H11G      11.1423   27.7599   -1.4226 H         1 RES1    0.0000
     68 H12G      13.6483   32.3677    1.4154 H         1 RES1    0.0000
     69 H13G      16.6923   27.7068    8.6008 H         1 RES1    0.0000
     70 C10G      12.9345   29.4218    2.5983 C.ar      1 RES1    0.0000
     71 C11G      14.9292   29.4271    4.6023 C.ar      1 RES1    0.0000
     72 C12G      14.2401   30.3869    5.3266 C.ar      1 RES1    0.0000
     73 C13G      13.6115   30.3965    1.8834 C.ar      1 RES1    0.0000
     74 C14G      16.0637   29.8412    3.9133 C.ar      1 RES1    0.0000
     75 C15G      11.7851   29.8108    3.2851 C.ar      1 RES1    0.0000
     76 C16G      11.3547   31.1167    3.2742 C.ar      1 RES1    0.0000
     77 C17G      16.4714   31.1612    3.9357 C.ar      1 RES1    0.0000
     78 C18G      14.6564   31.6978    5.3381 C.ar      1 RES1    0.0000
     79 C19G      15.7947   32.1207    4.6571 C.ar      1 RES1    0.0000
     80 C20G      13.1783   31.7063    1.8826 C.ar      1 RES1    0.0000
     81 C21G      12.0485   32.0616    2.5752 C.ar      1 RES1    0.0000
     82 C22G      16.2307   33.5932    4.6362 C.3       1 RES1    0.0000
     83 C23G      15.6573   34.3789    5.7808 C.3       1 RES1    0.0000
     84 H14G      14.7003   34.4062    5.7021 H         1 RES1    0.0000
     85 H15G      15.8980   33.9602    6.6098 H         1 RES1    0.0000
     86 H16G      16.0056   35.2732    5.7620 H         1 RES1    0.0000
     87 C24G      17.7598   33.7146    4.6810 C.3       1 RES1    0.0000
     88 H17G      18.0897   33.3091    5.4855 H         1 RES1    0.0000
     89 H18G      18.1378   33.2701    3.9191 H         1 RES1    0.0000
     90 H19G      18.0076   34.6433    4.6673 H         1 RES1    0.0000
     91 C25G      15.8032   34.1938    3.3074 C.3       1 RES1    0.0000
     92 H20G      16.0792   35.1140    3.2670 H         1 RES1    0.0000
     93 H21G      16.2109   33.7054    2.5889 H         1 RES1    0.0000
     94 H22G      14.8475   34.1443    3.2258 H         1 RES1    0.0000
@<TRIPOS>BOND
     1    1    2 ar
     2    2    3 ar
     3    3    8 ar
     4    4    1 ar
     5    5    4 ar
     6    6    7 ar
     7    7    5 ar
     8    8   20 1
     9    9    6 ar
    10   10    6 1
    11   11    3 1
    12   12   25 1
    13   13   30 1
    14   14   28 1
    15   15   31 1
    16   16   29 1
    17   17   27 1
    18   18   26 1
    19   19   34 1
    20   21   33 1
    21   22    9 1
    22   23    1 1
    23   24    5 1
    24   25   24 ar
    25   26   23 ar
    26   27   24 ar
    27   28   23 ar
    28   29   28 ar
    29   30   27 ar
    30   31   25 ar
    31   32   30 ar
    32   33   26 ar
    33   34   29 ar
    34   35   32 1
    35   36   35 1
    36   37   36 1
    37   38   36 1
    38   39   36 1
    39   40   35 1
    40   41   40 1
    41   42   40 1
    42   43   40 1
    43   44   35 1
    44   45   44 1
    45   46   44 1
    46   47   44 1
    47   48   49 ar
    48   49    2 ar
    49   50   49 ar
    50   51    4 ar
    51   52   51 ar
    52   53   54 ar
    53   54    7 ar
    54   55    8 ar
    55   56    9 ar
    56   57   53 1
    57   58   50 1
    58   59   72 1
    59   60   77 1
    60   61   75 1
    61   62   78 1
    62   63   76 1
    63   64   74 1
    64   65   73 1
    65   66   81 1
    66   67   55 1
    67   68   80 1
    68   69   56 1
    69   70   48 1
    70   71   52 1
    71   72   71 ar
    72   73   70 ar
    73   74   71 ar
    74   75   70 ar
    75   76   75 ar
    76   77   74 ar
    77   78   72 ar
    78   79   77 ar
    79   80   73 ar
    80   81   76 ar
    81   82   79 1
    82   83   82 1
    83   84   83 1
    84   85   83 1
    85   86   83 1
    86   87   82 1
    87   88   87 1
    88   89   87 1
    89   90   87 1
    90   91   82 1
    91   92   91 1
    92   93   91 1
    93   94   91 1
    94   31   32 ar
    95   33   34 ar
    96   48   51 ar
    97   50   55 ar
    98   52   54 ar
    99   53   56 ar
   100   78   79 ar
   101   80   81 ar
@<TRIPOS>SUBSTRUCTURE
     1 RES1 1

@<TRIPOS>CRYSIN
  14.1580   35.3900    7.2215  90.0000  90.0000  90.0000  62 1

