# MOL2 file generated by ConQuest
# Please check atom types

@<TRIPOS>MOLECULE
PIFHOC
    94   101     1
SMALL
NO_CHARGES
****
Generated from CSD

@<TRIPOS>ATOM
      1 C1         8.9148    6.5279    6.6347 C.ar      1 RES1    0.0000
      2 C2         9.5320    6.1253    7.8344 C.ar      1 RES1    0.0000
      3 C3         7.5857    6.3844    6.4563 C.ar      1 RES1    0.0000
      4 C4         8.8156    5.5060    8.8027 C.ar      1 RES1    0.0000
      5 C5         6.7536    5.7985    7.4758 C.ar      1 RES1    0.0000
      6 C6         7.4081    5.2487    8.6295 C.ar      1 RES1    0.0000
      7 C7         5.3499    5.7886    7.3927 C.ar      1 RES1    0.0000
      8 C8         6.6816    4.4552    9.5289 C.ar      1 RES1    0.0000
      9 C9         4.5910    5.1386    8.4140 C.ar      1 RES1    0.0000
     10 C10        5.2799    4.2548    9.3222 C.ar      1 RES1    0.0000
     11 C11        3.1837    5.2920    8.5801 C.ar      1 RES1    0.0000
     12 C12        4.5463    3.2355    9.9883 C.ar      1 RES1    0.0000
     13 C13        2.4770    4.4317    9.4158 C.ar      1 RES1    0.0000
     14 C14        3.1470    3.3168   10.0378 C.ar      1 RES1    0.0000
     15 C15        1.0625    4.5843    9.6526 C.ar      1 RES1    0.0000
     16 C16        2.3462    2.3499   10.7163 C.ar      1 RES1    0.0000
     17 C17        0.3705    3.6788   10.3664 C.ar      1 RES1    0.0000
     18 C18        1.0145    2.5278   10.8717 C.ar      1 RES1    0.0000
     19 C19        4.6957    6.3031    6.1523 C.ar      1 RES1    0.0000
     20 C20        4.7177    7.6419    5.7954 C.ar      1 RES1    0.0000
     21 C21        4.1587    8.0572    4.5851 C.ar      1 RES1    0.0000
     22 C22        3.5866    7.1274    3.7511 C.ar      1 RES1    0.0000
     23 C23        3.5762    5.8238    4.0780 C.ar      1 RES1    0.0000
     24 C24        4.1292    5.3814    5.2777 C.ar      1 RES1    0.0000
     25 C25        7.3194    3.9641   10.7905 C.ar      1 RES1    0.0000
     26 C26        8.3177    2.9999   10.8240 C.ar      1 RES1    0.0000
     27 C27        8.8454    2.5738   12.0273 C.ar      1 RES1    0.0000
     28 C28        8.4110    3.0839   13.2429 C.ar      1 RES1    0.0000
     29 C29        7.4431    4.0625   13.1952 C.ar      1 RES1    0.0000
     30 C30        6.8938    4.5012   11.9937 C.ar      1 RES1    0.0000
     31 C31        8.9693    2.5756   14.5840 C.3       1 RES1    0.0000
     32 C32        9.9659    3.5055   15.1141 C.3       1 RES1    0.0000
     33 H1        10.2298    3.2238   15.9940 H         1 RES1    0.0000
     34 H2         9.5894    4.3875   15.1600 H         1 RES1    0.0000
     35 H3        10.7339    3.5145   14.5381 H         1 RES1    0.0000
     36 C33        9.5767    1.2016   14.4444 C.3       1 RES1    0.0000
     37 H4        10.4210    1.2702   13.9939 H         1 RES1    0.0000
     38 H5         8.9874    0.6410   13.9338 H         1 RES1    0.0000
     39 H6         9.7076    0.8197   15.3137 H         1 RES1    0.0000
     40 C34        7.8511    2.3941   15.5646 C.3       1 RES1    0.0000
     41 H7         8.1518    1.8471   16.2944 H         1 RES1    0.0000
     42 H8         7.1081    1.9680   15.1300 H         1 RES1    0.0000
     43 H9         7.5763    3.2509   15.9003 H         1 RES1    0.0000
     44 C35        2.4874    6.4846    7.9952 C.ar      1 RES1    0.0000
     45 C36        2.7319    7.7449    8.5112 C.ar      1 RES1    0.0000
     46 C37        2.0931    8.8661    8.0058 C.ar      1 RES1    0.0000
     47 C38        1.1786    8.7731    6.9704 C.ar      1 RES1    0.0000
     48 C39        0.9221    7.5165    6.4792 C.ar      1 RES1    0.0000
     49 C40        1.5481    6.3799    6.9828 C.ar      1 RES1    0.0000
     50 C41        0.4888   10.0189    6.4174 C.3       1 RES1    0.0000
     51 C42       -0.5959   10.4460    7.3927 C.3       1 RES1    0.0000
     52 H10       -0.1887   10.7538    8.2073 H         1 RES1    0.0000
     53 H11       -1.1662    9.6985    7.5835 H         1 RES1    0.0000
     54 H12       -1.1133   11.1555    7.0058 H         1 RES1    0.0000
     55 C43        1.4684   11.1429    6.2283 C.3       1 RES1    0.0000
     56 H13        1.7913   11.4345    7.0835 H         1 RES1    0.0000
     57 H14        1.0346   11.8750    5.7831 H         1 RES1    0.0000
     58 H15        2.2084   10.8378    5.6947 H         1 RES1    0.0000
     59 C44       -0.1979    9.7499    5.0781 C.3       1 RES1    0.0000
     60 H16       -0.5947   10.5606    4.7530 H         1 RES1    0.0000
     61 H17       -0.8807    9.0846    5.1965 H         1 RES1    0.0000
     62 H18        0.4514    9.4339    4.4438 H         1 RES1    0.0000
     63 C45        5.2294    1.9960   10.4583 C.ar      1 RES1    0.0000
     64 C46        5.2889    1.5916   11.7817 C.ar      1 RES1    0.0000
     65 C47        5.9250    0.3945   12.1139 C.ar      1 RES1    0.0000
     66 C48        6.4872   -0.3963   11.1403 C.ar      1 RES1    0.0000
     67 C49        6.4356   -0.0072    9.8240 C.ar      1 RES1    0.0000
     68 C50        5.8145    1.1763    9.4847 C.ar      1 RES1    0.0000
     69 H19        9.4808    6.8520    5.9191 H         1 RES1    0.0000
     70 H20       10.5236    6.2562    8.0217 H         1 RES1    0.0000
     71 H21        7.1447    6.7166    5.6011 H         1 RES1    0.0000
     72 H22        9.2236    5.1819    9.6649 H         1 RES1    0.0000
     73 H23        0.6502    5.4166    9.2586 H         1 RES1    0.0000
     74 H24        2.7967    1.5708   11.1315 H         1 RES1    0.0000
     75 H25       -0.6394    3.8639   10.5307 H         1 RES1    0.0000
     76 H26        0.4960    1.9680   11.3788 H         1 RES1    0.0000
     77 H27        5.0926    8.2874    6.4669 H         1 RES1    0.0000
     78 H28        4.1780    8.9645    4.3996 H         1 RES1    0.0000
     79 H29        3.1829    7.3847    2.8800 H         1 RES1    0.0000
     80 H30        3.2110    5.0916    3.5161 H         1 RES1    0.0000
     81 H31        4.1492    4.4055    5.5834 H         1 RES1    0.0000
     82 H32        8.6589    2.5909    9.9830 H         1 RES1    0.0000
     83 H33        9.5832    1.9410   11.9796 H         1 RES1    0.0000
     84 H34        7.1066    4.4777   14.0115 H         1 RES1    0.0000
     85 H35        6.1851    5.1638   12.0326 H         1 RES1    0.0000
     86 H36        3.3789    7.8180    9.2409 H         1 RES1    0.0000
     87 H37        2.3852    9.7048    8.4104 H         1 RES1    0.0000
     88 H38        0.3448    7.3756    5.7424 H         1 RES1    0.0000
     89 H39        1.3296    5.4798    6.5905 H         1 RES1    0.0000
     90 H40        4.8923    2.1757   12.4743 H         1 RES1    0.0000
     91 H41        5.9431    0.1625   13.0044 H         1 RES1    0.0000
     92 H42        6.9552   -1.2639   11.4142 H         1 RES1    0.0000
     93 H43        6.7974   -0.6229    9.0819 H         1 RES1    0.0000
     94 H44        5.7305    1.4715    8.4811 H         1 RES1    0.0000
@<TRIPOS>BOND
     1    1    2 ar
     2    2    4 ar
     3    3    1 ar
     4    4    6 ar
     5    5    3 ar
     6    6    5 ar
     7    7    5 ar
     8    8    6 ar
     9    9    7 ar
    10   10    8 ar
    11   11    9 ar
    12   12   10 ar
    13   13   11 ar
    14   14   12 ar
    15   15   13 ar
    16   16   14 ar
    17   17   15 ar
    18   18   16 ar
    19   19    7 1
    20   20   19 ar
    21   21   20 ar
    22   22   21 ar
    23   23   22 ar
    24   24   19 ar
    25   25    8 1
    26   26   25 ar
    27   27   26 ar
    28   28   27 ar
    29   29   28 ar
    30   30   25 ar
    31   31   28 1
    32   32   31 1
    33   33   32 1
    34   34   32 1
    35   35   32 1
    36   36   31 1
    37   37   36 1
    38   38   36 1
    39   39   36 1
    40   40   31 1
    41   41   40 1
    42   42   40 1
    43   43   40 1
    44   44   11 1
    45   45   44 ar
    46   46   45 ar
    47   47   46 ar
    48   48   47 ar
    49   49   44 ar
    50   50   47 1
    51   51   50 1
    52   52   51 1
    53   53   51 1
    54   54   51 1
    55   55   50 1
    56   56   55 1
    57   57   55 1
    58   58   55 1
    59   59   50 1
    60   60   59 1
    61   61   59 1
    62   62   59 1
    63   63   12 1
    64   64   63 ar
    65   65   64 ar
    66   66   65 ar
    67   67   66 ar
    68   68   63 ar
    69   69    1 1
    70   70    2 1
    71   71    3 1
    72   72    4 1
    73   73   15 1
    74   74   16 1
    75   75   17 1
    76   76   18 1
    77   77   20 1
    78   78   21 1
    79   79   22 1
    80   80   23 1
    81   81   24 1
    82   82   26 1
    83   83   27 1
    84   84   29 1
    85   85   30 1
    86   86   45 1
    87   87   46 1
    88   88   48 1
    89   89   49 1
    90   90   64 1
    91   91   65 1
    92   92   66 1
    93   93   67 1
    94   94   68 1
    95    9   10 ar
    96   13   14 ar
    97   17   18 ar
    98   23   24 ar
    99   29   30 ar
   100   48   49 ar
   101   67   68 ar
@<TRIPOS>SUBSTRUCTURE
     1 RES1 1

@<TRIPOS>CRYSIN
  23.5270    9.0277   17.7640  90.0000  95.9280  90.0000  14 1

