# MOL2 file generated by ConQuest
# Please check atom types

@<TRIPOS>MOLECULE
PIFSUV
    48    53     1
SMALL
NO_CHARGES
****
Generated from CSD

@<TRIPOS>ATOM
      1 C1         8.7843    3.0337    2.7537 C.ar      1 RES1    0.0000
      2 C2         7.6914    2.4773    3.4708 C.ar      1 RES1    0.0000
      3 C3         7.4745    2.7771    4.7929 C.ar      1 RES1    0.0000
      4 C4         8.3316    3.6518    5.4797 C.ar      1 RES1    0.0000
      5 C5         9.3481    4.2688    4.7997 C.ar      1 RES1    0.0000
      6 C6         9.5772    3.9984    3.4283 C.ar      1 RES1    0.0000
      7 C7        10.5635    4.7300    2.7020 C.ar      1 RES1    0.0000
      8 C8        10.6698    4.5930    1.3594 C.ar      1 RES1    0.0000
      9 C9         9.8851    3.6312    0.6437 C.ar      1 RES1    0.0000
     10 C10        9.0648    2.7238    1.3592 C.ar      1 RES1    0.0000
     11 C11        9.9068    3.6266   -0.7953 C.ar      1 RES1    0.0000
     12 C12        9.0636    2.7826   -1.4449 C.ar      1 RES1    0.0000
     13 C13        8.3344    1.7678   -0.7643 C.ar      1 RES1    0.0000
     14 C14        8.4724    1.6092    0.6395 C.ar      1 RES1    0.0000
     15 C15        7.4944    0.8922   -1.5026 C.ar      1 RES1    0.0000
     16 C16        6.8405   -0.1507   -0.9247 C.ar      1 RES1    0.0000
     17 C17        7.1270   -0.4536    0.4523 C.ar      1 RES1    0.0000
     18 C18        8.0258    0.3467    1.2054 C.ar      1 RES1    0.0000
     19 C19        6.5114   -1.5947    1.0696 C.ar      1 RES1    0.0000
     20 C20        6.8096   -1.9617    2.3341 C.ar      1 RES1    0.0000
     21 C21        7.8511   -1.3057    3.0520 C.ar      1 RES1    0.0000
     22 C22        8.5200   -0.1981    2.4649 C.ar      1 RES1    0.0000
     23 C23        8.2676   -1.7967    4.3129 C.ar      1 RES1    0.0000
     24 C24        9.3611   -1.2739    4.9450 C.ar      1 RES1    0.0000
     25 C25       10.1070   -0.2627    4.3135 C.ar      1 RES1    0.0000
     26 C26        9.6950    0.2590    3.1092 C.ar      1 RES1    0.0000
     27 C27       10.7852    4.5870   -1.5516 C.3       1 RES1    0.0000
     28 C28        5.9314   -1.0324   -1.7399 C.3       1 RES1    0.0000
     29 H1         7.0628    1.8674    3.0028 H         1 RES1    0.0000
     30 H2         6.6939    2.3802    5.2555 H         1 RES1    0.0000
     31 H3         8.1783    3.8709    6.4370 H         1 RES1    0.0000
     32 H4         9.9632    4.9259    5.2434 H         1 RES1    0.0000
     33 H5        11.1519    5.4038    3.2014 H         1 RES1    0.0000
     34 H6        11.3210    5.1759    0.8605 H         1 RES1    0.0000
     35 H7         8.9862    2.8287   -2.4231 H         1 RES1    0.0000
     36 H8         7.4059    1.0697   -2.4693 H         1 RES1    0.0000
     37 H9         5.8514   -2.0972    0.5677 H         1 RES1    0.0000
     38 H10        6.3755   -2.7350    2.7461 H         1 RES1    0.0000
     39 H11        7.7214   -2.5457    4.6958 H         1 RES1    0.0000
     40 H12        9.6478   -1.5954    5.8151 H         1 RES1    0.0000
     41 H13       10.9472    0.0790    4.7219 H         1 RES1    0.0000
     42 H14       10.2480    0.9374    2.6679 H         1 RES1    0.0000
     43 H15       10.5724    5.5563   -1.3379 H         1 RES1    0.0000
     44 H16       11.7363    4.4388   -1.3018 H         1 RES1    0.0000
     45 H17       10.6673    4.4223   -2.5375 H         1 RES1    0.0000
     46 H18        5.8672   -0.7076   -2.6779 H         1 RES1    0.0000
     47 H19        6.2736   -1.9795   -1.7552 H         1 RES1    0.0000
     48 H20        4.9880   -1.0697   -1.3640 H         1 RES1    0.0000
@<TRIPOS>BOND
     1    1    2 ar
     2    2    3 ar
     3    3    4 ar
     4    4    5 ar
     5    5    6 ar
     6    6    1 ar
     7    7    6 ar
     8    8    7 ar
     9    9    8 ar
    10   10    1 ar
    11   11    9 ar
    12   12   11 ar
    13   13   12 ar
    14   14   10 ar
    15   15   13 ar
    16   16   15 ar
    17   17   16 ar
    18   18   14 ar
    19   19   17 ar
    20   20   19 ar
    21   21   20 ar
    22   22   18 ar
    23   23   21 ar
    24   24   23 ar
    25   25   24 ar
    26   26   22 ar
    27   27   11 1
    28   28   16 1
    29   29    2 1
    30   30    3 1
    31   31    4 1
    32   32    5 1
    33   33    7 1
    34   34    8 1
    35   35   12 1
    36   36   15 1
    37   37   19 1
    38   38   20 1
    39   39   23 1
    40   40   24 1
    41   41   25 1
    42   42   26 1
    43   43   27 1
    44   44   27 1
    45   45   27 1
    46   46   28 1
    47   47   28 1
    48   48   28 1
    49    9   10 ar
    50   13   14 ar
    51   17   18 ar
    52   21   22 ar
    53   25   26 ar
@<TRIPOS>SUBSTRUCTURE
     1 RES1 1

@<TRIPOS>CRYSIN
   9.8891   18.3802   20.0591  90.0000  90.0000  90.0000  61 1

