# MOL2 file generated by ConQuest
# Please check atom types

@<TRIPOS>MOLECULE
PIFTEG
    66    75     1
SMALL
NO_CHARGES
****
Generated from CSD

@<TRIPOS>ATOM
      1 C1         0.5060    2.3764   10.4037 C.ar      1 RES1    0.0000
      2 C2         1.9053    2.7868   10.2988 C.ar      1 RES1    0.0000
      3 C3         2.4733    3.3832    9.0891 C.ar      1 RES1    0.0000
      4 C4         1.7026    3.7378    7.9505 C.ar      1 RES1    0.0000
      5 C5         2.2776    4.3168    6.8442 C.ar      1 RES1    0.0000
      6 C6         3.6553    4.5319    6.7930 C.ar      1 RES1    0.0000
      7 C7         4.4183    4.2598    7.8788 C.ar      1 RES1    0.0000
      8 C8         3.8399    3.7227    9.0461 C.ar      1 RES1    0.0000
      9 C9         4.6239    3.5913   10.2307 C.ar      1 RES1    0.0000
     10 C10        4.0624    3.1926   11.3962 C.ar      1 RES1    0.0000
     11 C11        2.6921    2.7717   11.4627 C.ar      1 RES1    0.0000
     12 C12        2.1177    2.2915   12.7021 C.ar      1 RES1    0.0000
     13 C13        2.9365    2.0311   13.8403 C.ar      1 RES1    0.0000
     14 C14        2.4164    1.5242   14.9780 C.ar      1 RES1    0.0000
     15 C15        1.0570    1.1556   15.0609 C.ar      1 RES1    0.0000
     16 C16        0.5368    0.5127   16.2136 C.ar      1 RES1    0.0000
     17 C17       -0.7229    0.0105   16.2385 C.ar      1 RES1    0.0000
     18 C18       -1.5219    0.1174   15.0876 C.ar      1 RES1    0.0000
     19 C19       -1.0712    0.8010   13.9879 C.ar      1 RES1    0.0000
     20 C20        0.2133    1.3777   13.9503 C.ar      1 RES1    0.0000
     21 C21        0.7383    2.0927   12.8033 C.ar      1 RES1    0.0000
     22 C22       -0.0976    2.4438   11.6676 C.ar      1 RES1    0.0000
     23 C23       -1.4980    2.8612   11.7430 C.ar      1 RES1    0.0000
     24 C24       -2.0558    3.5413   12.9041 C.ar      1 RES1    0.0000
     25 C25       -1.2987    3.9529   14.0271 C.ar      1 RES1    0.0000
     26 C26       -1.8898    4.5424   15.1274 C.ar      1 RES1    0.0000
     27 C27       -3.2812    4.7505   15.1586 C.ar      1 RES1    0.0000
     28 C28       -4.0223    4.4586   14.0614 C.ar      1 RES1    0.0000
     29 C29       -3.4453    3.8738   12.9041 C.ar      1 RES1    0.0000
     30 C30       -4.1999    3.7018   11.7236 C.ar      1 RES1    0.0000
     31 C31       -3.6379    3.2088   10.5944 C.ar      1 RES1    0.0000
     32 C32       -2.2867    2.7473   10.5766 C.ar      1 RES1    0.0000
     33 C33       -1.7328    2.1288    9.3967 C.ar      1 RES1    0.0000
     34 C34       -2.5681    1.7184    8.3167 C.ar      1 RES1    0.0000
     35 C35       -2.0695    1.1091    7.2320 C.ar      1 RES1    0.0000
     36 C36       -0.6881    0.7557    7.1473 C.ar      1 RES1    0.0000
     37 C37       -0.1758    0.0186    6.0586 C.ar      1 RES1    0.0000
     38 C38        1.0986   -0.4337    6.0495 C.ar      1 RES1    0.0000
     39 C39        1.9443   -0.1860    7.1475 C.ar      1 RES1    0.0000
     40 C40        1.4911    0.5790    8.1939 C.ar      1 RES1    0.0000
     41 C41        0.1845    1.1115    8.2151 C.ar      1 RES1    0.0000
     42 C42       -0.3377    1.9253    9.3077 C.ar      1 RES1    0.0000
     43 H1         0.7073    3.6623    7.9644 H         1 RES1    0.0000
     44 H2         1.6347    4.5458    6.0139 H         1 RES1    0.0000
     45 H3         4.1193    4.8946    5.8837 H         1 RES1    0.0000
     46 H4         5.4789    4.4412    7.8325 H         1 RES1    0.0000
     47 H5         5.6438    3.8366   10.1467 H         1 RES1    0.0000
     48 H6         4.5978    3.1601   12.2795 H         1 RES1    0.0000
     49 H7         3.8664    2.2173   13.7970 H         1 RES1    0.0000
     50 H8         2.9805    1.3591   15.8005 H         1 RES1    0.0000
     51 H9         1.1418    0.3885   16.9904 H         1 RES1    0.0000
     52 H10       -1.1722   -0.3720   17.0770 H         1 RES1    0.0000
     53 H11       -2.3802   -0.1279   15.1283 H         1 RES1    0.0000
     54 H12       -1.7335    0.8487   13.1884 H         1 RES1    0.0000
     55 H13       -0.2845    3.8832   13.9747 H         1 RES1    0.0000
     56 H14       -1.3260    4.8714   15.8789 H         1 RES1    0.0000
     57 H15       -3.6905    5.1737   15.9360 H         1 RES1    0.0000
     58 H16       -5.1127    4.6156   14.0336 H         1 RES1    0.0000
     59 H17       -5.2079    3.9645   11.7425 H         1 RES1    0.0000
     60 H18       -4.2146    3.0461    9.7812 H         1 RES1    0.0000
     61 H19       -3.6855    1.7672    8.3870 H         1 RES1    0.0000
     62 H20       -2.6351    0.8138    6.4970 H         1 RES1    0.0000
     63 H21       -0.8604   -0.1511    5.2668 H         1 RES1    0.0000
     64 H22        1.4624   -0.9766    5.2240 H         1 RES1    0.0000
     65 H23        2.8983   -0.4883    7.2673 H         1 RES1    0.0000
     66 H24        2.0971    0.7092    9.0253 H         1 RES1    0.0000
@<TRIPOS>BOND
     1    1    2 ar
     2    2    3 ar
     3    3    4 ar
     4    4    5 ar
     5    5    6 ar
     6    6    7 ar
     7    7    8 ar
     8    8    3 ar
     9    9    8 ar
    10   10    9 ar
    11   11    2 ar
    12   12   11 ar
    13   13   12 ar
    14   14   13 ar
    15   15   14 ar
    16   16   15 ar
    17   17   16 ar
    18   18   17 ar
    19   19   18 ar
    20   20   15 ar
    21   21   12 ar
    22   22    1 ar
    23   23   22 ar
    24   24   23 ar
    25   25   24 ar
    26   26   25 ar
    27   27   26 ar
    28   28   27 ar
    29   29   24 ar
    30   30   29 ar
    31   31   30 ar
    32   32   23 ar
    33   33   32 ar
    34   34   33 ar
    35   35   34 ar
    36   36   35 ar
    37   37   36 ar
    38   38   37 ar
    39   39   38 ar
    40   40   39 ar
    41   41   36 ar
    42   42    1 ar
    43   43    4 1
    44   44    5 1
    45   45    6 1
    46   46    7 1
    47   47    9 1
    48   48   10 1
    49   49   13 1
    50   50   14 1
    51   51   16 1
    52   52   17 1
    53   53   18 1
    54   54   19 1
    55   55   25 1
    56   56   26 1
    57   57   27 1
    58   58   28 1
    59   59   30 1
    60   60   31 1
    61   61   34 1
    62   62   35 1
    63   63   37 1
    64   64   38 1
    65   65   39 1
    66   66   40 1
    67   10   11 ar
    68   19   20 ar
    69   20   21 ar
    70   21   22 ar
    71   28   29 ar
    72   31   32 ar
    73   33   42 ar
    74   40   41 ar
    75   41   42 ar
@<TRIPOS>SUBSTRUCTURE
     1 RES1 1

@<TRIPOS>CRYSIN
  12.6320   11.6262   18.4299  90.0000 104.6657  90.0000 231 1

