# MOL2 file generated by ConQuest
# Please check atom types

@<TRIPOS>MOLECULE
PIHZEO
    72    79     1
SMALL
NO_CHARGES
****
Generated from CSD

@<TRIPOS>ATOM
      1 C1         2.6949   11.1345    3.1211 C.ar      1 RES1    0.0000
      2 C2         4.2522   12.5721    4.3886 C.ar      1 RES1    0.0000
      3 C3         2.9280   11.9296    1.9660 C.ar      1 RES1    0.0000
      4 C4         6.7808   14.3926    3.2333 C.ar      1 RES1    0.0000
      5 C5         3.8263   13.0348    2.0293 C.ar      1 RES1    0.0000
      6 C6         4.4788   13.3498    3.2589 C.ar      1 RES1    0.0000
      7 C7         5.3879   14.5439    3.3360 C.ar      1 RES1    0.0000
      8 C8         2.2689   11.6189    0.7383 C.ar      1 RES1    0.0000
      9 C9         4.0435   13.7845    0.8466 C.ar      1 RES1    0.0000
     10 H1         4.6434   14.5202    0.8654 H         1 RES1    0.0000
     11 C10        4.8436   15.8198    3.5272 C.ar      1 RES1    0.0000
     12 C11        7.0664   16.7954    3.4921 C.ar      1 RES1    0.0000
     13 C12        1.1583    9.7313    1.7968 C.ar      1 RES1    0.0000
     14 H2         0.5648    8.9922    1.7323 H         1 RES1    0.0000
     15 C13        2.5143   12.3957   -0.3870 C.ar      1 RES1    0.0000
     16 H3         2.0720   12.1943   -1.2035 H         1 RES1    0.0000
     17 C14        7.5888   15.5251    3.3146 C.ar      1 RES1    0.0000
     18 H4         8.5306   15.4212    3.2456 H         1 RES1    0.0000
     19 C15        3.4031   13.4672   -0.3281 C.ar      1 RES1    0.0000
     20 H5         3.5685   13.9850   -1.1082 H         1 RES1    0.0000
     21 C16        5.6885   16.9211    3.6009 C.ar      1 RES1    0.0000
     22 H6         5.3120   17.7833    3.7297 H         1 RES1    0.0000
     23 C17        1.3797   10.4902    0.7089 C.ar      1 RES1    0.0000
     24 H7         0.9358   10.2748   -0.1028 H         1 RES1    0.0000
     25 C18        7.4181   13.0407    3.0662 C.3       1 RES1    0.0000
     26 H8         8.2829   13.1405    2.6156 H         1 RES1    0.0000
     27 H9         6.8331   12.4675    2.5269 H         1 RES1    0.0000
     28 H10        7.5540   12.6324    3.9464 H         1 RES1    0.0000
     29 C19        7.9631   18.0037    3.5473 C.3       1 RES1    0.0000
     30 H11        8.1972   18.2779    2.6364 H         1 RES1    0.0000
     31 H12        8.7799   17.7833    4.0418 H         1 RES1    0.0000
     32 H13        7.4960   18.7363    3.9993 H         1 RES1    0.0000
     33 C20        3.3548   16.0156    3.6716 C.3       1 RES1    0.0000
     34 H14        3.0277   15.4845    4.4283 H         1 RES1    0.0000
     35 H15        2.9056   15.7238    2.8502 H         1 RES1    0.0000
     36 H16        3.1638   16.9636    3.8303 H         1 RES1    0.0000
     37 C1B        3.3547   11.4475    4.3264 C.ar      1 RES1    0.0000
     38 C2B        1.7974   10.0099    3.0589 C.ar      1 RES1    0.0000
     39 C3B        3.1216   10.6524    5.4815 C.ar      1 RES1    0.0000
     40 C4B       -0.7312    8.1894    4.2143 C.ar      1 RES1    0.0000
     41 C5B        2.2233    9.5472    5.4182 C.ar      1 RES1    0.0000
     42 C6B        1.5708    9.2322    4.1886 C.ar      1 RES1    0.0000
     43 C7B        0.6617    8.0381    4.1116 C.ar      1 RES1    0.0000
     44 C8B        3.7807   10.9631    6.7093 C.ar      1 RES1    0.0000
     45 C9B        2.0061    8.7975    6.6009 C.ar      1 RES1    0.0000
     46 H1B        1.4062    8.0618    6.5821 H         1 RES1    0.0000
     47 C10B       1.2060    6.7622    3.9204 C.ar      1 RES1    0.0000
     48 C11B      -1.0168    5.7866    3.9554 C.ar      1 RES1    0.0000
     49 C12B       4.8913   12.8507    5.6507 C.ar      1 RES1    0.0000
     50 H2B        5.4848   13.5898    5.7152 H         1 RES1    0.0000
     51 C13B       3.5353   10.1863    7.8345 C.ar      1 RES1    0.0000
     52 H3B        3.9776   10.3877    8.6511 H         1 RES1    0.0000
     53 C14B      -1.5392    7.0569    4.1329 C.ar      1 RES1    0.0000
     54 H4B       -2.4810    7.1608    4.2019 H         1 RES1    0.0000
     55 C15B       2.6465    9.1148    7.7756 C.ar      1 RES1    0.0000
     56 H5B        2.4811    8.5970    8.5557 H         1 RES1    0.0000
     57 C16B       0.3611    5.6609    3.8467 C.ar      1 RES1    0.0000
     58 H6B        0.7376    4.7987    3.7178 H         1 RES1    0.0000
     59 C17B       4.6699   12.0918    6.7387 C.ar      1 RES1    0.0000
     60 H7B        5.1138   12.3072    7.5503 H         1 RES1    0.0000
     61 C18B      -1.3685    9.5413    4.3814 C.3       1 RES1    0.0000
     62 H8B       -2.2333    9.4415    4.8320 H         1 RES1    0.0000
     63 H9B       -0.7835   10.1145    4.9206 H         1 RES1    0.0000
     64 H10B      -1.5044    9.9496    3.5011 H         1 RES1    0.0000
     65 C19B      -1.9135    4.5783    3.9003 C.3       1 RES1    0.0000
     66 H11B      -2.1476    4.3041    4.8111 H         1 RES1    0.0000
     67 H12B      -2.7303    4.7987    3.4058 H         1 RES1    0.0000
     68 H13B      -1.4464    3.8457    3.4482 H         1 RES1    0.0000
     69 C20B       2.6948    6.5664    3.7759 C.3       1 RES1    0.0000
     70 H14B       3.0219    7.0975    3.0192 H         1 RES1    0.0000
     71 H15B       3.1440    6.8582    4.5974 H         1 RES1    0.0000
     72 H16B       2.8858    5.6184    3.6173 H         1 RES1    0.0000
@<TRIPOS>BOND
     1    1    3 ar
     2    2    6 ar
     3    3    5 ar
     4    4    7 ar
     5    5    6 ar
     6    6    7 1
     7    7   11 ar
     8    8    3 ar
     9    9    5 ar
    10   10    9 1
    11   11   21 ar
    12   12   17 ar
    13   13   14 1
    14   15    8 ar
    15   16   15 1
    16   17    4 ar
    17   18   17 1
    18   19    9 ar
    19   20   19 1
    20   21   12 ar
    21   22   21 1
    22   23    8 ar
    23   24   23 1
    24   25    4 1
    25   26   25 1
    26   27   25 1
    27   28   25 1
    28   29   12 1
    29   30   29 1
    30   31   29 1
    31   32   29 1
    32   33   11 1
    33   34   33 1
    34   35   33 1
    35   36   33 1
    36   37    1 ar
    37   38    1 ar
    38   39   37 ar
    39   40   43 ar
    40   41   39 ar
    41   42   38 ar
    42   43   42 1
    43   44   39 ar
    44   45   41 ar
    45   46   45 1
    46   47   43 ar
    47   48   53 ar
    48   49    2 ar
    49   50   49 1
    50   51   44 ar
    51   52   51 1
    52   53   40 ar
    53   54   53 1
    54   55   45 ar
    55   56   55 1
    56   57   47 ar
    57   58   57 1
    58   59   44 ar
    59   60   59 1
    60   61   40 1
    61   62   61 1
    62   63   61 1
    63   64   61 1
    64   65   48 1
    65   66   65 1
    66   67   65 1
    67   68   65 1
    68   69   47 1
    69   70   69 1
    70   71   69 1
    71   72   69 1
    72    2   37 ar
    73   13   23 ar
    74   13   38 ar
    75   15   19 ar
    76   41   42 ar
    77   48   57 ar
    78   49   59 ar
    79   51   55 ar
@<TRIPOS>SUBSTRUCTURE
     1 RES1 1

@<TRIPOS>CRYSIN
   8.0764   22.5820    7.7184  90.0000 105.2240  90.0000  14 1

