# MOL2 file generated by ConQuest
# Please check atom types

@<TRIPOS>MOLECULE
PIRBOH
    76    83     1
SMALL
NO_CHARGES
****
Generated from CSD

@<TRIPOS>ATOM
      1 C1         4.5850   -0.8493   -0.1788 C.ar      1 RES1    0.0000
      2 C2         4.4688   -2.2468    0.1681 C.ar      1 RES1    0.0000
      3 C3         5.6269   -2.8148    0.7139 C.ar      1 RES1    0.0000
      4 C4         6.7439   -2.0952    0.9328 C.ar      1 RES1    0.0000
      5 C5         6.8530   -0.7196    0.5498 C.ar      1 RES1    0.0000
      6 C6         5.7426   -0.1263    0.0160 C.ar      1 RES1    0.0000
      7 C7         3.2365   -2.8346   -0.1201 C.ar      1 RES1    0.0000
      8 C8         2.2066   -2.1062   -0.6232 C.ar      1 RES1    0.0000
      9 C9         2.3185   -0.7295   -0.9528 C.ar      1 RES1    0.0000
     10 C10        3.5146   -0.1132   -0.7300 C.ar      1 RES1    0.0000
     11 C11        4.0202    1.2843   -1.0542 C.3       1 RES1    0.0000
     12 C12        5.5418    1.2975   -0.5805 C.3       1 RES1    0.0000
     13 C13        5.9513    2.3929    0.3550 C.2       1 RES1    0.0000
     14 C14        5.0274    3.1741    0.9234 C.2       1 RES1    0.0000
     15 C15        3.5800    3.1620    0.4831 C.2       1 RES1    0.0000
     16 C16        3.1521    2.3951   -0.5124 C.2       1 RES1    0.0000
     17 C17        2.9106    4.2804    1.2237 C.ar      1 RES1    0.0000
     18 C18        1.6142    4.7605    1.2717 C.ar      1 RES1    0.0000
     19 C19        1.3398    5.8570    2.1165 C.ar      1 RES1    0.0000
     20 C20        2.3087    6.4591    2.8958 C.ar      1 RES1    0.0000
     21 C21        3.6289    5.9790    2.9025 C.ar      1 RES1    0.0000
     22 C22        3.8943    4.8715    2.0377 C.ar      1 RES1    0.0000
     23 C23        5.1671    4.2749    1.8936 C.ar      1 RES1    0.0000
     24 C24        6.2026    4.7902    2.6462 C.ar      1 RES1    0.0000
     25 C25        5.9521    5.8636    3.5350 C.ar      1 RES1    0.0000
     26 C26        4.7358    6.4448    3.6658 C.ar      1 RES1    0.0000
     27 C27        7.4319    2.6456    0.4657 C.3       1 RES1    0.0000
     28 C28        7.8134    3.8981   -0.3576 C.3       1 RES1    0.0000
     29 C29        7.5122    3.7201   -1.8629 C.3       1 RES1    0.0000
     30 C30        7.9073    4.9242   -2.7250 C.3       1 RES1    0.0000
     31 C31        7.2258    6.2404   -2.3580 C.3       1 RES1    0.0000
     32 C32        5.7032    6.1745   -2.3540 C.3       1 RES1    0.0000
     33 C33        5.0981    5.8713   -3.7325 C.3       1 RES1    0.0000
     34 C34        3.5644    6.0383   -3.7578 C.3       1 RES1    0.0000
     35 C35        2.7648    5.0462   -2.8958 C.3       1 RES1    0.0000
     36 C36        2.9791    3.6058   -3.3081 C.3       1 RES1    0.0000
     37 C37        1.9473    2.6302   -2.7690 C.3       1 RES1    0.0000
     38 C38        1.8271    2.6159   -1.2410 C.3       1 RES1    0.0000
     39 H1         5.4694   -3.7135    1.0409 H         1 RES1    0.0000
     40 H2         7.6214   -2.4830    1.3345 H         1 RES1    0.0000
     41 H3         7.9339   -0.3076    0.4938 H         1 RES1    0.0000
     42 H4         2.9907   -3.6366    0.4537 H         1 RES1    0.0000
     43 H5         1.3909   -2.6148   -0.8541 H         1 RES1    0.0000
     44 H6         1.3756   -0.2527   -1.3211 H         1 RES1    0.0000
     45 H7         0.8384    3.8893    0.7740 H         1 RES1    0.0000
     46 H8         0.2112    6.1196    2.3086 H         1 RES1    0.0000
     47 H9         1.9869    7.2732    3.5230 H         1 RES1    0.0000
     48 H10        7.2069    4.4606    2.4154 H         1 RES1    0.0000
     49 H11        6.6916    6.2734    4.2436 H         1 RES1    0.0000
     50 H12        4.5883    7.0535    4.5772 H         1 RES1    0.0000
     51 H13        7.4626    3.0104    1.4813 H         1 RES1    0.0000
     52 H14        8.2407    1.8568    0.0267 H         1 RES1    0.0000
     53 H15        7.1802    4.5375    0.0400 H         1 RES1    0.0000
     54 H16        8.9506    3.9772   -0.4671 H         1 RES1    0.0000
     55 H17        6.3868    3.5817   -1.9350 H         1 RES1    0.0000
     56 H18        8.4200    3.1202   -2.0684 H         1 RES1    0.0000
     57 H19        7.8443    4.6144   -3.6431 H         1 RES1    0.0000
     58 H20        8.8988    4.9220   -2.6689 H         1 RES1    0.0000
     59 H21        7.7420    6.9106   -3.0959 H         1 RES1    0.0000
     60 H22        7.3730    6.6250   -1.1743 H         1 RES1    0.0000
     61 H23        5.3683    7.0095   -2.0417 H         1 RES1    0.0000
     62 H24        5.4312    5.4824   -1.7615 H         1 RES1    0.0000
     63 H25        5.3786    4.9660   -3.9100 H         1 RES1    0.0000
     64 H26        5.4131    6.6250   -4.4171 H         1 RES1    0.0000
     65 H27        3.6150    5.8120   -4.4438 H         1 RES1    0.0000
     66 H28        3.1578    6.8557   -3.4963 H         1 RES1    0.0000
     67 H29        2.8300    5.0868   -1.6414 H         1 RES1    0.0000
     68 H30        1.8939    5.3945   -3.0559 H         1 RES1    0.0000
     69 H31        2.9061    3.6586   -4.3103 H         1 RES1    0.0000
     70 H32        4.0726    3.2740   -3.0426 H         1 RES1    0.0000
     71 H33        0.9174    2.7467   -2.9758 H         1 RES1    0.0000
     72 H34        2.3258    1.8787   -3.2161 H         1 RES1    0.0000
     73 H35        1.6050    3.5377   -1.1076 H         1 RES1    0.0000
     74 H36        1.4259    2.1094   -0.8007 H         1 RES1    0.0000
     75 H37        4.1585    1.2745   -2.2152 H         1 RES1    0.0000
     76 H38        6.0145    1.3184   -1.2811 H         1 RES1    0.0000
@<TRIPOS>BOND
     1    1    2 ar
     2    2    3 ar
     3    3    4 ar
     4    4    5 ar
     5    5    6 ar
     6    6    1 ar
     7    7    2 ar
     8    8    7 ar
     9    9    8 ar
    10   10    1 ar
    11   11   10 1
    12   12    6 1
    13   13   12 1
    14   14   13 2
    15   15   14 1
    16   16   11 1
    17   17   15 1
    18   18   17 ar
    19   19   18 ar
    20   20   19 ar
    21   21   20 ar
    22   22   17 ar
    23   23   14 1
    24   24   23 ar
    25   25   24 ar
    26   26   21 ar
    27   27   13 1
    28   28   27 1
    29   29   28 1
    30   30   29 1
    31   31   30 1
    32   32   31 1
    33   33   32 1
    34   34   33 1
    35   35   34 1
    36   36   35 1
    37   37   36 1
    38   38   16 1
    39   39    3 1
    40   40    4 1
    41   41    5 1
    42   42    7 1
    43   43    8 1
    44   44    9 1
    45   45   18 1
    46   46   19 1
    47   47   20 1
    48   48   24 1
    49   49   25 1
    50   50   26 1
    51   51   27 1
    52   52   27 1
    53   53   28 1
    54   54   28 1
    55   55   29 1
    56   56   29 1
    57   57   30 1
    58   58   30 1
    59   59   31 1
    60   60   31 1
    61   61   32 1
    62   62   32 1
    63   63   33 1
    64   64   33 1
    65   65   34 1
    66   66   34 1
    67   67   35 1
    68   68   35 1
    69   69   36 1
    70   70   36 1
    71   71   37 1
    72   72   37 1
    73   73   38 1
    74   74   38 1
    75   75   11 1
    76   76   12 1
    77    9   10 ar
    78   11   12 1
    79   15   16 2
    80   21   22 ar
    81   22   23 ar
    82   25   26 ar
    83   37   38 1
@<TRIPOS>SUBSTRUCTURE
     1 RES1 1

@<TRIPOS>CRYSIN
  17.8960   10.9867   14.1400  90.0000 109.3090  90.0000  14 1

