# MOL2 file generated by ConQuest
# Please check atom types

@<TRIPOS>MOLECULE
PIRBUN
    74    81     1
SMALL
NO_CHARGES
****
Generated from CSD

@<TRIPOS>ATOM
      1 C1         3.8614    6.8855    3.5866 C.ar      1 RES1    0.0000
      2 C2         4.0974    5.5960    4.0774 C.ar      1 RES1    0.0000
      3 C3         4.8796    7.8150    3.2707 C.ar      1 RES1    0.0000
      4 C4         2.5730    7.3976    3.3074 C.ar      1 RES1    0.0000
      5 C5         2.7868    8.7405    2.7277 C.ar      1 RES1    0.0000
      6 C6         4.1809    8.9914    2.6826 C.ar      1 RES1    0.0000
      7 C7         4.6829   10.1842    2.1494 C.ar      1 RES1    0.0000
      8 C8         3.7548   11.0357    1.5401 C.ar      1 RES1    0.0000
      9 C9         2.3530   10.7806    1.5937 C.ar      1 RES1    0.0000
     10 C10        1.8457    9.6783    2.2820 C.ar      1 RES1    0.0000
     11 C11        1.6599   11.8809    0.8773 C.ar      1 RES1    0.0000
     12 C12        2.4360   13.9601   -0.2510 C.ar      1 RES1    0.0000
     13 C13        2.6721   12.7797    0.4584 C.ar      1 RES1    0.0000
     14 C14        3.9625   12.3210    0.8293 C.ar      1 RES1    0.0000
     15 C15        5.4499    5.2525    4.3073 C.ar      1 RES1    0.0000
     16 H1         5.6660    4.3949    4.6500 H         1 RES1    0.0000
     17 C16        6.4381    6.1554    4.0506 C.ar      1 RES1    0.0000
     18 H2         7.3333    5.8962    4.2312 H         1 RES1    0.0000
     19 C17        6.1723    7.4346    3.5217 C.ar      1 RES1    0.0000
     20 H3         6.8847    8.0413    3.3525 H         1 RES1    0.0000
     21 C18        2.9541    4.7795    4.2791 C.ar      1 RES1    0.0000
     22 H4         3.0592    3.8849    4.5809 H         1 RES1    0.0000
     23 C19        1.7058    5.2669    4.0337 C.ar      1 RES1    0.0000
     24 H5         0.9636    4.7014    4.2128 H         1 RES1    0.0000
     25 C20        1.4933    6.5770    3.5485 C.ar      1 RES1    0.0000
     26 H6         0.6149    6.9060    3.3948 H         1 RES1    0.0000
     27 C21        0.3636   12.1812    0.5148 C.ar      1 RES1    0.0000
     28 H7        -0.3242   11.5580    0.7179 H         1 RES1    0.0000
     29 C22        0.1033   13.3617   -0.2200 C.ar      1 RES1    0.0000
     30 H8        -0.7963   13.5591   -0.4513 H         1 RES1    0.0000
     31 C23        1.0869   14.2316   -0.5712 C.ar      1 RES1    0.0000
     32 H9         0.8777   15.0152   -1.0648 H         1 RES1    0.0000
     33 C24        5.0366   13.0964    0.4640 C.ar      1 RES1    0.0000
     34 H10        5.9180   12.8043    0.6615 H         1 RES1    0.0000
     35 C25        4.8260   14.3098   -0.2285 C.ar      1 RES1    0.0000
     36 H11        5.5685   14.8733   -0.4118 H         1 RES1    0.0000
     37 C26        3.5776   14.7437   -0.5656 C.ar      1 RES1    0.0000
     38 H12        3.4725   15.5293   -1.0874 H         1 RES1    0.0000
     39 C27        6.1189   10.5997    2.2947 C.3       1 RES1    0.0000
     40 H13        6.4025   10.9040    1.4414 H         1 RES1    0.0000
     41 H14        6.6656    9.8716    2.5697 H         1 RES1    0.0000
     42 C28        6.2761   11.7575    3.2933 C.3       1 RES1    0.0000
     43 H15        5.8552   12.5287    2.9308 H         1 RES1    0.0000
     44 H16        7.2019   11.9344    3.4202 H         1 RES1    0.0000
     45 C29        5.7052   11.4902    4.6853 C.3       1 RES1    0.0000
     46 H17        6.1766   10.7786    5.1056 H         1 RES1    0.0000
     47 H18        4.7950   11.2413    4.5725 H         1 RES1    0.0000
     48 C30        5.7639   12.7138    5.5668 C.3       1 RES1    0.0000
     49 H19        5.3086   13.4172    5.1197 H         1 RES1    0.0000
     50 H20        6.6791   12.9442    5.6698 H         1 RES1    0.0000
     51 C31        5.1334   12.5637    6.9447 C.3       1 RES1    0.0000
     52 H21        5.2248   13.3905    7.4031 H         1 RES1    0.0000
     53 H22        5.6161   11.8891    7.4074 H         1 RES1    0.0000
     54 C32        3.6479   12.1997    6.9574 C.3       1 RES1    0.0000
     55 H23        3.3533   12.1318    7.8587 H         1 RES1    0.0000
     56 H24        3.5530   11.3585    6.5273 H         1 RES1    0.0000
     57 C33        2.7405   13.1889    6.2452 C.3       1 RES1    0.0000
     58 H25        2.9297   13.1437    5.3158 H         1 RES1    0.0000
     59 H26        2.9540   14.0547    6.5710 H         1 RES1    0.0000
     60 C34        1.2564   12.9545    6.4709 C.3       1 RES1    0.0000
     61 H27        0.7913   13.5899    5.9406 H         1 RES1    0.0000
     62 H28        1.0633   13.1066    7.3890 H         1 RES1    0.0000
     63 C35        0.7238   11.5807    6.0943 C.3       1 RES1    0.0000
     64 H29       -0.1985   11.5395    6.3185 H         1 RES1    0.0000
     65 H30        1.1993   10.9246    6.5879 H         1 RES1    0.0000
     66 C36        0.8795   11.2475    4.6218 C.3       1 RES1    0.0000
     67 H31        1.8041   11.2454    4.4061 H         1 RES1    0.0000
     68 H32        0.4397   11.9303    4.1282 H         1 RES1    0.0000
     69 C37        0.3056    9.8963    4.2326 C.3       1 RES1    0.0000
     70 H33       -0.6131    9.8881    4.4737 H         1 RES1    0.0000
     71 H34        0.7630    9.2115    4.7065 H         1 RES1    0.0000
     72 C38        0.4112    9.6043    2.7249 C.3       1 RES1    0.0000
     73 H35        0.0459    8.7467    2.5401 H         1 RES1    0.0000
     74 H36       -0.0900   10.2665    2.2651 H         1 RES1    0.0000
@<TRIPOS>BOND
     1    1    2 ar
     2    2   15 ar
     3    3    1 ar
     4    4    1 ar
     5    5    4 1
     6    6    3 1
     7    7    6 ar
     8    8    7 ar
     9    9    8 ar
    10   10    5 ar
    11   11    9 1
    12   12   13 ar
    13   13   11 ar
    14   14    8 1
    15   15   16 1
    16   17   15 ar
    17   18   17 1
    18   19    3 ar
    19   20   19 1
    20   21    2 ar
    21   22   21 1
    22   23   21 ar
    23   24   23 1
    24   25    4 ar
    25   26   25 1
    26   27   11 ar
    27   28   27 1
    28   29   27 ar
    29   30   29 1
    30   31   12 ar
    31   32   31 1
    32   33   14 ar
    33   34   33 1
    34   35   33 ar
    35   36   35 1
    36   37   12 ar
    37   38   37 1
    38   39    7 1
    39   40   39 1
    40   41   39 1
    41   42   39 1
    42   43   42 1
    43   44   42 1
    44   45   42 1
    45   46   45 1
    46   47   45 1
    47   48   45 1
    48   49   48 1
    49   50   48 1
    50   51   48 1
    51   52   51 1
    52   53   51 1
    53   54   51 1
    54   55   54 1
    55   56   54 1
    56   57   54 1
    57   58   57 1
    58   59   57 1
    59   60   57 1
    60   61   60 1
    61   62   60 1
    62   63   60 1
    63   64   63 1
    64   65   63 1
    65   66   63 1
    66   67   66 1
    67   68   66 1
    68   69   66 1
    69   70   69 1
    70   71   69 1
    71   72   10 1
    72   73   72 1
    73   74   72 1
    74    5    6 ar
    75    9   10 ar
    76   13   14 ar
    77   17   19 ar
    78   23   25 ar
    79   29   31 ar
    80   35   37 ar
    81   69   72 1
@<TRIPOS>SUBSTRUCTURE
     1 RES1 1

@<TRIPOS>CRYSIN
   9.1481   20.5659   14.1275  90.0000  93.3140  90.0000 231 1

