# MOL2 file generated by ConQuest
# Please check atom types

@<TRIPOS>MOLECULE
PIVCAZ
    54    58     1
SMALL
NO_CHARGES
****
Generated from CSD

@<TRIPOS>ATOM
      1 C1         9.0903    0.2842   15.5439 C.ar      1 RES1    0.0000
      2 C2         7.9007    0.9870   15.7392 C.ar      1 RES1    0.0000
      3 C3         7.4412    1.9853   14.8260 C.ar      1 RES1    0.0000
      4 C4         6.2962    2.7148   15.0147 C.ar      1 RES1    0.0000
      5 C5         5.8699    3.7274   14.0948 C.ar      1 RES1    0.0000
      6 C6         4.7570    4.4604   14.3369 C.ar      1 RES1    0.0000
      7 C7         3.9606    4.2012   15.4955 C.ar      1 RES1    0.0000
      8 C8         4.3204    3.2586   16.3753 C.ar      1 RES1    0.0000
      9 C9         5.4916    2.4853   16.1866 C.ar      1 RES1    0.0000
     10 C10        5.8847    1.5100   17.0831 C.ar      1 RES1    0.0000
     11 C11        9.4841   -0.7304   16.4671 C.ar      1 RES1    0.0000
     12 C12        9.9789    0.5367   14.3369 C.3       1 RES1    0.0000
     13 C13        9.6212   -0.3164   13.1232 C.3       1 RES1    0.0000
     14 C14       10.5196   -0.0486   11.9246 C.3       1 RES1    0.0000
     15 H1         8.0112    2.1111   14.0197 H         1 RES1    0.0000
     16 H2         6.4242    3.9206   13.3052 H         1 RES1    0.0000
     17 H3         4.4902    5.1116   13.7159 H         1 RES1    0.0000
     18 H4         3.1028    4.7385   15.5923 H         1 RES1    0.0000
     19 H5         3.8482    2.9954   17.2133 H         1 RES1    0.0000
     20 H6         5.3055    1.2932   17.9512 H         1 RES1    0.0000
     21 H7         9.8381    1.4721   14.0598 H         1 RES1    0.0000
     22 H8        10.9737    0.3731   14.5072 H         1 RES1    0.0000
     23 H9         8.5097   -0.1738   12.7543 H         1 RES1    0.0000
     24 H10        9.6687   -1.1910   13.4421 H         1 RES1    0.0000
     25 H11       10.4434    0.9610   11.5523 H         1 RES1    0.0000
     26 H12       11.4425   -0.1278   12.1199 H         1 RES1    0.0000
     27 H13       10.3225   -0.7310   11.1016 H         1 RES1    0.0000
     28 C1B        7.4595   -0.2842   17.8443 C.ar      1 RES1    0.0000
     29 C2B        8.6491   -0.9870   17.6490 C.ar      1 RES1    0.0000
     30 C3B        9.1086   -1.9853   18.5622 C.ar      1 RES1    0.0000
     31 C4B       10.2536   -2.7148   18.3735 C.ar      1 RES1    0.0000
     32 C5B       10.6799   -3.7274   19.2934 C.ar      1 RES1    0.0000
     33 C6B       11.7928   -4.4604   19.0513 C.ar      1 RES1    0.0000
     34 C7B       12.5892   -4.2012   17.8928 C.ar      1 RES1    0.0000
     35 C8B       12.2294   -3.2586   17.0130 C.ar      1 RES1    0.0000
     36 C9B       11.0582   -2.4853   17.2016 C.ar      1 RES1    0.0000
     37 C10B      10.6651   -1.5100   16.3051 C.ar      1 RES1    0.0000
     38 C11B       7.0657    0.7304   16.9212 C.ar      1 RES1    0.0000
     39 C12B       6.5709   -0.5367   19.0513 C.3       1 RES1    0.0000
     40 C13B       6.9287    0.3164   20.2650 C.3       1 RES1    0.0000
     41 C14B       6.0302    0.0486   21.4636 C.3       1 RES1    0.0000
     42 H1B        8.5386   -2.1111   19.3685 H         1 RES1    0.0000
     43 H2B       10.1256   -3.9206   20.0830 H         1 RES1    0.0000
     44 H3B       12.0596   -5.1116   19.6723 H         1 RES1    0.0000
     45 H4B       13.4470   -4.7385   17.7959 H         1 RES1    0.0000
     46 H5B       12.7016   -2.9954   16.1749 H         1 RES1    0.0000
     47 H6B       11.2443   -1.2932   15.4371 H         1 RES1    0.0000
     48 H7B        6.7117   -1.4721   19.3284 H         1 RES1    0.0000
     49 H8B        5.5761   -0.3731   18.8810 H         1 RES1    0.0000
     50 H9B        8.0401    0.1738   20.6339 H         1 RES1    0.0000
     51 H10B       6.8811    1.1910   19.9461 H         1 RES1    0.0000
     52 H11B       6.1065   -0.9610   21.8359 H         1 RES1    0.0000
     53 H12B       5.1073    0.1278   21.2683 H         1 RES1    0.0000
     54 H13B       6.2273    0.7310   22.2866 H         1 RES1    0.0000
@<TRIPOS>BOND
     1    1    2 ar
     2    2    3 ar
     3    3    4 ar
     4    4    5 ar
     5    5    6 ar
     6    6    7 ar
     7    7    8 ar
     8    8    9 ar
     9    9    4 ar
    10   10    9 ar
    11   11    1 ar
    12   12    1 1
    13   13   12 1
    14   14   13 1
    15   15    3 1
    16   16    5 1
    17   17    6 1
    18   18    7 1
    19   19    8 1
    20   20   10 1
    21   21   12 1
    22   22   12 1
    23   23   13 1
    24   24   13 1
    25   25   14 1
    26   26   14 1
    27   27   14 1
    28   28   29 ar
    29   29   11 ar
    30   30   29 ar
    31   31   30 ar
    32   32   31 ar
    33   33   32 ar
    34   34   33 ar
    35   35   34 ar
    36   36   31 ar
    37   37   11 ar
    38   38    2 ar
    39   39   28 1
    40   40   39 1
    41   41   40 1
    42   42   30 1
    43   43   32 1
    44   44   33 1
    45   45   34 1
    46   46   35 1
    47   47   37 1
    48   48   39 1
    49   49   39 1
    50   50   40 1
    51   51   40 1
    52   52   41 1
    53   53   41 1
    54   54   41 1
    55   10   38 ar
    56   28   38 ar
    57   35   36 ar
    58   36   37 ar
@<TRIPOS>SUBSTRUCTURE
     1 RES1 1

@<TRIPOS>CRYSIN
  11.3940    5.1116   16.9830  90.0000 100.5830  90.0000 231 1

