# MOL2 file generated by ConQuest
# Please check atom types

@<TRIPOS>MOLECULE
PIYQET
   126   141     3
SMALL
NO_CHARGES
****
Generated from CSD

@<TRIPOS>ATOM
      1 C1        -0.7933   13.7805   10.0205 C.3       1 RES1    0.0000
      2 C2         1.0959    9.8367   10.5106 C.ar      1 RES1    0.0000
      3 C3         2.8414   18.1424    9.0209 C.ar      1 RES1    0.0000
      4 C4        -0.0476   12.5940   10.5701 C.3       1 RES1    0.0000
      5 C5         1.5925    8.5828   10.4759 C.ar      1 RES1    0.0000
      6 C6         2.4145   19.4085    9.2923 C.ar      1 RES1    0.0000
      7 C7         1.6600   10.9099    9.7547 C.ar      1 RES1    0.0000
      8 C8         2.7042    8.2858    9.6674 C.ar      1 RES1    0.0000
      9 C9         1.1539   19.6718    9.7284 C.ar      1 RES1    0.0000
     10 C10        2.7904   10.6022    8.9766 C.ar      1 RES1    0.0000
     11 C11        3.2874    9.2748    8.9157 C.ar      1 RES1    0.0000
     12 C12        0.2131   18.6675    9.8903 C.ar      1 RES1    0.0000
     13 C13        3.4193   11.6769    8.2553 C.ar      1 RES1    0.0000
     14 C14        3.6538   14.0974    7.5811 C.3       1 RES1    0.0000
     15 C15        3.6867   15.3422    8.4298 C.3       1 RES1    0.0000
     16 C16        1.9290   17.0615    9.2023 C.ar      1 RES1    0.0000
     17 C17        0.6227   17.3233    9.6536 C.ar      1 RES1    0.0000
     18 C18       -0.2780   16.2363    9.9125 C.ar      1 RES1    0.0000
     19 C19        0.1276   14.9303    9.7284 C.ar      1 RES1    0.0000
     20 C20        1.1712   12.2541    9.7893 C.ar      1 RES1    0.0000
     21 C21        3.0009   12.9614    8.3162 C.ar      1 RES1    0.0000
     22 C22        2.3120   15.6958    8.9351 C.ar      1 RES1    0.0000
     23 C23        1.4263   14.6716    9.2341 C.ar      1 RES1    0.0000
     24 C24        1.8477   13.2462    9.1040 C.ar      1 RES1    0.0000
     25 H1        -1.4669   14.0377   10.5909 H         1 RES1    0.0000
     26 H2        -1.2200   13.6626    9.2120 H         1 RES1    0.0000
     27 H3         0.1433   10.0342   10.9909 H         1 RES1    0.0000
     28 H4         3.8356   17.9586    8.7482 H         1 RES1    0.0000
     29 H5         0.2280   12.6660   11.5018 H         1 RES1    0.0000
     30 H6        -0.6996   11.7596   10.5479 H         1 RES1    0.0000
     31 H7         1.1816    7.7407   10.9591 H         1 RES1    0.0000
     32 H8         3.1683   20.0561    9.1912 H         1 RES1    0.0000
     33 H9         3.1170    7.3258    9.5650 H         1 RES1    0.0000
     34 H10        0.8113   20.5353   10.0122 H         1 RES1    0.0000
     35 H11        4.1984    9.1416    8.3772 H         1 RES1    0.0000
     36 H12       -0.5998   18.9216   10.3901 H         1 RES1    0.0000
     37 H13        4.3145   11.3891    7.6420 H         1 RES1    0.0000
     38 H14        4.5935   13.7989    7.4191 H         1 RES1    0.0000
     39 H15        3.1439   14.1908    6.6729 H         1 RES1    0.0000
     40 H16        4.0111   16.3006    7.8885 H         1 RES1    0.0000
     41 H17        4.2781   15.1370    9.2064 H         1 RES1    0.0000
     42 H18       -1.2524   16.4383   10.2323 H         1 RES1    0.0000
     43 C25       -1.0423    8.4037    7.1063 C.3       2 RES2    0.0000
     44 C26        0.1574    4.2761    6.2798 C.ar      2 RES2    0.0000
     45 C27        1.3461   12.5006    3.8182 C.ar      2 RES2    0.0000
     46 C28       -0.2009    7.1498    7.0841 C.3       2 RES2    0.0000
     47 C29        0.3341    2.9824    5.9281 C.ar      2 RES2    0.0000
     48 C30        1.2615   13.7943    4.2322 C.ar      2 RES2    0.0000
     49 C31        0.3309    5.3263    5.3314 C.ar      2 RES2    0.0000
     50 C32        0.7544    2.6257    4.6309 C.ar      2 RES2    0.0000
     51 C33        0.5926   14.1265    5.4020 C.ar      2 RES2    0.0000
     52 C34        0.7220    4.9834    4.0259 C.ar      2 RES2    0.0000
     53 C35        0.9504    3.6254    3.6992 C.ar      2 RES2    0.0000
     54 C36        0.0259   13.2141    6.1552 C.ar      2 RES2    0.0000
     55 C37        0.8540    6.0122    3.0444 C.ar      2 RES2    0.0000
     56 C38        0.7025    8.4006    2.3397 C.3       2 RES2    0.0000
     57 C39        1.3640    9.6606    2.9059 C.3       2 RES2    0.0000
     58 C40        0.7274   11.4657    4.5811 C.ar      2 RES2    0.0000
     59 C41        0.1019   11.8193    5.7938 C.ar      2 RES2    0.0000
     60 C42       -0.5060   10.8257    6.6079 C.ar      2 RES2    0.0000
     61 C43       -0.4112    9.4983    6.2562 C.ar      2 RES2    0.0000
     62 C44        0.1224    6.7211    5.6844 C.ar      2 RES2    0.0000
     63 C45        0.6372    7.3013    3.3697 C.ar      2 RES2    0.0000
     64 C46        0.7472   10.0770    4.2031 C.ar      2 RES2    0.0000
     65 C47        0.2041    9.1079    5.0352 C.ar      2 RES2    0.0000
     66 C48        0.2899    7.6795    4.7043 C.ar      2 RES2    0.0000
     67 H19       -1.1784    8.7956    8.0449 H         2 RES2    0.0000
     68 H20       -0.1641    4.4981    7.1852 H         2 RES2    0.0000
     69 H21       -1.9049    8.2720    6.8197 H         2 RES2    0.0000
     70 H22        1.8162   12.3674    2.9530 H         2 RES2    0.0000
     71 H23       -0.6402    6.3950    7.6102 H         2 RES2    0.0000
     72 H24        0.2838    2.2368    6.5608 H         2 RES2    0.0000
     73 H25        0.5973    7.2447    7.6143 H         2 RES2    0.0000
     74 H26        1.6772   14.3792    3.6729 H         2 RES2    0.0000
     75 H27        0.8361    1.6979    4.3776 H         2 RES2    0.0000
     76 H28        0.5940   15.1584    5.6928 H         2 RES2    0.0000
     77 H29        1.1887    3.3682    2.7855 H         2 RES2    0.0000
     78 H30       -0.3869   13.3580    7.0620 H         2 RES2    0.0000
     79 H31        1.2274    5.7872    2.1002 H         2 RES2    0.0000
     80 H32        1.1718    8.0806    1.5270 H         2 RES2    0.0000
     81 H33       -0.1991    8.6287    2.0268 H         2 RES2    0.0000
     82 H34        1.2339   10.4062    2.2677 H         2 RES2    0.0000
     83 H35        2.3268    9.4111    3.0167 H         2 RES2    0.0000
     84 H36       -0.9172   11.0967    7.5340 H         2 RES2    0.0000
     85 C49        2.1210    0.5466   12.9195 C.3       3 RES3    0.0000
     86 C50        3.6915   -3.5366   12.8502 C.ar      3 RES3    0.0000
     87 C51        5.9248    4.6007   14.2430 C.ar      3 RES3    0.0000
     88 C52        2.8329   -0.7349   12.4778 C.3       3 RES3    0.0000
     89 C53        4.1042   -4.8395   13.0025 C.ar      3 RES3    0.0000
     90 C54        5.7152    5.8974   13.8249 C.ar      3 RES3    0.0000
     91 C55        4.2376   -2.5108   13.6449 C.ar      3 RES3    0.0000
     92 C56        5.0408   -5.1840   13.9688 C.ar      3 RES3    0.0000
     93 C57        4.5475    6.2235   13.1285 C.ar      3 RES3    0.0000
     94 C58        5.2188   -2.8676   14.6085 C.ar      3 RES3    0.0000
     95 C59        5.5783   -4.2133   14.7580 C.ar      3 RES3    0.0000
     96 C60        3.6028    5.2911   12.8544 C.ar      3 RES3    0.0000
     97 C61        5.7952   -1.8418   15.4156 C.ar      3 RES3    0.0000
     98 C62        6.0462    0.5848   16.0552 C.3       3 RES3    0.0000
     99 C63        6.3509    1.8081   15.2038 C.3       3 RES3    0.0000
    100 C64        4.9626    3.5994   13.9799 C.ar      3 RES3    0.0000
    101 C65        3.8076    3.9362   13.2614 C.ar      3 RES3    0.0000
    102 C66        2.8480    2.9472   12.9347 C.ar      3 RES3    0.0000
    103 C67        3.0743    1.6565   13.2656 C.ar      3 RES3    0.0000
    104 C68        3.8662   -1.1375   13.5148 C.ar      3 RES3    0.0000
    105 C69        5.4470   -0.5358   15.2453 C.ar      3 RES3    0.0000
    106 C70        5.1554    2.2215   14.4022 C.ar      3 RES3    0.0000
    107 C71        4.2350    1.2738   14.0090 C.ar      3 RES3    0.0000
    108 C72        4.4830   -0.1608   14.2720 C.ar      3 RES3    0.0000
    109 H37        1.5210    0.4118   13.7044 H         3 RES3    0.0000
    110 H38        3.0045   -3.2993   12.1622 H         3 RES3    0.0000
    111 H39        1.5406    0.8421   12.1982 H         3 RES3    0.0000
    112 H40        6.7604    4.3572   14.8133 H         3 RES3    0.0000
    113 H41        3.2484   -0.6645   11.6153 H         3 RES3    0.0000
    114 H42        2.2126   -1.4820   12.3421 H         3 RES3    0.0000
    115 H43        3.6735   -5.5499   12.3588 H         3 RES3    0.0000
    116 H44        6.4141    6.6216   14.0021 H         3 RES3    0.0000
    117 H45        5.3011   -6.2051   14.1114 H         3 RES3    0.0000
    118 H46        4.3795    7.1942   12.8516 H         3 RES3    0.0000
    119 H47        6.2657   -4.4414   15.4239 H         3 RES3    0.0000
    120 H48        2.8003    5.5101   12.3781 H         3 RES3    0.0000
    121 H49        6.4048   -2.0623   16.0912 H         3 RES3    0.0000
    122 H50        5.4364    0.8221   16.7848 H         3 RES3    0.0000
    123 H51        6.9180    0.3552   16.4954 H         3 RES3    0.0000
    124 H52        7.1143    1.6060   14.6168 H         3 RES3    0.0000
    125 H53        6.7104    2.5981   15.8489 H         3 RES3    0.0000
    126 H54        2.0416    3.2182   12.3934 H         3 RES3    0.0000
@<TRIPOS>BOND
     1    1    4 1
     2    2    5 ar
     3    3    6 ar
     4    4   20 1
     5    5    8 ar
     6    6    9 ar
     7    7    2 ar
     8    8   11 ar
     9    9   12 ar
    10   10    7 ar
    11   11   10 ar
    12   12   17 ar
    13   13   10 ar
    14   14   15 1
    15   15   22 1
    16   16    3 ar
    17   17   16 ar
    18   18   17 ar
    19   19    1 1
    20   20    7 ar
    21   21   13 ar
    22   22   16 ar
    23   23   19 ar
    24   24   20 ar
    25   25    1 1
    26   26    1 1
    27   27    2 1
    28   28    3 1
    29   29    4 1
    30   30    4 1
    31   31    5 1
    32   32    6 1
    33   33    8 1
    34   34    9 1
    35   35   11 1
    36   36   12 1
    37   37   13 1
    38   38   14 1
    39   39   14 1
    40   40   15 1
    41   41   15 1
    42   42   18 1
    43   43   46 1
    44   44   47 ar
    45   45   48 ar
    46   46   62 1
    47   47   50 ar
    48   48   51 ar
    49   49   44 ar
    50   50   53 ar
    51   51   54 ar
    52   52   49 ar
    53   53   52 ar
    54   54   59 ar
    55   55   52 ar
    56   56   57 1
    57   57   64 1
    58   58   45 ar
    59   59   58 ar
    60   60   59 ar
    61   61   43 1
    62   62   49 ar
    63   63   55 ar
    64   64   58 ar
    65   65   61 ar
    66   66   62 ar
    67   67   43 1
    68   68   44 1
    69   69   43 1
    70   70   45 1
    71   71   46 1
    72   72   47 1
    73   73   46 1
    74   74   48 1
    75   75   50 1
    76   76   51 1
    77   77   53 1
    78   78   54 1
    79   79   55 1
    80   80   56 1
    81   81   56 1
    82   82   57 1
    83   83   57 1
    84   84   60 1
    85   85   88 1
    86   86   89 ar
    87   87   90 ar
    88   88  104 1
    89   89   92 ar
    90   90   93 ar
    91   91   86 ar
    92   92   95 ar
    93   93   96 ar
    94   94   91 ar
    95   95   94 ar
    96   96  101 ar
    97   97   94 ar
    98   98   99 1
    99   99  106 1
   100  100   87 ar
   101  101  100 ar
   102  102  101 ar
   103  103   85 1
   104  104   91 ar
   105  105   97 ar
   106  106  100 ar
   107  107  103 ar
   108  108  104 ar
   109  109   85 1
   110  110   86 1
   111  111   85 1
   112  112   87 1
   113  113   88 1
   114  114   88 1
   115  115   89 1
   116  116   90 1
   117  117   92 1
   118  118   93 1
   119  119   95 1
   120  120   96 1
   121  121   97 1
   122  122   98 1
   123  123   98 1
   124  124   99 1
   125  125   99 1
   126  126  102 1
   127   14   21 1
   128   18   19 ar
   129   21   24 ar
   130   22   23 ar
   131   23   24 1
   132   56   63 1
   133   60   61 ar
   134   63   66 ar
   135   64   65 ar
   136   65   66 1
   137   98  105 1
   138  102  103 ar
   139  105  108 ar
   140  106  107 ar
   141  107  108 1
@<TRIPOS>SUBSTRUCTURE
     1 RES1 1
     2 RES2 43
     3 RES3 85

@<TRIPOS>CRYSIN
  11.2290   15.3100   14.3380  90.0000 105.0800  90.0000   4 1

