# MOL2 file generated by ConQuest
# Please check atom types

@<TRIPOS>MOLECULE
PLEIDN14
    24    26     1
SMALL
NO_CHARGES
****
Generated from CSD

@<TRIPOS>ATOM
      1 C1         1.2522    6.8293    9.5056 C.ar      1 RES1    0.0000
      2 C2         0.9516    5.7313    8.6094 C.ar      1 RES1    0.0000
      3 C3         1.9102    4.7627    8.3596 C.ar      1 RES1    0.0000
      4 C4         3.1900    4.7900    8.9383 C.ar      1 RES1    0.0000
      5 C5         3.5181    5.8168    9.7693 C.ar      1 RES1    0.0000
      6 C6         2.5989    6.8460   10.0649 C.ar      1 RES1    0.0000
      7 C7         2.9905    7.8924   10.9514 C.ar      1 RES1    0.0000
      8 C8         2.1261    8.8681   11.3242 C.ar      1 RES1    0.0000
      9 C9         0.8119    8.8571   10.8078 C.ar      1 RES1    0.0000
     10 C10        0.3651    7.8869    9.9228 C.ar      1 RES1    0.0000
     11 C11       -1.0399    8.0656    9.5122 C.2       1 RES1    0.0000
     12 C12       -1.8112    7.3767    8.6698 C.2       1 RES1    0.0000
     13 C13       -1.4666    6.1889    7.9070 C.2       1 RES1    0.0000
     14 C14       -0.3184    5.5187    7.8929 C.2       1 RES1    0.0000
     15 H1         1.6931    4.0503    7.7723 H         1 RES1    0.0000
     16 H2         3.8168    4.1022    8.7526 H         1 RES1    0.0000
     17 H3         4.3832    5.8409   10.1578 H         1 RES1    0.0000
     18 H4         3.8774    7.9058   11.2881 H         1 RES1    0.0000
     19 H5         2.4005    9.5495   11.9243 H         1 RES1    0.0000
     20 H6         0.2106    9.5401   11.0766 H         1 RES1    0.0000
     21 H7        -1.4738    8.8037    9.9209 H         1 RES1    0.0000
     22 H8        -2.6947    7.7030    8.5543 H         1 RES1    0.0000
     23 H9        -2.1504    5.8471    7.3456 H         1 RES1    0.0000
     24 H10       -0.3159    4.7656    7.3160 H         1 RES1    0.0000
@<TRIPOS>BOND
     1    1    2 ar
     2    2    3 ar
     3    3    4 ar
     4    4    5 ar
     5    5    6 ar
     6    6    1 ar
     7    7    6 ar
     8    8    7 ar
     9    9    8 ar
    10   10    1 ar
    11   11   10 1
    12   12   11 2
    13   13   12 1
    14   14    2 1
    15   15    3 1
    16   16    4 1
    17   17    5 1
    18   18    7 1
    19   19    8 1
    20   20    9 1
    21   21   11 1
    22   22   12 1
    23   23   13 1
    24   24   14 1
    25    9   10 ar
    26   13   14 2
@<TRIPOS>SUBSTRUCTURE
     1 RES1 1

@<TRIPOS>CRYSIN
   8.2100   10.6910   11.0340  90.0000 104.7500  90.0000  14 1

