# MOL2 file generated by ConQuest
# Please check atom types

@<TRIPOS>MOLECULE
POBPIG
    96   112     2
SMALL
NO_CHARGES
****
Generated from CSD

@<TRIPOS>ATOM
      1 C1        -3.1162    8.1342    9.4674 C.ar      1 RES1    0.0000
      2 C2        -3.6648    8.6918   10.6122 C.ar      1 RES1    0.0000
      3 C3        -4.9466    8.3621   11.1153 C.ar      1 RES1    0.0000
      4 C4        -5.1957    9.2929   12.2269 C.ar      1 RES1    0.0000
      5 C5        -4.0386   10.1096   12.3882 C.ar      1 RES1    0.0000
      6 C6        -3.0476    9.7156   11.3709 C.ar      1 RES1    0.0000
      7 C7        -1.7909   10.1294   10.9977 C.ar      1 RES1    0.0000
      8 C8        -1.2002    9.5700    9.8411 C.ar      1 RES1    0.0000
      9 C9        -1.8357    8.6144    9.0500 C.ar      1 RES1    0.0000
     10 C10       -1.3002    8.0970    7.7952 C.ar      1 RES1    0.0000
     11 C11       -2.0939    7.1423    7.0797 C.ar      1 RES1    0.0000
     12 C12       -1.6060    6.6862    5.8609 C.ar      1 RES1    0.0000
     13 C13       -0.3645    7.0862    5.3102 C.ar      1 RES1    0.0000
     14 C14       -0.2345    6.3680    4.0310 C.ar      1 RES1    0.0000
     15 C15       -1.4052    5.5702    3.8496 C.ar      1 RES1    0.0000
     16 C16       -2.2847    5.7713    5.0204 C.ar      1 RES1    0.0000
     17 C17       -3.5182    5.3152    5.4272 C.ar      1 RES1    0.0000
     18 C18       -4.0408    5.7552    6.6689 C.ar      1 RES1    0.0000
     19 C19       -3.3635    6.6384    7.5083 C.ar      1 RES1    0.0000
     20 C20       -3.8879    7.1430    8.7770 C.ar      1 RES1    0.0000
     21 C21       -5.1150    6.7654    9.3247 C.ar      1 RES1    0.0000
     22 C22       -5.6601    7.3705   10.4830 C.ar      1 RES1    0.0000
     23 C23       -1.5535    4.8000    2.7014 C.ar      1 RES1    0.0000
     24 C24       -0.5340    4.8242    1.7490 C.ar      1 RES1    0.0000
     25 C25        0.6151    5.5894    1.9374 C.ar      1 RES1    0.0000
     26 C26        0.7718    6.3698    3.0813 C.ar      1 RES1    0.0000
     27 C27        0.3956    7.9967    6.0046 C.ar      1 RES1    0.0000
     28 C28       -0.0856    8.4982    7.2295 C.ar      1 RES1    0.0000
     29 C29       -4.0283   11.1318   13.3251 C.ar      1 RES1    0.0000
     30 C30       -5.1784   11.3497   14.0895 C.ar      1 RES1    0.0000
     31 C31       -6.3084   10.5579   13.9313 C.ar      1 RES1    0.0000
     32 C32       -6.3293    9.5198   13.0009 C.ar      1 RES1    0.0000
     33 C33        1.0444    0.4373    5.7111 C.ar      2 RES2    0.0000
     34 C34        1.4671   -0.2745    4.5987 C.ar      2 RES2    0.0000
     35 C35        1.4925   -1.6866    4.5226 C.ar      2 RES2    0.0000
     36 C36        1.9925   -2.0194    3.1769 C.ar      2 RES2    0.0000
     37 C37        2.2868   -0.7940    2.5036 C.ar      2 RES2    0.0000
     38 C38        1.9430    0.3219    3.4076 C.ar      2 RES2    0.0000
     39 C39        1.9751    1.6982    3.3419 C.ar      2 RES2    0.0000
     40 C40        1.5262    2.4509    4.4543 C.ar      2 RES2    0.0000
     41 C41        1.0623    1.8645    5.6330 C.ar      2 RES2    0.0000
     42 C42        0.5949    2.6103    6.8022 C.ar      2 RES2    0.0000
     43 C43        0.2085    1.8582    7.9553 C.ar      2 RES2    0.0000
     44 C44       -0.2107    2.5708    9.0742 C.ar      2 RES2    0.0000
     45 C45       -0.2930    3.9781    9.1296 C.ar      2 RES2    0.0000
     46 C46       -0.8172    4.3014   10.4636 C.ar      2 RES2    0.0000
     47 C47       -1.0310    3.0766   11.1662 C.ar      2 RES2    0.0000
     48 C48       -0.6325    1.9681   10.2828 C.ar      2 RES2    0.0000
     49 C49       -0.6036    0.5928   10.3750 C.ar      2 RES2    0.0000
     50 C50       -0.1767   -0.1545    9.2545 C.ar      2 RES2    0.0000
     51 C51        0.2093    0.4282    8.0448 C.ar      2 RES2    0.0000
     52 C52        0.6258   -0.3201    6.8590 C.ar      2 RES2    0.0000
     53 C53        0.6632   -1.7110    6.7803 C.ar      2 RES2    0.0000
     54 C54        1.0858   -2.4055    5.6221 C.ar      2 RES2    0.0000
     55 C55       -1.5745    3.0919   12.4421 C.ar      2 RES2    0.0000
     56 C56       -1.8973    4.3185   13.0221 C.ar      2 RES2    0.0000
     57 C57       -1.6801    5.5116   12.3414 C.ar      2 RES2    0.0000
     58 C58       -1.1408    5.5161   11.0562 C.ar      2 RES2    0.0000
     59 C59        0.0735    4.6990    8.0090 C.ar      2 RES2    0.0000
     60 C60        0.5056    4.0042    6.8622 C.ar      2 RES2    0.0000
     61 C61        2.7877   -0.8223    1.2031 C.ar      2 RES2    0.0000
     62 C62        2.9751   -2.0593    0.5823 C.ar      2 RES2    0.0000
     63 C63        2.6835   -3.2437    1.2444 C.ar      2 RES2    0.0000
     64 C64        2.1946   -3.2408    2.5513 C.ar      2 RES2    0.0000
     65 H1        -1.3025   10.8403   11.5246 H         1 RES1    0.0000
     66 H2        -0.2785    9.8880    9.5522 H         1 RES1    0.0000
     67 H3        -4.0502    4.6514    4.8682 H         1 RES1    0.0000
     68 H4        -4.9188    5.3524    6.9547 H         1 RES1    0.0000
     69 H5        -5.6284    6.0171    8.8914 H         1 RES1    0.0000
     70 H6        -6.5723    7.0679   10.8367 H         1 RES1    0.0000
     71 H7        -2.3763    4.2312    2.5433 H         1 RES1    0.0000
     72 H8        -0.6294    4.2716    0.9120 H         1 RES1    0.0000
     73 H9         1.3540    5.6069    1.2245 H         1 RES1    0.0000
     74 H10        1.6177    6.9390    3.1798 H         1 RES1    0.0000
     75 H11        1.2752    8.3588    5.6488 H         1 RES1    0.0000
     76 H12        0.4448    9.1801    7.7268 H         1 RES1    0.0000
     77 H13       -3.1934   11.7220   13.4656 H         1 RES1    0.0000
     78 H14       -5.1796   12.0580   14.7914 H         1 RES1    0.0000
     79 H15       -7.1269   10.7331   14.4903 H         1 RES1    0.0000
     80 H16       -7.1457    8.9198   12.8747 H         1 RES1    0.0000
     81 H17        2.2960    2.1808    2.5575 H         2 RES2    0.0000
     82 H18        1.5441    3.4473    4.3744 H         2 RES2    0.0000
     83 H19       -0.9034    0.1347   11.2292 H         2 RES2    0.0000
     84 H20       -0.1910   -1.1659    9.3381 H         2 RES2    0.0000
     85 H21        0.3798   -2.2828    7.5713 H         2 RES2    0.0000
     86 H22        1.0629   -3.4158    5.6217 H         2 RES2    0.0000
     87 H23       -1.6842    2.2498   12.9432 H         2 RES2    0.0000
     88 H24       -2.2794    4.3352   13.9494 H         2 RES2    0.0000
     89 H25       -1.8948    6.3903   12.7762 H         2 RES2    0.0000
     90 H26       -0.9740    6.3870   10.5541 H         2 RES2    0.0000
     91 H27        0.0660    5.7262    7.9852 H         2 RES2    0.0000
     92 H28        0.7874    4.5627    6.0570 H         2 RES2    0.0000
     93 H29        2.9971    0.0223    0.7635 H         2 RES2    0.0000
     94 H30        3.3530   -2.0501   -0.3925 H         2 RES2    0.0000
     95 H31        2.8444   -4.1118    0.7892 H         2 RES2    0.0000
     96 H32        1.9687   -4.1011    3.0471 H         2 RES2    0.0000
@<TRIPOS>BOND
     1    1    2 ar
     2    2    3 ar
     3    3    4 ar
     4    4    5 ar
     5    5    6 ar
     6    6    2 ar
     7    7    6 ar
     8    8    7 ar
     9    9    1 ar
    10   10    9 ar
    11   11   10 ar
    12   12   11 ar
    13   13   12 ar
    14   14   13 ar
    15   15   14 ar
    16   16   12 ar
    17   17   16 ar
    18   18   17 ar
    19   19   11 ar
    20   20    1 ar
    21   21   20 ar
    22   22    3 ar
    23   23   15 ar
    24   24   23 ar
    25   25   24 ar
    26   26   14 ar
    27   27   13 ar
    28   28   10 ar
    29   29    5 ar
    30   30   29 ar
    31   31   30 ar
    32   32    4 ar
    33   33   34 ar
    34   34   35 ar
    35   35   36 ar
    36   36   37 ar
    37   37   38 ar
    38   38   34 ar
    39   39   38 ar
    40   40   39 ar
    41   41   33 ar
    42   42   41 ar
    43   43   42 ar
    44   44   43 ar
    45   45   44 ar
    46   46   45 ar
    47   47   46 ar
    48   48   44 ar
    49   49   48 ar
    50   50   49 ar
    51   51   43 ar
    52   52   33 ar
    53   53   52 ar
    54   54   35 ar
    55   55   47 ar
    56   56   55 ar
    57   57   56 ar
    58   58   46 ar
    59   59   45 ar
    60   60   42 ar
    61   61   37 ar
    62   62   61 ar
    63   63   62 ar
    64   64   36 ar
    65   65    7 1
    66   66    8 1
    67   67   17 1
    68   68   18 1
    69   69   21 1
    70   70   22 1
    71   71   23 1
    72   72   24 1
    73   73   25 1
    74   74   26 1
    75   75   27 1
    76   76   28 1
    77   77   29 1
    78   78   30 1
    79   79   31 1
    80   80   32 1
    81   81   39 1
    82   82   40 1
    83   83   49 1
    84   84   50 1
    85   85   53 1
    86   86   54 1
    87   87   55 1
    88   88   56 1
    89   89   57 1
    90   90   58 1
    91   91   59 1
    92   92   60 1
    93   93   61 1
    94   94   62 1
    95   95   63 1
    96   96   64 1
    97    8    9 ar
    98   15   16 ar
    99   18   19 ar
   100   19   20 ar
   101   21   22 ar
   102   25   26 ar
   103   27   28 ar
   104   31   32 ar
   105   40   41 ar
   106   47   48 ar
   107   50   51 ar
   108   51   52 ar
   109   53   54 ar
   110   57   58 ar
   111   59   60 ar
   112   63   64 ar
@<TRIPOS>SUBSTRUCTURE
     1 RES1 1
     2 RES2 33

@<TRIPOS>CRYSIN
  11.4616   12.8653   14.7649  97.6960  98.2630 114.3760   2 1

