# MOL2 file generated by ConQuest
# Please check atom types

@<TRIPOS>MOLECULE
POBPIG01
    96   112     2
SMALL
NO_CHARGES
****
Generated from CSD

@<TRIPOS>ATOM
      1 C1        -3.1141    8.1328    9.4470 C.ar      1 RES1    0.0000
      2 C2        -3.6598    8.6927   10.5889 C.ar      1 RES1    0.0000
      3 C3        -4.9393    8.3658   11.0917 C.ar      1 RES1    0.0000
      4 C4        -5.1870    9.2902   12.2029 C.ar      1 RES1    0.0000
      5 C5        -4.0299   10.1049   12.3662 C.ar      1 RES1    0.0000
      6 C6        -3.0451    9.7062   11.3495 C.ar      1 RES1    0.0000
      7 C7        -1.7924   10.1209   10.9744 C.ar      1 RES1    0.0000
      8 C8        -1.2011    9.5630    9.8223 C.ar      1 RES1    0.0000
      9 C9        -1.8350    8.6126    9.0373 C.ar      1 RES1    0.0000
     10 C10       -1.2987    8.0937    7.7858 C.ar      1 RES1    0.0000
     11 C11       -2.0918    7.1418    7.0702 C.ar      1 RES1    0.0000
     12 C12       -1.6054    6.6823    5.8551 C.ar      1 RES1    0.0000
     13 C13       -0.3604    7.0816    5.3089 C.ar      1 RES1    0.0000
     14 C14       -0.2333    6.3601    4.0385 C.ar      1 RES1    0.0000
     15 C15       -1.4055    5.5664    3.8542 C.ar      1 RES1    0.0000
     16 C16       -2.2854    5.7700    5.0198 C.ar      1 RES1    0.0000
     17 C17       -3.5129    5.3198    5.4274 C.ar      1 RES1    0.0000
     18 C18       -4.0398    5.7605    6.6586 C.ar      1 RES1    0.0000
     19 C19       -3.3652    6.6440    7.4970 C.ar      1 RES1    0.0000
     20 C20       -3.8895    7.1512    8.7571 C.ar      1 RES1    0.0000
     21 C21       -5.1173    6.7823    9.2993 C.ar      1 RES1    0.0000
     22 C22       -5.6511    7.3843   10.4528 C.ar      1 RES1    0.0000
     23 C23       -1.5493    4.7957    2.7157 C.ar      1 RES1    0.0000
     24 C24       -0.5301    4.8109    1.7671 C.ar      1 RES1    0.0000
     25 C25        0.6138    5.5759    1.9591 C.ar      1 RES1    0.0000
     26 C26        0.7707    6.3580    3.0920 C.ar      1 RES1    0.0000
     27 C27        0.3922    7.9862    5.9980 C.ar      1 RES1    0.0000
     28 C28       -0.0882    8.4865    7.2225 C.ar      1 RES1    0.0000
     29 C29       -4.0153   11.1179   13.3073 C.ar      1 RES1    0.0000
     30 C30       -5.1581   11.3342   14.0727 C.ar      1 RES1    0.0000
     31 C31       -6.2880   10.5482   13.9080 C.ar      1 RES1    0.0000
     32 C32       -6.3120    9.5188   12.9763 C.ar      1 RES1    0.0000
     33 C33        1.0620    0.4241    5.7095 C.ar      2 RES2    0.0000
     34 C34        1.4876   -0.2902    4.5988 C.ar      2 RES2    0.0000
     35 C35        1.5135   -1.6977    4.5215 C.ar      2 RES2    0.0000
     36 C36        2.0113   -2.0317    3.1832 C.ar      2 RES2    0.0000
     37 C37        2.2966   -0.8074    2.5083 C.ar      2 RES2    0.0000
     38 C38        1.9552    0.3058    3.4117 C.ar      2 RES2    0.0000
     39 C39        1.9868    1.6771    3.3541 C.ar      2 RES2    0.0000
     40 C40        1.5409    2.4253    4.4602 C.ar      2 RES2    0.0000
     41 C41        1.0786    1.8457    5.6351 C.ar      2 RES2    0.0000
     42 C42        0.6112    2.5943    6.7973 C.ar      2 RES2    0.0000
     43 C43        0.2270    1.8380    7.9460 C.ar      2 RES2    0.0000
     44 C44       -0.1937    2.5485    9.0610 C.ar      2 RES2    0.0000
     45 C45       -0.2808    3.9539    9.1183 C.ar      2 RES2    0.0000
     46 C46       -0.8046    4.2760   10.4495 C.ar      2 RES2    0.0000
     47 C47       -1.0150    3.0514   11.1482 C.ar      2 RES2    0.0000
     48 C48       -0.6119    1.9471   10.2650 C.ar      2 RES2    0.0000
     49 C49       -0.5803    0.5785   10.3474 C.ar      2 RES2    0.0000
     50 C50       -0.1540   -0.1697    9.2350 C.ar      2 RES2    0.0000
     51 C51        0.2317    0.4095    8.0353 C.ar      2 RES2    0.0000
     52 C52        0.6479   -0.3366    6.8519 C.ar      2 RES2    0.0000
     53 C53        0.6897   -1.7210    6.7661 C.ar      2 RES2    0.0000
     54 C54        1.1090   -2.4109    5.6143 C.ar      2 RES2    0.0000
     55 C55       -1.5506    3.0743   12.4159 C.ar      2 RES2    0.0000
     56 C56       -1.8788    4.2905   12.9946 C.ar      2 RES2    0.0000
     57 C57       -1.6665    5.4818   12.3166 C.ar      2 RES2    0.0000
     58 C58       -1.1293    5.4832   11.0361 C.ar      2 RES2    0.0000
     59 C59        0.0847    4.6679    8.0069 C.ar      2 RES2    0.0000
     60 C60        0.5201    3.9764    6.8606 C.ar      2 RES2    0.0000
     61 C61        2.7967   -0.8350    1.2189 C.ar      2 RES2    0.0000
     62 C62        2.9913   -2.0727    0.6008 C.ar      2 RES2    0.0000
     63 C63        2.7034   -3.2552    1.2597 C.ar      2 RES2    0.0000
     64 C64        2.2168   -3.2475    2.5550 C.ar      2 RES2    0.0000
     65 H1        -1.3236   10.7944   11.4845 H         1 RES1    0.0000
     66 H2        -0.3211    9.8674    9.5645 H         1 RES1    0.0000
     67 H3        -4.0250    4.6976    4.8900 H         1 RES1    0.0000
     68 H4        -4.9310    5.4294    6.9270 H         1 RES1    0.0000
     69 H5        -5.6430    6.0894    8.8384 H         1 RES1    0.0000
     70 H6        -6.5396    7.1357   10.7770 H         1 RES1    0.0000
     71 H7        -2.3443    4.2478    2.5891 H         1 RES1    0.0000
     72 H8        -0.6143    4.2707    0.9671 H         1 RES1    0.0000
     73 H9         1.2867    5.5676    1.2795 H         1 RES1    0.0000
     74 H10        1.5852    6.8686    3.2352 H         1 RES1    0.0000
     75 H11        1.2732    8.2911    5.6688 H         1 RES1    0.0000
     76 H12        0.4508    9.1411    7.7187 H         1 RES1    0.0000
     77 H13       -3.2052   11.6681   13.4388 H         1 RES1    0.0000
     78 H14       -5.1314   12.0164   14.7497 H         1 RES1    0.0000
     79 H15       -7.0854   10.7237   14.4345 H         1 RES1    0.0000
     80 H16       -7.1232    8.9928   12.8368 H         1 RES1    0.0000
     81 H17        2.2872    2.1337    2.5691 H         2 RES2    0.0000
     82 H18        1.5385    3.4109    4.3893 H         2 RES2    0.0000
     83 H19       -0.8400    0.1205   11.1593 H         2 RES2    0.0000
     84 H20       -0.1293   -1.1494    9.3120 H         2 RES2    0.0000
     85 H21        0.4331   -2.2603    7.5575 H         2 RES2    0.0000
     86 H22        1.1199   -3.3949    5.6146 H         2 RES2    0.0000
     87 H23       -1.6812    2.2484   12.8896 H         2 RES2    0.0000
     88 H24       -2.2040    4.2924   13.9095 H         2 RES2    0.0000
     89 H25       -1.9018    6.3281   12.7199 H         2 RES2    0.0000
     90 H26       -1.0090    6.3425   10.5345 H         2 RES2    0.0000
     91 H27        0.0278    5.6585    7.9768 H         2 RES2    0.0000
     92 H28        0.7574    4.5241    6.0696 H         2 RES2    0.0000
     93 H29        3.0016   -0.0162    0.7689 H         2 RES2    0.0000
     94 H30        3.2856   -2.0615   -0.3352 H         2 RES2    0.0000
     95 H31        2.8622   -4.0972    0.8231 H         2 RES2    0.0000
     96 H32        2.0434   -4.0870    3.0455 H         2 RES2    0.0000
@<TRIPOS>BOND
     1    1    2 ar
     2    2    3 ar
     3    3    4 ar
     4    4    5 ar
     5    5    6 ar
     6    6    2 ar
     7    7    6 ar
     8    8    7 ar
     9    9    1 ar
    10   10    9 ar
    11   11   10 ar
    12   12   11 ar
    13   13   12 ar
    14   14   13 ar
    15   15   14 ar
    16   16   12 ar
    17   17   16 ar
    18   18   17 ar
    19   19   11 ar
    20   20    1 ar
    21   21   20 ar
    22   22    3 ar
    23   23   15 ar
    24   24   23 ar
    25   25   24 ar
    26   26   14 ar
    27   27   13 ar
    28   28   10 ar
    29   29    5 ar
    30   30   29 ar
    31   31   30 ar
    32   32    4 ar
    33   33   34 ar
    34   34   35 ar
    35   35   36 ar
    36   36   37 ar
    37   37   38 ar
    38   38   34 ar
    39   39   38 ar
    40   40   39 ar
    41   41   33 ar
    42   42   41 ar
    43   43   42 ar
    44   44   43 ar
    45   45   44 ar
    46   46   45 ar
    47   47   46 ar
    48   48   44 ar
    49   49   48 ar
    50   50   49 ar
    51   51   43 ar
    52   52   33 ar
    53   53   52 ar
    54   54   35 ar
    55   55   47 ar
    56   56   55 ar
    57   57   56 ar
    58   58   46 ar
    59   59   45 ar
    60   60   42 ar
    61   61   37 ar
    62   62   61 ar
    63   63   62 ar
    64   64   36 ar
    65   65    7 1
    66   66    8 1
    67   67   17 1
    68   68   18 1
    69   69   21 1
    70   70   22 1
    71   71   23 1
    72   72   24 1
    73   73   25 1
    74   74   26 1
    75   75   27 1
    76   76   28 1
    77   77   29 1
    78   78   30 1
    79   79   31 1
    80   80   32 1
    81   81   39 1
    82   82   40 1
    83   83   49 1
    84   84   50 1
    85   85   53 1
    86   86   54 1
    87   87   55 1
    88   88   56 1
    89   89   57 1
    90   90   58 1
    91   91   59 1
    92   92   60 1
    93   93   61 1
    94   94   62 1
    95   95   63 1
    96   96   64 1
    97    8    9 ar
    98   15   16 ar
    99   18   19 ar
   100   19   20 ar
   101   21   22 ar
   102   25   26 ar
   103   27   28 ar
   104   31   32 ar
   105   40   41 ar
   106   47   48 ar
   107   50   51 ar
   108   51   52 ar
   109   53   54 ar
   110   57   58 ar
   111   59   60 ar
   112   63   64 ar
@<TRIPOS>SUBSTRUCTURE
     1 RES1 1
     2 RES2 33

@<TRIPOS>CRYSIN
  11.5164   12.9066   14.7649  97.8720  98.1900 114.4430   2 1

