# MOL2 file generated by ConQuest
# Please check atom types

@<TRIPOS>MOLECULE
POBPIG02
    96   112     2
SMALL
NO_CHARGES
****
Generated from CSD

@<TRIPOS>ATOM
      1 C1        -3.1237    8.1171    9.4974 C.ar      1 RES1    0.0000
      2 C2        -3.6682    8.6732   10.6427 C.ar      1 RES1    0.0000
      3 C3        -4.9446    8.3499   11.1447 C.ar      1 RES1    0.0000
      4 C4        -5.1903    9.2631   12.2668 C.ar      1 RES1    0.0000
      5 C5        -4.0326   10.0711   12.4350 C.ar      1 RES1    0.0000
      6 C6        -3.0540    9.6775   11.4086 C.ar      1 RES1    0.0000
      7 C7        -1.8003   10.0893   11.0353 C.ar      1 RES1    0.0000
      8 C8        -1.2088    9.5339    9.8767 C.ar      1 RES1    0.0000
      9 C9        -1.8440    8.5902    9.0870 C.ar      1 RES1    0.0000
     10 C10       -1.3070    8.0738    7.8327 C.ar      1 RES1    0.0000
     11 C11       -2.0985    7.1269    7.1105 C.ar      1 RES1    0.0000
     12 C12       -1.6094    6.6672    5.8943 C.ar      1 RES1    0.0000
     13 C13       -0.3661    7.0634    5.3492 C.ar      1 RES1    0.0000
     14 C14       -0.2384    6.3436    4.0748 C.ar      1 RES1    0.0000
     15 C15       -1.4052    5.5548    3.8908 C.ar      1 RES1    0.0000
     16 C16       -2.2883    5.7584    5.0556 C.ar      1 RES1    0.0000
     17 C17       -3.5158    5.3103    5.4630 C.ar      1 RES1    0.0000
     18 C18       -4.0444    5.7522    6.6953 C.ar      1 RES1    0.0000
     19 C19       -3.3724    6.6326    7.5365 C.ar      1 RES1    0.0000
     20 C20       -3.9005    7.1398    8.8007 C.ar      1 RES1    0.0000
     21 C21       -5.1304    6.7791    9.3365 C.ar      1 RES1    0.0000
     22 C22       -5.6595    7.3800   10.5005 C.ar      1 RES1    0.0000
     23 C23       -1.5479    4.7857    2.7490 C.ar      1 RES1    0.0000
     24 C24       -0.5257    4.7978    1.8045 C.ar      1 RES1    0.0000
     25 C25        0.6130    5.5612    1.9962 C.ar      1 RES1    0.0000
     26 C26        0.7675    6.3394    3.1322 C.ar      1 RES1    0.0000
     27 C27        0.3861    7.9619    6.0440 C.ar      1 RES1    0.0000
     28 C28       -0.0948    8.4646    7.2704 C.ar      1 RES1    0.0000
     29 C29       -4.0148   11.0752   13.3856 C.ar      1 RES1    0.0000
     30 C30       -5.1506   11.2847   14.1597 C.ar      1 RES1    0.0000
     31 C31       -6.2788   10.5065   13.9900 C.ar      1 RES1    0.0000
     32 C32       -6.3109    9.4874   13.0498 C.ar      1 RES1    0.0000
     33 C33        1.0790    0.3890    5.7490 C.ar      2 RES2    0.0000
     34 C34        1.5033   -0.3203    4.6351 C.ar      2 RES2    0.0000
     35 C35        1.5355   -1.7251    4.5518 C.ar      2 RES2    0.0000
     36 C36        2.0316   -2.0548    3.2097 C.ar      2 RES2    0.0000
     37 C37        2.3096   -0.8297    2.5356 C.ar      2 RES2    0.0000
     38 C38        1.9668    0.2764    3.4444 C.ar      2 RES2    0.0000
     39 C39        1.9977    1.6462    3.3894 C.ar      2 RES2    0.0000
     40 C40        1.5525    2.3934    4.5005 C.ar      2 RES2    0.0000
     41 C41        1.0939    1.8126    5.6788 C.ar      2 RES2    0.0000
     42 C42        0.6231    2.5546    6.8442 C.ar      2 RES2    0.0000
     43 C43        0.2424    1.7976    7.9970 C.ar      2 RES2    0.0000
     44 C44       -0.1809    2.5041    9.1153 C.ar      2 RES2    0.0000
     45 C45       -0.2719    3.9076    9.1758 C.ar      2 RES2    0.0000
     46 C46       -0.7970    4.2258   10.5101 C.ar      2 RES2    0.0000
     47 C47       -1.0022    3.0015   11.2067 C.ar      2 RES2    0.0000
     48 C48       -0.5956    1.9011   10.3205 C.ar      2 RES2    0.0000
     49 C49       -0.5627    0.5358   10.4025 C.ar      2 RES2    0.0000
     50 C50       -0.1329   -0.2128    9.2860 C.ar      2 RES2    0.0000
     51 C51        0.2509    0.3700    8.0804 C.ar      2 RES2    0.0000
     52 C52        0.6697   -0.3721    6.8917 C.ar      2 RES2    0.0000
     53 C53        0.7131   -1.7567    6.8034 C.ar      2 RES2    0.0000
     54 C54        1.1335   -2.4431    5.6480 C.ar      2 RES2    0.0000
     55 C55       -1.5359    3.0168   12.4789 C.ar      2 RES2    0.0000
     56 C56       -1.8698    4.2328   13.0615 C.ar      2 RES2    0.0000
     57 C57       -1.6640    5.4195   12.3826 C.ar      2 RES2    0.0000
     58 C58       -1.1263    5.4293   11.0980 C.ar      2 RES2    0.0000
     59 C59        0.0875    4.6243    8.0611 C.ar      2 RES2    0.0000
     60 C60        0.5283    3.9354    6.9085 C.ar      2 RES2    0.0000
     61 C61        2.8055   -0.8561    1.2438 C.ar      2 RES2    0.0000
     62 C62        3.0077   -2.0887    0.6210 C.ar      2 RES2    0.0000
     63 C63        2.7300   -3.2671    1.2817 C.ar      2 RES2    0.0000
     64 C64        2.2418   -3.2652    2.5802 C.ar      2 RES2    0.0000
     65 H1        -1.3231   10.7530   11.5360 H         1 RES1    0.0000
     66 H2        -0.3349    9.8413    9.6181 H         1 RES1    0.0000
     67 H3        -4.0319    4.6918    4.9233 H         1 RES1    0.0000
     68 H4        -4.9301    5.4088    6.9661 H         1 RES1    0.0000
     69 H5        -5.6661    6.0800    8.8840 H         1 RES1    0.0000
     70 H6        -6.5518    7.1161   10.8048 H         1 RES1    0.0000
     71 H7        -2.3438    4.2540    2.6017 H         1 RES1    0.0000
     72 H8        -0.6079    4.2764    1.0257 H         1 RES1    0.0000
     73 H9         1.2520    5.5563    1.3145 H         1 RES1    0.0000
     74 H10        1.5726    6.8438    3.2654 H         1 RES1    0.0000
     75 H11        1.2706    8.2696    5.7177 H         1 RES1    0.0000
     76 H12        0.4554    9.1260    7.7491 H         1 RES1    0.0000
     77 H13       -3.2200   11.6075   13.5243 H         1 RES1    0.0000
     78 H14       -5.1402   11.9408   14.8172 H         1 RES1    0.0000
     79 H15       -7.0345   10.6741   14.5170 H         1 RES1    0.0000
     80 H16       -7.1128    8.9859   12.9123 H         1 RES1    0.0000
     81 H17        2.2777    2.1125    2.6118 H         2 RES2    0.0000
     82 H18        1.5388    3.3888    4.4147 H         2 RES2    0.0000
     83 H19       -0.7922    0.0618   11.2128 H         2 RES2    0.0000
     84 H20       -0.0885   -1.2040    9.3739 H         2 RES2    0.0000
     85 H21        0.4706   -2.3165    7.6026 H         2 RES2    0.0000
     86 H22        1.1495   -3.4413    5.6516 H         2 RES2    0.0000
     87 H23       -1.6537    2.2202   12.9482 H         2 RES2    0.0000
     88 H24       -2.1824    4.2249   13.9653 H         2 RES2    0.0000
     89 H25       -1.8983    6.2411   12.7902 H         2 RES2    0.0000
     90 H26       -1.0190    6.3040   10.5950 H         2 RES2    0.0000
     91 H27        0.0272    5.6286    8.0220 H         2 RES2    0.0000
     92 H28        0.7503    4.5062    6.1128 H         2 RES2    0.0000
     93 H29        2.9917   -0.0661    0.7988 H         2 RES2    0.0000
     94 H30        3.2830   -2.0769   -0.3003 H         2 RES2    0.0000
     95 H31        2.8671   -4.0944    0.8390 H         2 RES2    0.0000
     96 H32        2.0790   -4.1168    3.0686 H         2 RES2    0.0000
@<TRIPOS>BOND
     1    1    2 ar
     2    2    3 ar
     3    3    4 ar
     4    4    5 ar
     5    5    6 ar
     6    6    2 ar
     7    7    6 ar
     8    8    7 ar
     9    9    1 ar
    10   10    9 ar
    11   11   10 ar
    12   12   11 ar
    13   13   12 ar
    14   14   13 ar
    15   15   14 ar
    16   16   12 ar
    17   17   16 ar
    18   18   17 ar
    19   19   11 ar
    20   20    1 ar
    21   21   20 ar
    22   22    3 ar
    23   23   15 ar
    24   24   23 ar
    25   25   24 ar
    26   26   14 ar
    27   27   13 ar
    28   28   10 ar
    29   29    5 ar
    30   30   29 ar
    31   31   30 ar
    32   32    4 ar
    33   33   34 ar
    34   34   35 ar
    35   35   36 ar
    36   36   37 ar
    37   37   38 ar
    38   38   34 ar
    39   39   38 ar
    40   40   39 ar
    41   41   33 ar
    42   42   41 ar
    43   43   42 ar
    44   44   43 ar
    45   45   44 ar
    46   46   45 ar
    47   47   46 ar
    48   48   44 ar
    49   49   48 ar
    50   50   49 ar
    51   51   43 ar
    52   52   33 ar
    53   53   52 ar
    54   54   35 ar
    55   55   47 ar
    56   56   55 ar
    57   57   56 ar
    58   58   46 ar
    59   59   45 ar
    60   60   42 ar
    61   61   37 ar
    62   62   61 ar
    63   63   62 ar
    64   64   36 ar
    65   65    7 1
    66   66    8 1
    67   67   17 1
    68   68   18 1
    69   69   21 1
    70   70   22 1
    71   71   23 1
    72   72   24 1
    73   73   25 1
    74   74   26 1
    75   75   27 1
    76   76   28 1
    77   77   29 1
    78   78   30 1
    79   79   31 1
    80   80   32 1
    81   81   39 1
    82   82   40 1
    83   83   49 1
    84   84   50 1
    85   85   53 1
    86   86   54 1
    87   87   55 1
    88   88   56 1
    89   89   57 1
    90   90   58 1
    91   91   59 1
    92   92   60 1
    93   93   61 1
    94   94   62 1
    95   95   63 1
    96   96   64 1
    97    8    9 ar
    98   15   16 ar
    99   18   19 ar
   100   19   20 ar
   101   21   22 ar
   102   25   26 ar
   103   27   28 ar
   104   31   32 ar
   105   40   41 ar
   106   47   48 ar
   107   50   51 ar
   108   51   52 ar
   109   53   54 ar
   110   57   58 ar
   111   59   60 ar
   112   63   64 ar
@<TRIPOS>SUBSTRUCTURE
     1 RES1 1
     2 RES2 33

@<TRIPOS>CRYSIN
  11.5824   12.9617   14.8812  98.1280  98.0910 114.5160   2 1

