# MOL2 file generated by ConQuest
# Please check atom types

@<TRIPOS>MOLECULE
POBPIG05
    96   112     2
SMALL
NO_CHARGES
****
Generated from CSD

@<TRIPOS>ATOM
      1 C1        -6.2583   10.4522   14.0364 C.ar      1 RES1    0.0000
      2 C2        -5.1166   11.2167   14.2139 C.ar      1 RES1    0.0000
      3 C3        -6.3000    9.4435   13.0853 C.ar      1 RES1    0.0000
      4 C4        -3.9887   11.0157   13.4273 C.ar      1 RES1    0.0000
      5 C5        -5.1856    9.2215   12.2973 C.ar      1 RES1    0.0000
      6 C6        -4.0174   10.0206   12.4734 C.ar      1 RES1    0.0000
      7 C7        -4.9467    8.3196   11.1673 C.ar      1 RES1    0.0000
      8 C8        -3.0446    9.6398   11.4385 C.ar      1 RES1    0.0000
      9 C9        -5.6605    7.3590   10.5020 C.ar      1 RES1    0.0000
     10 C10       -3.6684    8.6423   10.6674 C.ar      1 RES1    0.0000
     11 C11       -1.7874   10.0489   11.0649 C.ar      1 RES1    0.0000
     12 C12       -5.1328    6.7639    9.3403 C.ar      1 RES1    0.0000
     13 C13       -3.1231    8.0922    9.5208 C.ar      1 RES1    0.0000
     14 C14       -1.1984    9.4991    9.9017 C.ar      1 RES1    0.0000
     15 C15       -3.8985    7.1234    8.8093 C.ar      1 RES1    0.0000
     16 C16       -1.8405    8.5564    9.1039 C.ar      1 RES1    0.0000
     17 C17       -3.3709    6.6147    7.5510 C.ar      1 RES1    0.0000
     18 C18       -1.3020    8.0465    7.8509 C.ar      1 RES1    0.0000
     19 C19       -4.0425    5.7336    6.7122 C.ar      1 RES1    0.0000
     20 C20       -2.0935    7.1022    7.1307 C.ar      1 RES1    0.0000
     21 C21       -0.0838    8.4320    7.2996 C.ar      1 RES1    0.0000
     22 C22       -3.5156    5.2932    5.4812 C.ar      1 RES1    0.0000
     23 C23       -1.6048    6.6472    5.9113 C.ar      1 RES1    0.0000
     24 C24        0.3956    7.9393    6.0743 C.ar      1 RES1    0.0000
     25 C25       -2.2857    5.7355    5.0771 C.ar      1 RES1    0.0000
     26 C26       -0.3564    7.0420    5.3758 C.ar      1 RES1    0.0000
     27 C27       -1.4005    5.5345    3.9153 C.ar      1 RES1    0.0000
     28 C28       -0.2198    6.3247    4.1044 C.ar      1 RES1    0.0000
     29 C29       -1.5423    4.7656    2.7781 C.ar      1 RES1    0.0000
     30 C30        0.7809    6.3092    3.1620 C.ar      1 RES1    0.0000
     31 C31       -0.5160    4.7721    1.8328 C.ar      1 RES1    0.0000
     32 C32        0.6209    5.5324    2.0233 C.ar      1 RES1    0.0000
     33 C33       -1.8321    4.1497   13.1070 C.ar      2 RES2    0.0000
     34 C34       -1.6421    5.3442   12.4258 C.ar      2 RES2    0.0000
     35 C35       -1.5108    2.9531   12.5095 C.ar      2 RES2    0.0000
     36 C36       -1.1144    5.3685   11.1356 C.ar      2 RES2    0.0000
     37 C37       -0.9824    2.9351   11.2380 C.ar      2 RES2    0.0000
     38 C38       -0.7811    4.1638   10.5424 C.ar      2 RES2    0.0000
     39 C39       -0.5772    1.8436   10.3476 C.ar      2 RES2    0.0000
     40 C40       -0.2561    3.8500    9.2046 C.ar      2 RES2    0.0000
     41 C41       -0.5346    0.4776   10.4198 C.ar      2 RES2    0.0000
     42 C42       -0.1620    2.4485    9.1505 C.ar      2 RES2    0.0000
     43 C43        0.0968    4.5766    8.0948 C.ar      2 RES2    0.0000
     44 C44       -0.1076   -0.2663    9.3027 C.ar      2 RES2    0.0000
     45 C45        0.2614    1.7525    8.0257 C.ar      2 RES2    0.0000
     46 C46        0.5396    3.8961    6.9388 C.ar      2 RES2    0.0000
     47 C47        0.2730    0.3257    8.1000 C.ar      2 RES2    0.0000
     48 C48        0.6456    2.5102    6.8785 C.ar      2 RES2    0.0000
     49 C49        0.6885   -0.4120    6.9154 C.ar      2 RES2    0.0000
     50 C50        1.1099    1.7728    5.7079 C.ar      2 RES2    0.0000
     51 C51        0.7386   -1.8011    6.8234 C.ar      2 RES2    0.0000
     52 C52        1.0973    0.3485    5.7716 C.ar      2 RES2    0.0000
     53 C53        1.5619    2.3621    4.5320 C.ar      2 RES2    0.0000
     54 C54        1.1600   -2.4823    5.6703 C.ar      2 RES2    0.0000
     55 C55        1.5236   -0.3508    4.6508 C.ar      2 RES2    0.0000
     56 C56        2.0041    1.6183    3.4146 C.ar      2 RES2    0.0000
     57 C57        1.5574   -1.7593    4.5705 C.ar      2 RES2    0.0000
     58 C58        1.9807    0.2479    3.4651 C.ar      2 RES2    0.0000
     59 C59        2.0558   -2.0796    3.2255 C.ar      2 RES2    0.0000
     60 C60        2.3263   -0.8494    2.5487 C.ar      2 RES2    0.0000
     61 C61        2.2702   -3.2945    2.5948 C.ar      2 RES2    0.0000
     62 C62        2.8130   -0.8762    1.2642 C.ar      2 RES2    0.0000
     63 C63        2.7526   -3.2861    1.2916 C.ar      2 RES2    0.0000
     64 C64        3.0156   -2.0960    0.6292 C.ar      2 RES2    0.0000
     65 H1        -7.0334   10.6309   14.5689 H         1 RES1    0.0000
     66 H2        -5.1132   11.8754   14.9052 H         1 RES1    0.0000
     67 H3        -7.0800    8.8921   12.9785 H         1 RES1    0.0000
     68 H4        -3.1927   11.5494   13.5442 H         1 RES1    0.0000
     69 H5        -6.5302    7.0793   10.8383 H         1 RES1    0.0000
     70 H6        -1.3114   10.7103   11.5873 H         1 RES1    0.0000
     71 H7        -5.6349    6.0776    8.8784 H         1 RES1    0.0000
     72 H8        -0.3122    9.8101    9.6188 H         1 RES1    0.0000
     73 H9        -4.9067    5.3875    7.0037 H         1 RES1    0.0000
     74 H10        0.4447    9.0989    7.7888 H         1 RES1    0.0000
     75 H11       -4.0163    4.6769    4.9429 H         1 RES1    0.0000
     76 H12        1.2365    8.2452    5.7121 H         1 RES1    0.0000
     77 H13       -2.3338    4.2382    2.6598 H         1 RES1    0.0000
     78 H14        1.5597    6.8315    3.3121 H         1 RES1    0.0000
     79 H15       -0.5767    4.2352    1.0506 H         1 RES1    0.0000
     80 H16        1.2924    5.5053    1.3537 H         1 RES1    0.0000
     81 H17       -2.1795    4.1704   14.0017 H         2 RES2    0.0000
     82 H18       -1.8759    6.1661   12.8645 H         2 RES2    0.0000
     83 H19       -1.6493    2.1313   12.9626 H         2 RES2    0.0000
     84 H20       -0.9714    6.2102   10.6377 H         2 RES2    0.0000
     85 H21       -0.7933    0.0170   11.2424 H         2 RES2    0.0000
     86 H22        0.0329    5.5632    8.0962 H         2 RES2    0.0000
     87 H23       -0.0757   -1.2455    9.3504 H         2 RES2    0.0000
     88 H24        0.7836    4.4317    6.1451 H         2 RES2    0.0000
     89 H25        0.4789   -2.3202    7.6171 H         2 RES2    0.0000
     90 H26        1.5604    3.3485    4.4941 H         2 RES2    0.0000
     91 H27        1.1856   -3.4608    5.6443 H         2 RES2    0.0000
     92 H28        2.3189    2.0781    2.6208 H         2 RES2    0.0000
     93 H29        2.0864   -4.1106    3.0696 H         2 RES2    0.0000
     94 H30        3.0073   -0.0583    0.8327 H         2 RES2    0.0000
     95 H31        2.9109   -4.1168    0.8399 H         2 RES2    0.0000
     96 H32        3.3410   -2.0973   -0.2829 H         2 RES2    0.0000
@<TRIPOS>BOND
     1    1    2 ar
     2    2    4 ar
     3    3    1 ar
     4    4    6 ar
     5    5    3 ar
     6    6    5 ar
     7    7    5 ar
     8    8    6 ar
     9    9    7 ar
    10   10    7 ar
    11   11    8 ar
    12   12    9 ar
    13   13   10 ar
    14   14   11 ar
    15   15   12 ar
    16   16   13 ar
    17   17   15 ar
    18   18   16 ar
    19   19   17 ar
    20   20   17 ar
    21   21   18 ar
    22   22   19 ar
    23   23   20 ar
    24   24   21 ar
    25   25   22 ar
    26   26   23 ar
    27   27   25 ar
    28   28   26 ar
    29   29   27 ar
    30   30   28 ar
    31   31   29 ar
    32   32   30 ar
    33   33   34 ar
    34   34   36 ar
    35   35   33 ar
    36   36   38 ar
    37   37   35 ar
    38   38   37 ar
    39   39   37 ar
    40   40   38 ar
    41   41   39 ar
    42   42   39 ar
    43   43   40 ar
    44   44   41 ar
    45   45   42 ar
    46   46   43 ar
    47   47   44 ar
    48   48   45 ar
    49   49   47 ar
    50   50   48 ar
    51   51   49 ar
    52   52   49 ar
    53   53   50 ar
    54   54   51 ar
    55   55   52 ar
    56   56   53 ar
    57   57   54 ar
    58   58   55 ar
    59   59   57 ar
    60   60   58 ar
    61   61   59 ar
    62   62   60 ar
    63   63   61 ar
    64   64   62 ar
    65   65    1 1
    66   66    2 1
    67   67    3 1
    68   68    4 1
    69   69    9 1
    70   70   11 1
    71   71   12 1
    72   72   14 1
    73   73   19 1
    74   74   21 1
    75   75   22 1
    76   76   24 1
    77   77   29 1
    78   78   30 1
    79   79   31 1
    80   80   32 1
    81   81   33 1
    82   82   34 1
    83   83   35 1
    84   84   36 1
    85   85   41 1
    86   86   43 1
    87   87   44 1
    88   88   46 1
    89   89   51 1
    90   90   53 1
    91   91   54 1
    92   92   56 1
    93   93   61 1
    94   94   62 1
    95   95   63 1
    96   96   64 1
    97    8   10 ar
    98   13   15 ar
    99   14   16 ar
   100   18   20 ar
   101   23   25 ar
   102   24   26 ar
   103   27   28 ar
   104   31   32 ar
   105   40   42 ar
   106   45   47 ar
   107   46   48 ar
   108   50   52 ar
   109   55   57 ar
   110   56   58 ar
   111   59   60 ar
   112   63   64 ar
@<TRIPOS>SUBSTRUCTURE
     1 RES1 1
     2 RES2 33

@<TRIPOS>CRYSIN
  11.6592   13.0102   14.9663  98.4400  98.0230 114.5480   2 1

