# MOL2 file generated by ConQuest
# Please check atom types

@<TRIPOS>MOLECULE
POBPIG04
    96   112     2
SMALL
NO_CHARGES
****
Generated from CSD

@<TRIPOS>ATOM
      1 C1        -3.1263    8.0956    9.5146 C.ar      1 RES1    0.0000
      2 C2        -3.6678    8.6506   10.6598 C.ar      1 RES1    0.0000
      3 C3        -4.9391    8.3320   11.1645 C.ar      1 RES1    0.0000
      4 C4        -5.1848    9.2345   12.2936 C.ar      1 RES1    0.0000
      5 C5        -4.0221   10.0325   12.4628 C.ar      1 RES1    0.0000
      6 C6        -3.0535    9.6444   11.4298 C.ar      1 RES1    0.0000
      7 C7        -1.7989   10.0597   11.0598 C.ar      1 RES1    0.0000
      8 C8        -1.2050    9.5088    9.8965 C.ar      1 RES1    0.0000
      9 C9        -1.8464    8.5677    9.1086 C.ar      1 RES1    0.0000
     10 C10       -1.3063    8.0552    7.8519 C.ar      1 RES1    0.0000
     11 C11       -2.0971    7.1111    7.1242 C.ar      1 RES1    0.0000
     12 C12       -1.6057    6.6528    5.9089 C.ar      1 RES1    0.0000
     13 C13       -0.3610    7.0410    5.3681 C.ar      1 RES1    0.0000
     14 C14       -0.2279    6.3267    4.0978 C.ar      1 RES1    0.0000
     15 C15       -1.3999    5.5432    3.9118 C.ar      1 RES1    0.0000
     16 C16       -2.2835    5.7430    5.0697 C.ar      1 RES1    0.0000
     17 C17       -3.5124    5.2961    5.4749 C.ar      1 RES1    0.0000
     18 C18       -4.0432    5.7404    6.7072 C.ar      1 RES1    0.0000
     19 C19       -3.3727    6.6213    7.5517 C.ar      1 RES1    0.0000
     20 C20       -3.9010    7.1272    8.8131 C.ar      1 RES1    0.0000
     21 C21       -5.1368    6.7724    9.3429 C.ar      1 RES1    0.0000
     22 C22       -5.6636    7.3703   10.5084 C.ar      1 RES1    0.0000
     23 C23       -1.5466    4.7716    2.7757 C.ar      1 RES1    0.0000
     24 C24       -0.5260    4.7765    1.8246 C.ar      1 RES1    0.0000
     25 C25        0.6194    5.5384    2.0170 C.ar      1 RES1    0.0000
     26 C26        0.7747    6.3184    3.1544 C.ar      1 RES1    0.0000
     27 C27        0.3909    7.9405    6.0660 C.ar      1 RES1    0.0000
     28 C28       -0.0888    8.4413    7.2932 C.ar      1 RES1    0.0000
     29 C29       -3.9964   11.0317   13.4186 C.ar      1 RES1    0.0000
     30 C30       -5.1262   11.2388   14.2041 C.ar      1 RES1    0.0000
     31 C31       -6.2626   10.4688   14.0279 C.ar      1 RES1    0.0000
     32 C32       -6.3044    9.4544   13.0758 C.ar      1 RES1    0.0000
     33 C33        1.0961    0.3590    5.7659 C.ar      2 RES2    0.0000
     34 C34        1.5195   -0.3441    4.6510 C.ar      2 RES2    0.0000
     35 C35        1.5515   -1.7467    4.5650 C.ar      2 RES2    0.0000
     36 C36        2.0489   -2.0726    3.2278 C.ar      2 RES2    0.0000
     37 C37        2.3185   -0.8507    2.5525 C.ar      2 RES2    0.0000
     38 C38        1.9785    0.2523    3.4631 C.ar      2 RES2    0.0000
     39 C39        2.0075    1.6244    3.4099 C.ar      2 RES2    0.0000
     40 C40        1.5645    2.3671    4.5276 C.ar      2 RES2    0.0000
     41 C41        1.1062    1.7813    5.7014 C.ar      2 RES2    0.0000
     42 C42        0.6381    2.5192    6.8709 C.ar      2 RES2    0.0000
     43 C43        0.2560    1.7644    8.0183 C.ar      2 RES2    0.0000
     44 C44       -0.1661    2.4639    9.1394 C.ar      2 RES2    0.0000
     45 C45       -0.2606    3.8615    9.2033 C.ar      2 RES2    0.0000
     46 C46       -0.7877    4.1775   10.5366 C.ar      2 RES2    0.0000
     47 C47       -0.9881    2.9555   11.2320 C.ar      2 RES2    0.0000
     48 C48       -0.5811    1.8627   10.3403 C.ar      2 RES2    0.0000
     49 C49       -0.5446    0.4943   10.4193 C.ar      2 RES2    0.0000
     50 C50       -0.1156   -0.2523    9.2992 C.ar      2 RES2    0.0000
     51 C51        0.2662    0.3383    8.0980 C.ar      2 RES2    0.0000
     52 C52        0.6885   -0.3989    6.9065 C.ar      2 RES2    0.0000
     53 C53        0.7310   -1.7873    6.8169 C.ar      2 RES2    0.0000
     54 C54        1.1533   -2.4679    5.6592 C.ar      2 RES2    0.0000
     55 C55       -1.5193    2.9633   12.5045 C.ar      2 RES2    0.0000
     56 C56       -1.8478    4.1751   13.0900 C.ar      2 RES2    0.0000
     57 C57       -1.6563    5.3667   12.4114 C.ar      2 RES2    0.0000
     58 C58       -1.1190    5.3792   11.1260 C.ar      2 RES2    0.0000
     59 C59        0.0924    4.5855    8.0907 C.ar      2 RES2    0.0000
     60 C60        0.5412    3.9004    6.9330 C.ar      2 RES2    0.0000
     61 C61        2.8157   -0.8710    1.2620 C.ar      2 RES2    0.0000
     62 C62        3.0183   -2.1064    0.6331 C.ar      2 RES2    0.0000
     63 C63        2.7513   -3.2877    1.2978 C.ar      2 RES2    0.0000
     64 C64        2.2622   -3.2857    2.5959 C.ar      2 RES2    0.0000
     65 H1        -1.3017   10.7455   11.5908 H         1 RES1    0.0000
     66 H2        -0.3004    9.8332    9.5997 H         1 RES1    0.0000
     67 H3        -4.0184    4.6479    4.9282 H         1 RES1    0.0000
     68 H4        -4.9387    5.3850    7.0174 H         1 RES1    0.0000
     69 H5        -5.6521    6.0621    8.8600 H         1 RES1    0.0000
     70 H6        -6.5598    7.0923   10.8526 H         1 RES1    0.0000
     71 H7        -2.3566    4.2117    2.6587 H         1 RES1    0.0000
     72 H8        -0.5673    4.2144    1.0309 H         1 RES1    0.0000
     73 H9         1.3220    5.4941    1.3207 H         1 RES1    0.0000
     74 H10        1.5893    6.8511    3.3119 H         1 RES1    0.0000
     75 H11        1.2651    8.2536    5.6981 H         1 RES1    0.0000
     76 H12        0.4408    9.1352    7.7959 H         1 RES1    0.0000
     77 H13       -3.1713   11.5773   13.5416 H         1 RES1    0.0000
     78 H14       -5.1160   11.9247   14.9243 H         1 RES1    0.0000
     79 H15       -7.0615   10.6528   14.5754 H         1 RES1    0.0000
     80 H16       -7.0895    8.8898   12.9634 H         1 RES1    0.0000
     81 H17        2.3056    2.1166    2.6011 H         2 RES2    0.0000
     82 H18        1.5537    3.4064    4.4841 H         2 RES2    0.0000
     83 H19       -0.8033    0.0077   11.2549 H         2 RES2    0.0000
     84 H20       -0.0929   -1.2750    9.3618 H         2 RES2    0.0000
     85 H21        0.4653   -2.3316    7.6359 H         2 RES2    0.0000
     86 H22        1.1785   -3.4839    5.6289 H         2 RES2    0.0000
     87 H23       -1.6492    2.1359   12.9750 H         2 RES2    0.0000
     88 H24       -2.1986    4.2033   14.0189 H         2 RES2    0.0000
     89 H25       -1.8950    6.2328   12.8553 H         2 RES2    0.0000
     90 H26       -0.9658    6.2602   10.6061 H         2 RES2    0.0000
     91 H27        0.0343    5.6183    8.0814 H         2 RES2    0.0000
     92 H28        0.8000    4.4614    6.1148 H         2 RES2    0.0000
     93 H29        3.0039   -0.0335    0.8175 H         2 RES2    0.0000
     94 H30        3.3413   -2.1049   -0.3114 H         2 RES2    0.0000
     95 H31        2.9153   -4.1525    0.8435 H         2 RES2    0.0000
     96 H32        2.0672   -4.1385    3.1028 H         2 RES2    0.0000
@<TRIPOS>BOND
     1    1    2 ar
     2    2    3 ar
     3    3    4 ar
     4    4    5 ar
     5    5    6 ar
     6    6    2 ar
     7    7    6 ar
     8    8    7 ar
     9    9    1 ar
    10   10    9 ar
    11   11   10 ar
    12   12   11 ar
    13   13   12 ar
    14   14   13 ar
    15   15   14 ar
    16   16   12 ar
    17   17   16 ar
    18   18   17 ar
    19   19   11 ar
    20   20    1 ar
    21   21   20 ar
    22   22    3 ar
    23   23   15 ar
    24   24   23 ar
    25   25   24 ar
    26   26   14 ar
    27   27   13 ar
    28   28   10 ar
    29   29    5 ar
    30   30   29 ar
    31   31   30 ar
    32   32    4 ar
    33   33   34 ar
    34   34   35 ar
    35   35   36 ar
    36   36   37 ar
    37   37   38 ar
    38   38   34 ar
    39   39   38 ar
    40   40   39 ar
    41   41   33 ar
    42   42   41 ar
    43   43   42 ar
    44   44   43 ar
    45   45   44 ar
    46   46   45 ar
    47   47   46 ar
    48   48   44 ar
    49   49   48 ar
    50   50   49 ar
    51   51   43 ar
    52   52   33 ar
    53   53   52 ar
    54   54   35 ar
    55   55   47 ar
    56   56   55 ar
    57   57   56 ar
    58   58   46 ar
    59   59   45 ar
    60   60   42 ar
    61   61   37 ar
    62   62   61 ar
    63   63   62 ar
    64   64   36 ar
    65   65    7 1
    66   66    8 1
    67   67   17 1
    68   68   18 1
    69   69   21 1
    70   70   22 1
    71   71   23 1
    72   72   24 1
    73   73   25 1
    74   74   26 1
    75   75   27 1
    76   76   28 1
    77   77   29 1
    78   78   30 1
    79   79   31 1
    80   80   32 1
    81   81   39 1
    82   82   40 1
    83   83   49 1
    84   84   50 1
    85   85   53 1
    86   86   54 1
    87   87   55 1
    88   88   56 1
    89   89   57 1
    90   90   58 1
    91   91   59 1
    92   92   60 1
    93   93   61 1
    94   94   62 1
    95   95   63 1
    96   96   64 1
    97    8    9 ar
    98   15   16 ar
    99   18   19 ar
   100   19   20 ar
   101   21   22 ar
   102   25   26 ar
   103   27   28 ar
   104   31   32 ar
   105   40   41 ar
   106   47   48 ar
   107   50   51 ar
   108   51   52 ar
   109   53   54 ar
   110   57   58 ar
   111   59   60 ar
   112   63   64 ar
@<TRIPOS>SUBSTRUCTURE
     1 RES1 1
     2 RES2 33

@<TRIPOS>CRYSIN
  11.6432   13.0004   14.9480  98.3600  98.0420 114.5450   2 1

