# MOL2 file generated by ConQuest
# Please check atom types

@<TRIPOS>MOLECULE
POBPIG03
    96   112     2
SMALL
NO_CHARGES
****
Generated from CSD

@<TRIPOS>ATOM
      1 C1        -3.1258    8.1036    9.5114 C.ar      1 RES1    0.0000
      2 C2        -3.6679    8.6581   10.6573 C.ar      1 RES1    0.0000
      3 C3        -4.9443    8.3413   11.1593 C.ar      1 RES1    0.0000
      4 C4        -5.1876    9.2460   12.2865 C.ar      1 RES1    0.0000
      5 C5        -4.0260   10.0451   12.4549 C.ar      1 RES1    0.0000
      6 C6        -3.0520    9.6577   11.4259 C.ar      1 RES1    0.0000
      7 C7        -1.7982   10.0678   11.0534 C.ar      1 RES1    0.0000
      8 C8        -1.2084    9.5181    9.8953 C.ar      1 RES1    0.0000
      9 C9        -1.8447    8.5762    9.1027 C.ar      1 RES1    0.0000
     10 C10       -1.3058    8.0609    7.8474 C.ar      1 RES1    0.0000
     11 C11       -2.0984    7.1146    7.1231 C.ar      1 RES1    0.0000
     12 C12       -1.6075    6.6578    5.9094 C.ar      1 RES1    0.0000
     13 C13       -0.3622    7.0480    5.3628 C.ar      1 RES1    0.0000
     14 C14       -0.2339    6.3304    4.0917 C.ar      1 RES1    0.0000
     15 C15       -1.4014    5.5481    3.9070 C.ar      1 RES1    0.0000
     16 C16       -2.2850    5.7493    5.0669 C.ar      1 RES1    0.0000
     17 C17       -3.5118    5.3027    5.4720 C.ar      1 RES1    0.0000
     18 C18       -4.0412    5.7462    6.7029 C.ar      1 RES1    0.0000
     19 C19       -3.3743    6.6251    7.5481 C.ar      1 RES1    0.0000
     20 C20       -3.9017    7.1314    8.8091 C.ar      1 RES1    0.0000
     21 C21       -5.1343    6.7757    9.3427 C.ar      1 RES1    0.0000
     22 C22       -5.6611    7.3744   10.5070 C.ar      1 RES1    0.0000
     23 C23       -1.5448    4.7786    2.7672 C.ar      1 RES1    0.0000
     24 C24       -0.5233    4.7899    1.8252 C.ar      1 RES1    0.0000
     25 C25        0.6167    5.5461    2.0138 C.ar      1 RES1    0.0000
     26 C26        0.7717    6.3232    3.1492 C.ar      1 RES1    0.0000
     27 C27        0.3891    7.9463    6.0584 C.ar      1 RES1    0.0000
     28 C28       -0.0905    8.4480    7.2866 C.ar      1 RES1    0.0000
     29 C29       -4.0079   11.0445   13.4101 C.ar      1 RES1    0.0000
     30 C30       -5.1367   11.2490   14.1885 C.ar      1 RES1    0.0000
     31 C31       -6.2676   10.4779   14.0181 C.ar      1 RES1    0.0000
     32 C32       -6.3043    9.4669   13.0707 C.ar      1 RES1    0.0000
     33 C33        1.0914    0.3659    5.7639 C.ar      2 RES2    0.0000
     34 C34        1.5161   -0.3374    4.6486 C.ar      2 RES2    0.0000
     35 C35        1.5473   -1.7423    4.5625 C.ar      2 RES2    0.0000
     36 C36        2.0461   -2.0677    3.2227 C.ar      2 RES2    0.0000
     37 C37        2.3170   -0.8476    2.5501 C.ar      2 RES2    0.0000
     38 C38        1.9782    0.2591    3.4570 C.ar      2 RES2    0.0000
     39 C39        2.0017    1.6283    3.4078 C.ar      2 RES2    0.0000
     40 C40        1.5636    2.3729    4.5210 C.ar      2 RES2    0.0000
     41 C41        1.1037    1.7917    5.6983 C.ar      2 RES2    0.0000
     42 C42        0.6337    2.5301    6.8642 C.ar      2 RES2    0.0000
     43 C43        0.2524    1.7734    8.0145 C.ar      2 RES2    0.0000
     44 C44       -0.1693    2.4741    9.1338 C.ar      2 RES2    0.0000
     45 C45       -0.2629    3.8764    9.1964 C.ar      2 RES2    0.0000
     46 C46       -0.7902    4.1913   10.5292 C.ar      2 RES2    0.0000
     47 C47       -0.9906    2.9704   11.2256 C.ar      2 RES2    0.0000
     48 C48       -0.5849    1.8727   10.3348 C.ar      2 RES2    0.0000
     49 C49       -0.5458    0.5075   10.4151 C.ar      2 RES2    0.0000
     50 C50       -0.1187   -0.2394    9.2953 C.ar      2 RES2    0.0000
     51 C51        0.2638    0.3448    8.0939 C.ar      2 RES2    0.0000
     52 C52        0.6823   -0.3942    6.9053 C.ar      2 RES2    0.0000
     53 C53        0.7288   -1.7779    6.8129 C.ar      2 RES2    0.0000
     54 C54        1.1492   -2.4595    5.6586 C.ar      2 RES2    0.0000
     55 C55       -1.5229    2.9829   12.4977 C.ar      2 RES2    0.0000
     56 C56       -1.8564    4.1944   13.0803 C.ar      2 RES2    0.0000
     57 C57       -1.6569    5.3795   12.4029 C.ar      2 RES2    0.0000
     58 C58       -1.1228    5.3915   11.1204 C.ar      2 RES2    0.0000
     59 C59        0.0910    4.5929    8.0829 C.ar      2 RES2    0.0000
     60 C60        0.5366    3.9116    6.9276 C.ar      2 RES2    0.0000
     61 C61        2.8110   -0.8680    1.2591 C.ar      2 RES2    0.0000
     62 C62        3.0160   -2.1005    0.6321 C.ar      2 RES2    0.0000
     63 C63        2.7489   -3.2798    1.2955 C.ar      2 RES2    0.0000
     64 C64        2.2571   -3.2792    2.5902 C.ar      2 RES2    0.0000
     65 H1        -1.3222   10.7253   11.5621 H         1 RES1    0.0000
     66 H2        -0.3395    9.8260    9.6403 H         1 RES1    0.0000
     67 H3        -4.0333    4.6911    4.9369 H         1 RES1    0.0000
     68 H4        -4.9235    5.3958    6.9695 H         1 RES1    0.0000
     69 H5        -5.6723    6.0833    8.8869 H         1 RES1    0.0000
     70 H6        -6.5511    7.0983   10.8144 H         1 RES1    0.0000
     71 H7        -2.3332    4.2571    2.6219 H         1 RES1    0.0000
     72 H8        -0.5988    4.2742    1.0516 H         1 RES1    0.0000
     73 H9         1.2512    5.5349    1.3397 H         1 RES1    0.0000
     74 H10        1.5661    6.8275    3.2831 H         1 RES1    0.0000
     75 H11        1.2663    8.2538    5.7378 H         1 RES1    0.0000
     76 H12        0.4575    9.1102    7.7633 H         1 RES1    0.0000
     77 H13       -3.2292   11.5763   13.5342 H         1 RES1    0.0000
     78 H14       -5.1151   11.8935   14.8538 H         1 RES1    0.0000
     79 H15       -7.0166   10.6574   14.5412 H         1 RES1    0.0000
     80 H16       -7.0921    8.9697   12.9378 H         1 RES1    0.0000
     81 H17        2.2896    2.0912    2.6363 H         2 RES2    0.0000
     82 H18        1.5538    3.3626    4.4355 H         2 RES2    0.0000
     83 H19       -0.7746    0.0346   11.2149 H         2 RES2    0.0000
     84 H20       -0.0745   -1.2243    9.3868 H         2 RES2    0.0000
     85 H21        0.4841   -2.3353    7.5990 H         2 RES2    0.0000
     86 H22        1.1642   -3.4497    5.6571 H         2 RES2    0.0000
     87 H23       -1.6502    2.2006   12.9580 H         2 RES2    0.0000
     88 H24       -2.1603    4.1916   13.9736 H         2 RES2    0.0000
     89 H25       -1.8904    6.1975   12.8139 H         2 RES2    0.0000
     90 H26       -1.0217    6.2585   10.6228 H         2 RES2    0.0000
     91 H27        0.0274    5.5926    8.0427 H         2 RES2    0.0000
     92 H28        0.7733    4.4790    6.1383 H         2 RES2    0.0000
     93 H29        3.0024   -0.0909    0.8298 H         2 RES2    0.0000
     94 H30        3.2897   -2.0896   -0.2809 H         2 RES2    0.0000
     95 H31        2.8881   -4.0972    0.8557 H         2 RES2    0.0000
     96 H32        2.0990   -4.1278    3.0684 H         2 RES2    0.0000
@<TRIPOS>BOND
     1    1    2 ar
     2    2    3 ar
     3    3    4 ar
     4    4    5 ar
     5    5    6 ar
     6    6    2 ar
     7    7    6 ar
     8    8    7 ar
     9    9    1 ar
    10   10    9 ar
    11   11   10 ar
    12   12   11 ar
    13   13   12 ar
    14   14   13 ar
    15   15   14 ar
    16   16   12 ar
    17   17   16 ar
    18   18   17 ar
    19   19   11 ar
    20   20    1 ar
    21   21   20 ar
    22   22    3 ar
    23   23   15 ar
    24   24   23 ar
    25   25   24 ar
    26   26   14 ar
    27   27   13 ar
    28   28   10 ar
    29   29    5 ar
    30   30   29 ar
    31   31   30 ar
    32   32    4 ar
    33   33   34 ar
    34   34   35 ar
    35   35   36 ar
    36   36   37 ar
    37   37   38 ar
    38   38   34 ar
    39   39   38 ar
    40   40   39 ar
    41   41   33 ar
    42   42   41 ar
    43   43   42 ar
    44   44   43 ar
    45   45   44 ar
    46   46   45 ar
    47   47   46 ar
    48   48   44 ar
    49   49   48 ar
    50   50   49 ar
    51   51   43 ar
    52   52   33 ar
    53   53   52 ar
    54   54   35 ar
    55   55   47 ar
    56   56   55 ar
    57   57   56 ar
    58   58   46 ar
    59   59   45 ar
    60   60   42 ar
    61   61   37 ar
    62   62   61 ar
    63   63   62 ar
    64   64   36 ar
    65   65    7 1
    66   66    8 1
    67   67   17 1
    68   68   18 1
    69   69   21 1
    70   70   22 1
    71   71   23 1
    72   72   24 1
    73   73   25 1
    74   74   26 1
    75   75   27 1
    76   76   28 1
    77   77   29 1
    78   78   30 1
    79   79   31 1
    80   80   32 1
    81   81   39 1
    82   82   40 1
    83   83   49 1
    84   84   50 1
    85   85   53 1
    86   86   54 1
    87   87   55 1
    88   88   56 1
    89   89   57 1
    90   90   58 1
    91   91   59 1
    92   92   60 1
    93   93   61 1
    94   94   62 1
    95   95   63 1
    96   96   64 1
    97    8    9 ar
    98   15   16 ar
    99   18   19 ar
   100   19   20 ar
   101   21   22 ar
   102   25   26 ar
   103   27   28 ar
   104   31   32 ar
   105   40   41 ar
   106   47   48 ar
   107   50   51 ar
   108   51   52 ar
   109   53   54 ar
   110   57   58 ar
   111   59   60 ar
   112   63   64 ar
@<TRIPOS>SUBSTRUCTURE
     1 RES1 1
     2 RES2 33

@<TRIPOS>CRYSIN
  11.6284   12.9916   14.9311  98.2940  98.0500 114.5430   2 1

