# MOL2 file generated by ConQuest
# Please check atom types

@<TRIPOS>MOLECULE
POQCEE
    76    82     1
SMALL
NO_CHARGES
****
Generated from CSD

@<TRIPOS>ATOM
      1 C1         1.8808    5.1168    4.0516 C.ar      1 RES1    0.0000
      2 C2         1.1365    5.4160    5.1866 C.ar      1 RES1    0.0000
      3 H1         0.4266    6.1503    5.1266 H         1 RES1    0.0000
      4 C3         1.2539    4.6697    6.3657 C.ar      1 RES1    0.0000
      5 H2         0.7179    4.9292    7.1586 H         1 RES1    0.0000
      6 C4         2.0903    3.5812    6.3999 C.ar      1 RES1    0.0000
      7 H3         2.1482    2.9844    7.2189 H         1 RES1    0.0000
      8 C5         5.2930    0.5096    4.2850 C.ar      1 RES1    0.0000
      9 H4         5.3044    0.0565    5.1490 H         1 RES1    0.0000
     10 C6         5.9748    0.0466    3.1925 C.ar      1 RES1    0.0000
     11 H5         6.5005   -0.7589    3.2515 H         1 RES1    0.0000
     12 C7         5.8360    0.7068    1.9628 C.ar      1 RES1    0.0000
     13 H6         6.2549    0.3053    1.1298 H         1 RES1    0.0000
     14 C8         5.0828    1.8726    1.8373 C.ar      1 RES1    0.0000
     15 C9         3.7540    3.7256    3.0004 C.ar      1 RES1    0.0000
     16 C10        3.7507    2.1168    5.3261 C.ar      1 RES1    0.0000
     17 H7         3.8067    1.5882    6.1581 H         1 RES1    0.0000
     18 C11        2.8757    4.0333    4.0805 C.ar      1 RES1    0.0000
     19 C12        2.9017    3.2365    5.2640 C.ar      1 RES1    0.0000
     20 C13        4.4400    2.4686    3.0117 C.ar      1 RES1    0.0000
     21 C14        4.4832    1.6981    4.2072 C.ar      1 RES1    0.0000
     22 C15        1.5122    5.7796    2.8490 C.1       1 RES1    0.0000
     23 C16        1.1381    6.3158    1.8270 C.1       1 RES1    0.0000
     24 C17        4.8219    2.3410    0.5129 C.1       1 RES1    0.0000
     25 C18        4.5644    2.6962   -0.6151 C.1       1 RES1    0.0000
     26 C19        4.1110    4.7663    1.9627 C.3       1 RES1    0.0000
     27 H8         4.8368    4.3972    1.4257 H         1 RES1    0.0000
     28 H9         3.3641    4.9353    1.2937 H         1 RES1    0.0000
     29 C20        4.5869    6.1058    2.5618 C.3       1 RES1    0.0000
     30 H10        3.8952    6.5108    3.1955 H         1 RES1    0.0000
     31 H11        5.4351    5.9260    3.1110 H         1 RES1    0.0000
     32 C21        4.8630    7.1471    1.4904 C.3       1 RES1    0.0000
     33 H12        5.1107    8.0349    1.9406 H         1 RES1    0.0000
     34 H13        4.0225    7.2719    0.9228 H         1 RES1    0.0000
     35 C22        5.9924    6.7497    0.5422 C.3       1 RES1    0.0000
     36 H14        6.7796    6.5163    1.0867 H         1 RES1    0.0000
     37 H15        6.2316    7.4819   -0.0776 H         1 RES1    0.0000
     38 H16        5.7617    5.9342   -0.0431 H         1 RES1    0.0000
     39 C1A        3.5027    4.4288   -4.0516 C.ar      1 RES1    0.0000
     40 C2A        4.2470    4.1295   -5.1866 C.ar      1 RES1    0.0000
     41 H1A        4.9569    3.3953   -5.1266 H         1 RES1    0.0000
     42 C3A        4.1297    4.8759   -6.3657 C.ar      1 RES1    0.0000
     43 H2A        4.6657    4.6164   -7.1586 H         1 RES1    0.0000
     44 C4A        3.2932    5.9644   -6.3999 C.ar      1 RES1    0.0000
     45 H3A        3.2354    6.5612   -7.2189 H         1 RES1    0.0000
     46 C5A        0.0906    9.0360   -4.2850 C.ar      1 RES1    0.0000
     47 H4A        0.0791    9.4891   -5.1490 H         1 RES1    0.0000
     48 C6A       -0.5913    9.4990   -3.1925 C.ar      1 RES1    0.0000
     49 H5A       -1.1169   10.3044   -3.2515 H         1 RES1    0.0000
     50 C7A       -0.4525    8.8388   -1.9628 C.ar      1 RES1    0.0000
     51 H6A       -0.8714    9.2403   -1.1298 H         1 RES1    0.0000
     52 C8A        0.3008    7.6730   -1.8373 C.ar      1 RES1    0.0000
     53 C9A        1.6295    5.8200   -3.0004 C.ar      1 RES1    0.0000
     54 C10A       1.6328    7.4288   -5.3261 C.ar      1 RES1    0.0000
     55 H7A        1.5768    7.9574   -6.1581 H         1 RES1    0.0000
     56 C11A       2.5078    5.5122   -4.0805 C.ar      1 RES1    0.0000
     57 C12A       2.4819    6.3091   -5.2640 C.ar      1 RES1    0.0000
     58 C13A       0.9436    7.0769   -3.0117 C.ar      1 RES1    0.0000
     59 C14A       0.9004    7.8475   -4.2072 C.ar      1 RES1    0.0000
     60 C15A       3.8714    3.7660   -2.8490 C.1       1 RES1    0.0000
     61 C16A       4.2454    3.2297   -1.8270 C.1       1 RES1    0.0000
     62 C17A       0.5616    7.2046   -0.5129 C.1       1 RES1    0.0000
     63 C18A       0.8191    6.8493    0.6151 C.1       1 RES1    0.0000
     64 C19A       1.2726    4.7793   -1.9627 C.3       1 RES1    0.0000
     65 H8A        0.5467    5.1484   -1.4257 H         1 RES1    0.0000
     66 H9A        2.0195    4.6102   -1.2937 H         1 RES1    0.0000
     67 C20A       0.7967    3.4398   -2.5618 C.3       1 RES1    0.0000
     68 H10A       1.4883    3.0348   -3.1955 H         1 RES1    0.0000
     69 H11A      -0.0516    3.6195   -3.1110 H         1 RES1    0.0000
     70 C21A       0.5206    2.3985   -1.4904 C.3       1 RES1    0.0000
     71 H12A       0.2729    1.5107   -1.9406 H         1 RES1    0.0000
     72 H13A       1.3611    2.2737   -0.9228 H         1 RES1    0.0000
     73 C22A      -0.6088    2.7959   -0.5422 C.3       1 RES1    0.0000
     74 H14A      -1.3960    3.0292   -1.0867 H         1 RES1    0.0000
     75 H15A      -0.8481    2.0637    0.0776 H         1 RES1    0.0000
     76 H16A      -0.3782    3.6114    0.0431 H         1 RES1    0.0000
@<TRIPOS>BOND
     1    1    2 ar
     2    2    3 1
     3    4    2 ar
     4    5    4 1
     5    6    4 ar
     6    7    6 1
     7    8    9 1
     8   10    8 ar
     9   11   10 1
    10   12   10 ar
    11   13   12 1
    12   14   12 ar
    13   15   18 ar
    14   16   17 1
    15   18    1 ar
    16   19    6 ar
    17   20   14 ar
    18   21    8 ar
    19   22    1 1
    20   23   22 3
    21   24   14 1
    22   25   24 3
    23   26   15 1
    24   27   26 1
    25   28   26 1
    26   29   26 1
    27   30   29 1
    28   31   29 1
    29   32   29 1
    30   33   32 1
    31   34   32 1
    32   35   32 1
    33   36   35 1
    34   37   35 1
    35   38   35 1
    36   39   40 ar
    37   40   41 1
    38   42   40 ar
    39   43   42 1
    40   44   42 ar
    41   45   44 1
    42   46   47 1
    43   48   46 ar
    44   49   48 1
    45   50   48 ar
    46   51   50 1
    47   52   50 ar
    48   53   56 ar
    49   54   55 1
    50   56   39 ar
    51   57   44 ar
    52   58   52 ar
    53   59   46 ar
    54   60   39 1
    55   61   25 1
    56   62   52 1
    57   63   23 1
    58   64   53 1
    59   65   64 1
    60   66   64 1
    61   67   64 1
    62   68   67 1
    63   69   67 1
    64   70   67 1
    65   71   70 1
    66   72   70 1
    67   73   70 1
    68   74   73 1
    69   75   73 1
    70   76   73 1
    71   15   20 ar
    72   16   19 ar
    73   16   21 ar
    74   18   19 ar
    75   20   21 ar
    76   53   58 ar
    77   54   57 ar
    78   54   59 ar
    79   56   57 ar
    80   58   59 ar
    81   60   61 3
    82   62   63 3
@<TRIPOS>SUBSTRUCTURE
     1 RES1 1

@<TRIPOS>CRYSIN
   9.0642   10.2306   10.1873 113.7340 100.3740 111.0860   2 1

