# MOL2 file generated by ConQuest
# Please check atom types

@<TRIPOS>MOLECULE
POXGOZ
    76    82     1
SMALL
NO_CHARGES
****
Generated from CSD

@<TRIPOS>ATOM
      1 C1         8.9392    1.8144    4.4291 C.ar      1 RES1    0.0000
      2 C2         7.5842    1.9209    4.6699 C.ar      1 RES1    0.0000
      3 H1         6.9881    1.1854    4.4261 H         1 RES1    0.0000
      4 C3         7.0218    3.0288    5.3354 C.ar      1 RES1    0.0000
      5 H2         6.0696    3.0376    5.5013 H         1 RES1    0.0000
      6 C4         7.8408    3.9993    5.8220 C.ar      1 RES1    0.0000
      7 H3         7.4809    4.6588    6.3211 H         1 RES1    0.0000
      8 C5        12.2779    5.9267    6.5711 C.ar      1 RES1    0.0000
      9 H4        11.8640    6.6035    7.0528 H         1 RES1    0.0000
     10 C6        13.6317    5.8970    6.4630 C.ar      1 RES1    0.0000
     11 H5        14.1598    6.5294    6.8606 H         1 RES1    0.0000
     12 C7        14.2514    4.7962    5.8307 C.ar      1 RES1    0.0000
     13 H6        15.2162    4.6609    5.7816 H         1 RES1    0.0000
     14 C8        13.5159    3.7831    5.2367 C.ar      1 RES1    0.0000
     15 C9        11.2298    2.9323    4.5113 C.ar      1 RES1    0.0000
     16 C10       10.0719    4.9568    6.1132 C.ar      1 RES1    0.0000
     17 H7         9.6976    5.6221    6.5927 H         1 RES1    0.0000
     18 C11        9.8390    2.8970    4.8264 C.ar      1 RES1    0.0000
     19 C12        9.2482    3.9584    5.6063 C.ar      1 RES1    0.0000
     20 C13       12.0609    3.8435    5.2192 C.ar      1 RES1    0.0000
     21 C14       11.4596    4.9038    5.9840 C.ar      1 RES1    0.0000
     22 C15       11.7599    2.1628    3.3171 C.3       1 RES1    0.0000
     23 H8        12.4575    1.4647    3.6064 H         1 RES1    0.0000
     24 H9        11.0238    1.6360    2.8499 H         1 RES1    0.0000
     25 C16       12.3856    3.0685    2.2392 C.3       1 RES1    0.0000
     26 H10       11.6603    3.6013    1.8218 H         1 RES1    0.0000
     27 H11       13.0264    3.6983    2.6403 H         1 RES1    0.0000
     28 C17       13.0761    2.2651    1.1419 C.3       1 RES1    0.0000
     29 H12       12.4067    1.5643    0.7602 H         1 RES1    0.0000
     30 H13       13.8520    1.6936    1.5750 H         1 RES1    0.0000
     31 C18       13.5855    3.1232   -0.0037 C.3       1 RES1    0.0000
     32 H14       14.2348    3.7595    0.3348 H         1 RES1    0.0000
     33 H15       14.0613    2.5408   -0.6697 H         1 RES1    0.0000
     34 H16       12.8078    3.5879   -0.4713 H         1 RES1    0.0000
     35 C19       14.2439    2.6403    4.7659 C.1       1 RES1    0.0000
     36 C20       14.8550    1.6803    4.3907 C.1       1 RES1    0.0000
     37 C21       15.4285    0.5289    3.8946 C.1       1 RES1    0.0000
     38 C22       15.8187   -0.5080    3.4171 C.1       1 RES1    0.0000
     39 C23       16.3158   -1.7905    3.0239 C.ar      1 RES1    0.0000
     40 C24       17.6780   -1.9994    3.1861 C.ar      1 RES1    0.0000
     41 H17       18.2545   -1.1950    3.4427 H         1 RES1    0.0000
     42 C25       18.2442   -3.2956    3.1199 C.ar      1 RES1    0.0000
     43 H18       19.2023   -3.3613    3.2467 H         1 RES1    0.0000
     44 C26       17.4370   -4.3725    2.9269 C.ar      1 RES1    0.0000
     45 H19       17.8216   -5.2893    2.9565 H         1 RES1    0.0000
     46 C27       13.0129   -6.3933    2.4390 C.ar      1 RES1    0.0000
     47 H20       13.4888   -7.2948    2.4059 H         1 RES1    0.0000
     48 C28       11.6571   -6.3208    2.4477 C.ar      1 RES1    0.0000
     49 H21       11.0774   -7.2060    2.4084 H         1 RES1    0.0000
     50 C29       11.0334   -5.0585    2.5522 C.ar      1 RES1    0.0000
     51 H22       10.0492   -5.0288    2.6242 H         1 RES1    0.0000
     52 C30       11.7612   -3.8870    2.5877 C.ar      1 RES1    0.0000
     53 C31       14.0445   -2.7601    2.4215 C.ar      1 RES1    0.0000
     54 C32       15.2143   -5.3377    2.5686 C.ar      1 RES1    0.0000
     55 H23       15.6383   -6.2830    2.5423 H         1 RES1    0.0000
     56 C33       15.4347   -2.9025    2.6966 C.ar      1 RES1    0.0000
     57 C34       16.0246   -4.2109    2.7312 C.ar      1 RES1    0.0000
     58 C35       13.2155   -3.9151    2.4813 C.ar      1 RES1    0.0000
     59 C36       13.8257   -5.2197    2.5004 C.ar      1 RES1    0.0000
     60 C37       13.5072   -1.4542    1.8728 C.3       1 RES1    0.0000
     61 H24       12.8044   -1.0092    2.4481 H         1 RES1    0.0000
     62 H25       14.2255   -0.7892    1.8218 H         1 RES1    0.0000
     63 C38       12.9267   -1.6382    0.4486 C.3       1 RES1    0.0000
     64 H26       12.4500   -0.7600    0.1129 H         1 RES1    0.0000
     65 H27       12.1393   -2.2694    0.4403 H         1 RES1    0.0000
     66 C39       13.9697   -2.0931   -0.5779 C.3       1 RES1    0.0000
     67 H28       14.3789   -2.9862   -0.2815 H         1 RES1    0.0000
     68 H29       13.5015   -2.2136   -1.4758 H         1 RES1    0.0000
     69 C40       15.1011   -1.0922   -0.7887 C.3       1 RES1    0.0000
     70 H30       14.7115   -0.1945   -1.0169 H         1 RES1    0.0000
     71 H31       15.6897   -1.0054    0.0496 H         1 RES1    0.0000
     72 H32       15.7284   -1.3270   -1.5130 H         1 RES1    0.0000
     73 C41       11.0393   -2.6864    2.8950 C.1       1 RES1    0.0000
     74 C42       10.4110   -1.7122    3.2436 C.1       1 RES1    0.0000
     75 C43        9.8239   -0.5340    3.6374 C.1       1 RES1    0.0000
     76 C44        9.4243    0.5545    3.9679 C.1       1 RES1    0.0000
@<TRIPOS>BOND
     1    1    2 ar
     2    2    3 1
     3    4    2 ar
     4    5    4 1
     5    6    4 ar
     6    7    6 1
     7    8    9 1
     8   10    8 ar
     9   11   10 1
    10   12   10 ar
    11   13   12 1
    12   14   12 ar
    13   15   18 ar
    14   16   17 1
    15   18    1 ar
    16   19    6 ar
    17   20   14 ar
    18   21    8 ar
    19   22   15 1
    20   23   22 1
    21   24   22 1
    22   25   22 1
    23   26   25 1
    24   27   25 1
    25   28   25 1
    26   29   28 1
    27   30   28 1
    28   31   28 1
    29   32   31 1
    30   33   31 1
    31   34   31 1
    32   35   14 1
    33   36   35 3
    34   37   36 1
    35   38   37 3
    36   39   38 1
    37   40   39 ar
    38   41   40 1
    39   42   40 ar
    40   43   42 1
    41   44   42 ar
    42   45   44 1
    43   46   47 1
    44   48   46 ar
    45   49   48 1
    46   50   48 ar
    47   51   50 1
    48   52   50 ar
    49   53   56 ar
    50   54   55 1
    51   56   39 ar
    52   57   44 ar
    53   58   52 ar
    54   59   46 ar
    55   60   53 1
    56   61   60 1
    57   62   60 1
    58   63   60 1
    59   64   63 1
    60   65   63 1
    61   66   63 1
    62   67   66 1
    63   68   66 1
    64   69   66 1
    65   70   69 1
    66   71   69 1
    67   72   69 1
    68   73   52 1
    69   74   73 3
    70   75   74 1
    71   76    1 1
    72   15   20 ar
    73   16   19 ar
    74   16   21 ar
    75   18   19 ar
    76   20   21 ar
    77   53   58 ar
    78   54   57 ar
    79   54   59 ar
    80   56   57 ar
    81   58   59 ar
    82   75   76 3
@<TRIPOS>SUBSTRUCTURE
     1 RES1 1

@<TRIPOS>CRYSIN
  11.1772   11.9076   13.2650  72.8700  72.9150  68.0270   2 1

