# MOL2 file generated by ConQuest
# Please check atom types

@<TRIPOS>MOLECULE
PRYNAP
    56    58     2
SMALL
NO_CHARGES
****
Generated from CSD

@<TRIPOS>ATOM
      1 C1         1.1698    1.6407    0.8148 C.ar      1 RES1    0.0000
      2 C2        -0.2714    2.9021   -0.7186 C.ar      1 RES1    0.0000
      3 C3         1.4413    0.7770    1.9407 C.1       1 RES1    0.0000
      4 C4         1.7816    0.1140    2.8611 C.1       1 RES1    0.0000
      5 C5         2.0923   -0.7498    4.0191 C.3       1 RES1    0.0000
      6 C6        -1.4068    0.5905    2.0986 C.1       1 RES1    0.0000
      7 C7        -1.5883   -0.1450    3.0215 C.1       1 RES1    0.0000
      8 C8        -1.7596   -1.0606    4.1593 C.3       1 RES1    0.0000
      9 C9         2.2596    2.1600    0.1437 C.ar      1 RES1    0.0000
     10 C10        2.1257    3.0458   -0.9347 C.ar      1 RES1    0.0000
     11 C11        0.8860    3.4136   -1.3504 C.ar      1 RES1    0.0000
     12 C12       -1.5451    3.2970   -1.1829 C.ar      1 RES1    0.0000
     13 C13       -2.6739    2.8295   -0.5950 C.ar      1 RES1    0.0000
     14 C14       -2.5804    1.9360    0.4858 C.ar      1 RES1    0.0000
     15 C15       -1.3681    1.5112    0.9846 C.ar      1 RES1    0.0000
     16 C16       -0.1548    1.9943    0.3872 C.ar      1 RES1    0.0000
     17 H1         3.1532    1.9036    0.4513 H         1 RES1    0.0000
     18 H2         2.9031    3.3928   -1.3777 H         1 RES1    0.0000
     19 H3         0.7517    4.0274   -2.0666 H         1 RES1    0.0000
     20 H4        -1.5852    3.8849   -1.8884 H         1 RES1    0.0000
     21 H5        -3.5414    3.0562   -0.9264 H         1 RES1    0.0000
     22 H6        -3.3560    1.5540    0.9264 H         1 RES1    0.0000
     23 H7         2.6375   -0.4144    4.5845 H         1 RES1    0.0000
     24 H8         1.6051   -0.7122    4.5726 H         1 RES1    0.0000
     25 H9         2.5854   -1.5669    3.7650 H         1 RES1    0.0000
     26 H10       -1.4946   -0.6863    4.9289 H         1 RES1    0.0000
     27 H11       -2.5609   -1.1784    4.3232 H         1 RES1    0.0000
     28 H12       -1.0075   -1.6446    4.2400 H         1 RES1    0.0000
     29 C17       -6.2355   -1.0256    1.7067 C.ar      2 RES2    0.0000
     30 C18       -5.1003   -0.4843    2.2792 C.ar      2 RES2    0.0000
     31 C19       -5.1528    0.5996    3.1699 C.ar      2 RES2    0.0000
     32 C20       -6.3424    1.1525    3.4906 C.ar      2 RES2    0.0000
     33 C21       -8.7740    1.2898    3.2531 C.ar      2 RES2    0.0000
     34 C22       -9.9351    0.8560    2.7151 C.ar      2 RES2    0.0000
     35 C23       -9.9299   -0.2214    1.8077 C.ar      2 RES2    0.0000
     36 C24       -8.7633   -0.8754    1.4490 C.ar      2 RES2    0.0000
     37 C25       -7.5181   -0.4442    2.0060 C.ar      2 RES2    0.0000
     38 C26       -7.5400    0.6656    2.9229 C.ar      2 RES2    0.0000
     39 C27       -6.0387   -2.1807    0.8468 C.1       2 RES2    0.0000
     40 C28       -5.7222   -3.1222    0.1900 C.1       2 RES2    0.0000
     41 C29       -5.3885   -4.2916   -0.6544 C.3       2 RES2    0.0000
     42 C30       -8.8751   -1.9735    0.5024 C.1       2 RES2    0.0000
     43 C31       -9.0595   -2.8490   -0.2827 C.1       2 RES2    0.0000
     44 C32       -9.1875   -3.9600   -1.2483 C.3       2 RES2    0.0000
     45 H13       -4.2743   -0.9065    2.1022 H         2 RES2    0.0000
     46 H14       -4.3038    0.9324    3.5749 H         2 RES2    0.0000
     47 H15       -6.4675    1.9425    4.0975 H         2 RES2    0.0000
     48 H16       -8.7047    2.0590    3.8481 H         2 RES2    0.0000
     49 H17      -10.7464    1.2950    2.8980 H         2 RES2    0.0000
     50 H18      -10.7971   -0.5050    1.4490 H         2 RES2    0.0000
     51 H19       -4.5803   -4.7267   -0.3919 H         2 RES2    0.0000
     52 H20       -5.5600   -4.0403   -1.5677 H         2 RES2    0.0000
     53 H21       -5.9791   -4.9468   -0.5582 H         2 RES2    0.0000
     54 H22       -9.2347   -4.8691   -0.8076 H         2 RES2    0.0000
     55 H23       -8.4981   -3.9885   -1.8884 H         2 RES2    0.0000
     56 H24       -9.7892   -3.7813   -1.8053 H         2 RES2    0.0000
@<TRIPOS>BOND
     1    1    3 1
     2    2   11 ar
     3    3    4 3
     4    4    5 1
     5    5   23 1
     6    6    7 3
     7    7    8 1
     8    8   26 1
     9    9    1 ar
    10   10    9 ar
    11   11   10 ar
    12   12    2 ar
    13   13   12 ar
    14   14   13 ar
    15   15    6 1
    16   16    1 ar
    17   17    9 1
    18   18   10 1
    19   19   11 1
    20   20   12 1
    21   21   13 1
    22   22   14 1
    23   24    5 1
    24   25    5 1
    25   27    8 1
    26   28    8 1
    27   29   30 ar
    28   30   31 ar
    29   31   32 ar
    30   32   38 ar
    31   33   34 ar
    32   34   35 ar
    33   35   36 ar
    34   36   37 ar
    35   37   29 ar
    36   38   33 ar
    37   39   29 1
    38   40   39 3
    39   41   40 1
    40   42   36 1
    41   43   42 3
    42   44   43 1
    43   45   30 1
    44   46   31 1
    45   47   32 1
    46   48   33 1
    47   49   34 1
    48   50   35 1
    49   51   41 1
    50   52   41 1
    51   53   41 1
    52   54   44 1
    53   55   44 1
    54   56   44 1
    55    2   16 ar
    56   14   15 ar
    57   15   16 ar
    58   37   38 ar
@<TRIPOS>SUBSTRUCTURE
     1 RES1 1
     2 RES2 29

@<TRIPOS>CRYSIN
  15.4306   12.9498   11.9690  90.0000  97.1130  90.0000  14 1

