# MOL2 file generated by ConQuest
# Please check atom types

@<TRIPOS>MOLECULE
PUBVUD
    72    78     2
SMALL
NO_CHARGES
****
Generated from CSD

@<TRIPOS>ATOM
      1 C1         3.2956    3.6295   -0.8130 C.ar      1 RES1    0.0000
      2 C2         4.6288    3.1770   -0.8588 C.ar      1 RES1    0.0000
      3 H1         5.2384    3.6041   -1.4176 H         1 RES1    0.0000
      4 C3         5.0422    2.1151   -0.0939 C.ar      1 RES1    0.0000
      5 H2         5.9291    1.8389   -0.1385 H         1 RES1    0.0000
      6 C4         4.1747    1.4568    0.7323 C.ar      1 RES1    0.0000
      7 H3         4.4734    0.7664    1.2791 H         1 RES1    0.0000
      8 C5         2.8501    1.8348    0.7431 C.ar      1 RES1    0.0000
      9 H4         2.2494    1.3648    1.2767 H         1 RES1    0.0000
     10 C6         2.3853    2.9040   -0.0265 C.ar      1 RES1    0.0000
     11 C7         0.9642    3.2794   -0.0337 C.ar      1 RES1    0.0000
     12 C8         0.0800    2.7480    0.9093 C.ar      1 RES1    0.0000
     13 H5         0.3952    2.1335    1.5320 H         1 RES1    0.0000
     14 C9        -1.2416    3.1116    0.9358 C.ar      1 RES1    0.0000
     15 H6        -1.8250    2.7388    1.5585 H         1 RES1    0.0000
     16 C10       -1.6933    4.0483    0.0120 C.ar      1 RES1    0.0000
     17 H7        -2.5834    4.3176    0.0289 H         1 RES1    0.0000
     18 C11       -0.8553    4.5705   -0.9057 C.ar      1 RES1    0.0000
     19 H8        -1.1808    5.2106   -1.4971 H         1 RES1    0.0000
     20 C12        0.4948    4.1811   -0.9997 C.ar      1 RES1    0.0000
     21 C13        1.4211    4.8233   -1.9295 C.ar      1 RES1    0.0000
     22 C14        1.0011    5.5673   -3.0701 C.ar      1 RES1    0.0000
     23 C15        1.9162    6.4166   -3.6482 C.ar      1 RES1    0.0000
     24 H9         1.6627    6.9068   -4.3974 H         1 RES1    0.0000
     25 C16        3.1850    6.5685   -3.1604 C.ar      1 RES1    0.0000
     26 H10        3.7210    7.2520   -3.4905 H         1 RES1    0.0000
     27 C17        3.6882    5.7252   -2.1885 C.ar      1 RES1    0.0000
     28 C18        2.8288    4.7563   -1.6392 C.ar      1 RES1    0.0000
     29 C19       -0.3532    5.4361   -3.7374 C.3       1 RES1    0.0000
     30 H11       -0.9348    6.1312   -3.4170 H         1 RES1    0.0000
     31 H12       -0.7318    4.5800   -3.5290 H         1 RES1    0.0000
     32 H13       -0.2511    5.5190   -4.6877 H         1 RES1    0.0000
     33 C20        5.1314    5.9747   -1.7476 C.3       1 RES1    0.0000
     34 H14        5.7281    5.4684   -2.3041 H         1 RES1    0.0000
     35 H15        5.2387    5.7031   -0.8335 H         1 RES1    0.0000
     36 H16        5.3346    6.9091   -1.8295 H         1 RES1    0.0000
     37 C21        1.5721    0.7227    4.2806 C.ar      2 RES2    0.0000
     38 C22        2.8990    0.2739    4.3456 C.ar      2 RES2    0.0000
     39 H17        3.5082    0.7595    4.8551 H         2 RES2    0.0000
     40 C23        3.3343   -0.8423    3.6952 C.ar      2 RES2    0.0000
     41 H18        4.2232   -1.1070    3.7687 H         2 RES2    0.0000
     42 C24        2.4574   -1.5742    2.9268 C.ar      2 RES2    0.0000
     43 H19        2.7563   -2.3176    2.4546 H         2 RES2    0.0000
     44 C25        1.1391   -1.1991    2.8654 C.ar      2 RES2    0.0000
     45 H20        0.5438   -1.7100    2.3667 H         2 RES2    0.0000
     46 C26        0.6706   -0.0603    3.5362 C.ar      2 RES2    0.0000
     47 C27       -0.7414    0.2992    3.5109 C.ar      2 RES2    0.0000
     48 C28       -1.6191   -0.2877    2.5703 C.ar      2 RES2    0.0000
     49 H21       -1.2906   -0.9045    1.9560 H         2 RES2    0.0000
     50 C29       -2.9529    0.0460    2.5534 C.ar      2 RES2    0.0000
     51 H22       -3.5269   -0.3636    1.9464 H         2 RES2    0.0000
     52 C30       -3.4333    0.9781    3.4266 C.ar      2 RES2    0.0000
     53 H23       -4.3349    1.2037    3.4086 H         2 RES2    0.0000
     54 C31       -2.6012    1.5834    4.3324 C.ar      2 RES2    0.0000
     55 H24       -2.9424    2.2325    4.9045 H         2 RES2    0.0000
     56 C32       -1.2357    1.2405    4.4094 C.ar      2 RES2    0.0000
     57 C33       -0.3108    1.9699    5.3224 C.ar      2 RES2    0.0000
     58 C34       -0.7585    2.7871    6.3763 C.ar      2 RES2    0.0000
     59 C35        0.1499    3.6709    6.9363 C.ar      2 RES2    0.0000
     60 H25       -0.1257    4.2186    7.6361 H         2 RES2    0.0000
     61 C36        1.4437    3.7630    6.4907 C.ar      2 RES2    0.0000
     62 H26        1.9852    4.4465    6.8111 H         2 RES2    0.0000
     63 C37        1.9618    2.8656    5.5777 C.ar      2 RES2    0.0000
     64 C38        1.0844    1.8769    5.0442 C.ar      2 RES2    0.0000
     65 C39       -2.1232    2.7319    7.0207 C.3       2 RES2    0.0000
     66 H27       -2.0509    2.9804    7.9445 H         2 RES2    0.0000
     67 H28       -2.4725    1.8389    6.9568 H         2 RES2    0.0000
     68 H29       -2.7153    3.3395    6.5702 H         2 RES2    0.0000
     69 C40        3.4095    3.0564    5.1863 C.3       2 RES2    0.0000
     70 H30        3.6585    3.9747    5.3212 H         2 RES2    0.0000
     71 H31        3.5228    2.8285    4.2613 H         2 RES2    0.0000
     72 H32        3.9652    2.4902    5.7271 H         2 RES2    0.0000
@<TRIPOS>BOND
     1    1    2 ar
     2    2    3 1
     3    4    2 ar
     4    5    4 1
     5    6    4 ar
     6    7    6 1
     7    8    6 ar
     8    9    8 1
     9   10    1 ar
    10   11   10 ar
    11   12   11 ar
    12   13   12 1
    13   14   12 ar
    14   15   14 1
    15   16   14 ar
    16   17   16 1
    17   18   16 ar
    18   19   18 1
    19   20   11 ar
    20   21   20 ar
    21   22   21 ar
    22   23   22 ar
    23   24   23 1
    24   25   23 ar
    25   26   25 1
    26   27   25 ar
    27   28    1 ar
    28   29   22 1
    29   30   29 1
    30   31   29 1
    31   32   29 1
    32   33   27 1
    33   34   33 1
    34   35   33 1
    35   36   33 1
    36   37   38 ar
    37   38   39 1
    38   40   38 ar
    39   41   40 1
    40   42   40 ar
    41   43   42 1
    42   44   42 ar
    43   45   44 1
    44   46   37 ar
    45   47   46 ar
    46   48   47 ar
    47   49   48 1
    48   50   48 ar
    49   51   50 1
    50   52   50 ar
    51   53   52 1
    52   54   52 ar
    53   55   54 1
    54   56   47 ar
    55   57   56 ar
    56   58   57 ar
    57   59   58 ar
    58   60   59 1
    59   61   59 ar
    60   62   61 1
    61   63   61 ar
    62   64   37 ar
    63   65   58 1
    64   66   65 1
    65   67   65 1
    66   68   65 1
    67   69   63 1
    68   70   69 1
    69   71   69 1
    70   72   69 1
    71    8   10 ar
    72   18   20 ar
    73   21   28 ar
    74   27   28 ar
    75   44   46 ar
    76   54   56 ar
    77   57   64 ar
    78   63   64 ar
@<TRIPOS>SUBSTRUCTURE
     1 RES1 1
     2 RES2 37

@<TRIPOS>CRYSIN
  10.0630   23.0150   12.9380  90.0000 111.4200  90.0000 231 1

