# MOL2 file generated by ConQuest
# Please check atom types

@<TRIPOS>MOLECULE
PUJQIV
    68    74     2
SMALL
NO_CHARGES
****
Generated from CSD

@<TRIPOS>ATOM
      1 C1         1.3389   -0.1863    7.8029 C.ar      1 RES1    0.0000
      2 H1         1.9580   -0.3788    7.1363 H         1 RES1    0.0000
      3 C2         1.6489   -0.4708    9.0891 C.ar      1 RES1    0.0000
      4 H2         2.4711   -0.8558    9.2894 H         1 RES1    0.0000
      5 C3         0.7385   -0.1873   10.1292 C.ar      1 RES1    0.0000
      6 C4         1.0140   -0.5048   11.4970 C.ar      1 RES1    0.0000
      7 H3         1.8135   -0.9182   11.7302 H         1 RES1    0.0000
      8 C5         0.0965   -0.1950   12.4541 C.ar      1 RES1    0.0000
      9 H4         0.2794   -0.4005   13.3426 H         1 RES1    0.0000
     10 C6        -1.1126    0.4234   12.1322 C.ar      1 RES1    0.0000
     11 H5        -1.7221    0.6290   12.8032 H         1 RES1    0.0000
     12 C7        -1.3989    0.7247   10.8403 C.ar      1 RES1    0.0000
     13 H6        -2.2075    1.1379   10.6400 H         1 RES1    0.0000
     14 C8        -0.5005    0.4275    9.7945 C.ar      1 RES1    0.0000
     15 C9        -0.7838    0.7070    8.4525 C.ar      1 RES1    0.0000
     16 H7        -1.5912    1.1152    8.2393 H         1 RES1    0.0000
     17 C10        0.0904    0.3990    7.4396 C.ar      1 RES1    0.0000
     18 C11       -0.2266    0.6048    6.0203 C.ar      1 RES1    0.0000
     19 C12       -1.4022    1.1968    5.5196 C.ar      1 RES1    0.0000
     20 H8        -2.0873    1.5466    6.0418 H         1 RES1    0.0000
     21 C13       -1.3897    1.1834    4.1332 C.ar      1 RES1    0.0000
     22 C14       -2.3737    1.6890    3.2920 C.ar      1 RES1    0.0000
     23 H9        -3.1141    2.0555    3.7183 H         1 RES1    0.0000
     24 C15       -2.4053    1.7224    1.9143 C.ar      1 RES1    0.0000
     25 H10       -3.1577    2.1141    1.5337 H         1 RES1    0.0000
     26 C16       -1.4479    1.2420    1.0186 C.ar      1 RES1    0.0000
     27 H11       -1.6537    1.3635    0.1202 H         1 RES1    0.0000
     28 C17       -0.2476    0.6164    1.2633 C.ar      1 RES1    0.0000
     29 H12        0.2340    0.3757    0.5065 H         1 RES1    0.0000
     30 C18        0.3442    0.2962    2.4579 C.ar      1 RES1    0.0000
     31 H13        1.1623   -0.1415    2.3964 H         1 RES1    0.0000
     32 C19       -0.1093    0.5324    3.7427 C.ar      1 RES1    0.0000
     33 C20        0.5373    0.1945    4.9330 C.ar      1 RES1    0.0000
     34 H14        1.3571   -0.2403    4.9902 H         1 RES1    0.0000
     35 C21        2.2066    3.7774    7.9446 C.ar      2 RES2    0.0000
     36 H15        1.3993    3.4155    7.6570 H         2 RES2    0.0000
     37 C22        2.5317    3.7345    9.3080 C.ar      2 RES2    0.0000
     38 C23        1.6307    3.2248   10.2852 C.ar      2 RES2    0.0000
     39 H16        0.8163    2.8695   10.0105 H         2 RES2    0.0000
     40 C24        1.9351    3.2453   11.6114 C.ar      2 RES2    0.0000
     41 H17        1.3358    2.8930   12.2295 H         2 RES2    0.0000
     42 C25        3.1423    3.7941   12.0492 C.ar      2 RES2    0.0000
     43 H18        3.3274    3.8319   12.9606 H         2 RES2    0.0000
     44 C26        4.0524    4.2759   11.1550 C.ar      2 RES2    0.0000
     45 H19        4.8616    4.6205   11.4569 H         2 RES2    0.0000
     46 C27        3.7685    4.2540    9.7587 C.ar      2 RES2    0.0000
     47 C28        4.6574    4.7787    8.7944 C.ar      2 RES2    0.0000
     48 H20        5.4891    5.0971    9.0605 H         2 RES2    0.0000
     49 C29        4.3122    4.8219    7.4925 C.ar      2 RES2    0.0000
     50 H21        4.9162    5.1765    6.8802 H         2 RES2    0.0000
     51 C30        3.0613    4.3467    7.0204 C.ar      2 RES2    0.0000
     52 C31        2.6946    4.5032    5.6040 C.ar      2 RES2    0.0000
     53 C32        3.4709    5.1464    4.6326 C.ar      2 RES2    0.0000
     54 H22        4.2987    5.5442    4.7813 H         2 RES2    0.0000
     55 C33        2.8127    5.0998    3.4093 C.ar      2 RES2    0.0000
     56 C34        3.2861    5.6095    2.2133 C.ar      2 RES2    0.0000
     57 H23        4.1102    6.0391    2.2562 H         2 RES2    0.0000
     58 C35        2.6977    5.5638    0.9671 C.ar      2 RES2    0.0000
     59 H24        3.1841    5.9668    0.2833 H         2 RES2    0.0000
     60 C36        1.5001    5.0114    0.5866 C.ar      2 RES2    0.0000
     61 H25        1.3062    5.0791   -0.3205 H         2 RES2    0.0000
     62 C37        0.5306    4.3650    1.3506 C.ar      2 RES2    0.0000
     63 H26       -0.2238    4.0794    0.8870 H         2 RES2    0.0000
     64 C38        0.5394    4.0907    2.7097 C.ar      2 RES2    0.0000
     65 H27       -0.2072    3.6454    3.0388 H         2 RES2    0.0000
     66 C39        1.5189    4.3972    3.6368 C.ar      2 RES2    0.0000
     67 C40        1.5054    4.0644    4.9945 C.ar      2 RES2    0.0000
     68 H28        0.8138    3.6191    5.4294 H         2 RES2    0.0000
@<TRIPOS>BOND
     1    1    2 1
     2    3    1 ar
     3    4    3 1
     4    5    3 ar
     5    6    5 ar
     6    7    6 1
     7    8    6 ar
     8    9    8 1
     9   10    8 ar
    10   11   10 1
    11   12   10 ar
    12   13   12 1
    13   14    5 ar
    14   15   14 ar
    15   16   15 1
    16   17    1 ar
    17   18   17 1
    18   19   18 ar
    19   20   19 1
    20   21   19 ar
    21   22   21 ar
    22   23   22 1
    23   24   22 ar
    24   25   24 1
    25   26   24 ar
    26   27   26 1
    27   28   26 ar
    28   29   28 1
    29   30   28 ar
    30   31   30 1
    31   32   21 ar
    32   33   18 ar
    33   34   33 1
    34   35   36 1
    35   37   35 ar
    36   38   37 ar
    37   39   38 1
    38   40   38 ar
    39   41   40 1
    40   42   40 ar
    41   43   42 1
    42   44   42 ar
    43   45   44 1
    44   46   37 ar
    45   47   46 ar
    46   48   47 1
    47   49   47 ar
    48   50   49 1
    49   51   35 ar
    50   52   51 1
    51   53   52 ar
    52   54   53 1
    53   55   53 ar
    54   56   55 ar
    55   57   56 1
    56   58   56 ar
    57   59   58 1
    58   60   58 ar
    59   61   60 1
    60   62   60 ar
    61   63   62 1
    62   64   62 ar
    63   65   64 1
    64   66   55 ar
    65   67   52 ar
    66   68   67 1
    67   12   14 ar
    68   15   17 ar
    69   30   32 ar
    70   32   33 ar
    71   44   46 ar
    72   49   51 ar
    73   64   66 ar
    74   66   67 ar
@<TRIPOS>SUBSTRUCTURE
     1 RES1 1
     2 RES2 35

@<TRIPOS>CRYSIN
   6.0754    7.6324   14.5662  97.9970  97.1790  90.5260   1 1

