# MOL2 file generated by ConQuest
# Please check atom types

@<TRIPOS>MOLECULE
PYRENE
    26    29     1
SMALL
NO_CHARGES
****
Generated from CSD

@<TRIPOS>ATOM
      1 C1         3.2223   -0.3721    3.4328 C.ar      1 RES1    0.0000
      2 C2         0.1167   -2.2177   -0.1092 C.ar      1 RES1    0.0000
      3 C3        -0.2459   -2.8416    1.1301 C.ar      1 RES1    0.0000
      4 C4         0.3758   -2.5658    2.2552 C.ar      1 RES1    0.0000
      5 C5         1.4843   -1.6059    2.2694 C.ar      1 RES1    0.0000
      6 C6         2.1909   -1.3069    3.4678 C.ar      1 RES1    0.0000
      7 C7         1.8695   -1.0098    1.0859 C.ar      1 RES1    0.0000
      8 C8         1.1862   -1.3042   -0.1133 C.ar      1 RES1    0.0000
      9 C9         3.6117    0.2277    2.2644 C.ar      1 RES1    0.0000
     10 C10        2.9412   -0.0713    1.0618 C.ar      1 RES1    0.0000
     11 C11        3.2967    0.5248   -0.1984 C.ar      1 RES1    0.0000
     12 C12        2.6721    0.2194   -1.3151 C.ar      1 RES1    0.0000
     13 C13        1.5940   -0.6831   -1.3384 C.ar      1 RES1    0.0000
     14 C14        0.8878   -1.0209   -2.5169 C.ar      1 RES1    0.0000
     15 C15       -0.1645   -1.9345   -2.4719 C.ar      1 RES1    0.0000
     16 C16       -0.5316   -2.5417   -1.3284 C.ar      1 RES1    0.0000
     17 H1         3.7182   -0.2777    4.3337 H         1 RES1    0.0000
     18 H2        -1.0306   -3.5173    1.1668 H         1 RES1    0.0000
     19 H3         0.1081   -3.0545    3.1669 H         1 RES1    0.0000
     20 H4         1.9287   -1.7586    4.4170 H         1 RES1    0.0000
     21 H5         4.5055    0.9256    2.2502 H         1 RES1    0.0000
     22 H6         4.1400    1.2033   -0.2500 H         1 RES1    0.0000
     23 H7         3.0014    0.7405   -2.2502 H         1 RES1    0.0000
     24 H8         1.1657   -0.5554   -3.4170 H         1 RES1    0.0000
     25 H9        -0.7452   -2.2214   -3.4170 H         1 RES1    0.0000
     26 H10       -1.3960   -3.2396   -1.3334 H         1 RES1    0.0000
@<TRIPOS>BOND
     1    1    6 ar
     2    2    3 ar
     3    3    4 ar
     4    4    5 ar
     5    5    6 ar
     6    6   20 1
     7    7    5 ar
     8    8    2 ar
     9    9    1 ar
    10   10    7 ar
    11   11   10 ar
    12   12   11 ar
    13   13    8 ar
    14   14   13 ar
    15   15   14 ar
    16   16    2 ar
    17   17    1 1
    18   18    3 1
    19   19    4 1
    20   21    9 1
    21   22   11 1
    22   23   12 1
    23   24   14 1
    24   25   15 1
    25   26   16 1
    26    7    8 ar
    27    9   10 ar
    28   12   13 ar
    29   15   16 ar
@<TRIPOS>SUBSTRUCTURE
     1 RES1 1

@<TRIPOS>CRYSIN
  13.6490    9.2560    8.4700  90.0000 100.2800  90.0000  14 2

