# MOL2 file generated by ConQuest
# Please check atom types

@<TRIPOS>MOLECULE
PYRENE08
    26    29     1
SMALL
NO_CHARGES
****
Generated from CSD

@<TRIPOS>ATOM
      1 C1         8.3561    0.1618    7.2942 C.ar      1 RES1    0.0000
      2 H1         8.8020    0.2080    8.1091 H         1 RES1    0.0000
      3 C2         8.9634    0.6618    6.1536 C.ar      1 RES1    0.0000
      4 H2         9.8091    1.0458    6.2125 H         1 RES1    0.0000
      5 C3         8.3173    0.5936    4.9127 C.ar      1 RES1    0.0000
      6 C4         8.9122    1.0824    3.7014 C.ar      1 RES1    0.0000
      7 H3         9.7597    1.4641    3.7460 H         1 RES1    0.0000
      8 C5         8.2974    1.0208    2.5035 C.ar      1 RES1    0.0000
      9 H4         8.7350    1.3274    1.7434 H         1 RES1    0.0000
     10 C6         6.9660    0.4753    2.3890 C.ar      1 RES1    0.0000
     11 C7         7.0940   -0.4021    7.2370 C.ar      1 RES1    0.0000
     12 H5         6.7064   -0.7377    8.0131 H         1 RES1    0.0000
     13 C8         7.0208    0.0158    4.8454 C.ar      1 RES1    0.0000
     14 C1B        5.0040   -0.1618    1.1238 C.ar      1 RES1    0.0000
     15 H1B        4.5581   -0.2080    0.3089 H         1 RES1    0.0000
     16 C2B        4.3967   -0.6618    2.2644 C.ar      1 RES1    0.0000
     17 H2B        3.5510   -1.0458    2.2055 H         1 RES1    0.0000
     18 C3B        5.0428   -0.5936    3.5053 C.ar      1 RES1    0.0000
     19 C4B        4.4479   -1.0824    4.7166 C.ar      1 RES1    0.0000
     20 H3B        3.6004   -1.4641    4.6720 H         1 RES1    0.0000
     21 C5B        5.0627   -1.0208    5.9145 C.ar      1 RES1    0.0000
     22 H4B        4.6251   -1.3274    6.6746 H         1 RES1    0.0000
     23 C6B        6.3941   -0.4753    6.0290 C.ar      1 RES1    0.0000
     24 C7B        6.2661    0.4021    1.1810 C.ar      1 RES1    0.0000
     25 H5B        6.6537    0.7377    0.4049 H         1 RES1    0.0000
     26 C8B        6.3393   -0.0158    3.5726 C.ar      1 RES1    0.0000
@<TRIPOS>BOND
     1    1    2 1
     2    3    1 ar
     3    4    3 1
     4    5    3 ar
     5    6    5 ar
     6    7    6 1
     7    8    6 ar
     8    9    8 1
     9   10    8 ar
    10   11    1 ar
    11   12   11 1
    12   13    5 ar
    13   14   15 1
    14   16   14 ar
    15   17   16 1
    16   18   16 ar
    17   19   18 ar
    18   20   19 1
    19   21   19 ar
    20   22   21 1
    21   23   11 ar
    22   24   10 ar
    23   25   24 1
    24   26   10 ar
    25   13   23 ar
    26   13   26 ar
    27   14   24 ar
    28   18   26 ar
    29   21   23 ar
@<TRIPOS>SUBSTRUCTURE
     1 RES1 1

@<TRIPOS>CRYSIN
  15.3500    3.8520    8.6500  90.0000 103.3000  90.0000  14 2

