# MOL2 file generated by ConQuest
# Please check atom types

@<TRIPOS>MOLECULE
PYRENE03
    26    29     1
SMALL
NO_CHARGES
****
Generated from CSD

@<TRIPOS>ATOM
      1 C1         3.1959   -0.3242    3.4440 C.ar      1 RES1    0.0000
      2 C2         3.5771    0.2766    2.2564 C.ar      1 RES1    0.0000
      3 C3         2.9200   -0.0348    1.0564 C.ar      1 RES1    0.0000
      4 C4         3.2964    0.5413   -0.2022 C.ar      1 RES1    0.0000
      5 C5         2.6509    0.2262   -1.3469 C.ar      1 RES1    0.0000
      6 C6         1.5529   -0.6979   -1.3510 C.ar      1 RES1    0.0000
      7 C7         0.8672   -1.0487   -2.5205 C.ar      1 RES1    0.0000
      8 C8        -0.1839   -1.9472   -2.4925 C.ar      1 RES1    0.0000
      9 C9        -0.5779   -2.5306   -1.3015 C.ar      1 RES1    0.0000
     10 C10        0.0774   -2.2183   -0.0990 C.ar      1 RES1    0.0000
     11 C11       -0.2924   -2.8054    1.1604 C.ar      1 RES1    0.0000
     12 C12        0.3614   -2.5032    2.3043 C.ar      1 RES1    0.0000
     13 C13        1.4599   -1.5753    2.3134 C.ar      1 RES1    0.0000
     14 C14        2.1627   -1.2493    3.4779 C.ar      1 RES1    0.0000
     15 C15        1.8385   -0.9635    1.0878 C.ar      1 RES1    0.0000
     16 C16        1.1489   -1.2887   -0.1197 C.ar      1 RES1    0.0000
     17 H1         3.6369   -0.0916    4.2834 H         1 RES1    0.0000
     18 H2         4.3212    0.9251    2.2201 H         1 RES1    0.0000
     19 H3         4.0443    1.1632   -0.2146 H         1 RES1    0.0000
     20 H4         2.9260    0.6228   -2.1871 H         1 RES1    0.0000
     21 H5         1.1592   -0.6411   -3.3425 H         1 RES1    0.0000
     22 H6        -0.6555   -2.1890   -3.3343 H         1 RES1    0.0000
     23 H7        -1.3594   -3.1324   -1.2380 H         1 RES1    0.0000
     24 H8        -1.0539   -3.4255    1.1885 H         1 RES1    0.0000
     25 H9         0.0885   -2.9309    3.1775 H         1 RES1    0.0000
     26 H10        1.8958   -1.7127    4.3329 H         1 RES1    0.0000
@<TRIPOS>BOND
     1    1    2 ar
     2    2    3 ar
     3    3    4 ar
     4    4    5 ar
     5    5    6 ar
     6    6    7 ar
     7    7    8 ar
     8    8    9 ar
     9    9   10 ar
    10   10   11 ar
    11   11   12 ar
    12   12   13 ar
    13   13   14 ar
    14   14    1 ar
    15   15    3 ar
    16   16    6 ar
    17   17    1 1
    18   18    2 1
    19   19    4 1
    20   20    5 1
    21   21    7 1
    22   22    8 1
    23   23    9 1
    24   24   11 1
    25   25   12 1
    26   26   14 1
    27   10   16 ar
    28   13   15 ar
    29   15   16 ar
@<TRIPOS>SUBSTRUCTURE
     1 RES1 1

@<TRIPOS>CRYSIN
  13.5320    9.1590    8.3870  90.0000 100.2500  90.0000  14 2

