# MOL2 file generated by ConQuest
# Please check atom types

@<TRIPOS>MOLECULE
PYROPD
    56    64     1
SMALL
NO_CHARGES
****
Generated from CSD

@<TRIPOS>ATOM
      1 C1        -0.8803   -5.2002    1.7603 C.2       1 RES1    0.0000
      2 C2        -1.1142   -4.3476    2.7731 C.2       1 RES1    0.0000
      3 C3        -0.1464   -4.2794    3.9094 C.ar      1 RES1    0.0000
      4 C4        -0.3159   -5.0815    5.0393 C.ar      1 RES1    0.0000
      5 C5         0.7555   -5.3492    5.9076 C.ar      1 RES1    0.0000
      6 C6         0.6563   -6.2966    6.9872 C.ar      1 RES1    0.0000
      7 C7         1.7554   -6.7222    7.6523 C.ar      1 RES1    0.0000
      8 C8         3.0715   -6.2536    7.3028 C.ar      1 RES1    0.0000
      9 C9         4.2387   -6.8839    7.7758 C.ar      1 RES1    0.0000
     10 C10        0.2978   -6.1197    1.8591 C.ar      1 RES1    0.0000
     11 C11        0.1924   -7.2426    2.6834 C.ar      1 RES1    0.0000
     12 C12        1.3225   -7.8918    3.1848 C.ar      1 RES1    0.0000
     13 C13        1.2338   -8.9175    4.1830 C.ar      1 RES1    0.0000
     14 C14        2.3313   -9.3469    4.8518 C.ar      1 RES1    0.0000
     15 C15        3.6324   -8.7861    4.5828 C.ar      1 RES1    0.0000
     16 C16        1.0639   -3.6036    3.7283 C.ar      1 RES1    0.0000
     17 C17        2.0231   -4.7733    5.6322 C.ar      1 RES1    0.0000
     18 C18        3.1823   -5.2204    6.3348 C.ar      1 RES1    0.0000
     19 H1        -1.4937   -5.2671    0.9790 H         1 RES1    0.0000
     20 H2        -1.9131   -3.7388    2.7081 H         1 RES1    0.0000
     21 H3        -1.1951   -5.5576    5.1784 H         1 RES1    0.0000
     22 H4        -0.2185   -6.6818    7.2186 H         1 RES1    0.0000
     23 H5         1.6848   -7.3765    8.3623 H         1 RES1    0.0000
     24 H6         4.1976   -7.7554    8.4812 H         1 RES1    0.0000
     25 H7        -0.7298   -7.5281    3.0558 H         1 RES1    0.0000
     26 H8         0.3549   -9.3469    4.4282 H         1 RES1    0.0000
     27 H9         2.2483  -10.0543    5.5718 H         1 RES1    0.0000
     28 H10        1.1549   -2.9557    2.9277 H         1 RES1    0.0000
     29 C10B       5.4921   -6.5113    7.2900 C.ar      1 RES1    0.0000
     30 C9B        1.5512   -5.7471    1.3733 C.ar      1 RES1    0.0000
     31 C18B       2.6076   -7.4106    2.8143 C.ar      1 RES1    0.0000
     32 C16B       4.7260   -9.0274    5.4208 C.ar      1 RES1    0.0000
     33 C17B       3.7668   -7.8577    3.5169 C.ar      1 RES1    0.0000
     34 C15B       2.1575   -3.8449    4.5663 C.ar      1 RES1    0.0000
     35 C12B       4.4674   -4.7392    5.9643 C.ar      1 RES1    0.0000
     36 C1B        6.6703   -7.4308    7.3888 C.2       1 RES1    0.0000
     37 C11B       5.5976   -5.3884    6.4657 C.ar      1 RES1    0.0000
     38 C8B        2.7184   -6.3774    1.8463 C.ar      1 RES1    0.0000
     39 H6B        1.5923   -4.8756    0.6679 H         1 RES1    0.0000
     40 C3B        5.9363   -8.3516    5.2397 C.ar      1 RES1    0.0000
     41 H10B       4.6350   -9.6753    6.2214 H         1 RES1    0.0000
     42 C5B        5.0345   -7.2818    3.2415 C.ar      1 RES1    0.0000
     43 C14B       3.4587   -3.2841    4.2973 C.ar      1 RES1    0.0000
     44 C13B       4.5562   -3.7135    4.9661 C.ar      1 RES1    0.0000
     45 C2B        6.9041   -8.2834    6.3760 C.2       1 RES1    0.0000
     46 H1B        7.2837   -7.3639    8.1701 H         1 RES1    0.0000
     47 H7B        6.5198   -5.1029    6.0933 H         1 RES1    0.0000
     48 C7B        4.0345   -5.9088    1.4968 C.ar      1 RES1    0.0000
     49 C4B        6.1059   -7.5495    4.1098 C.ar      1 RES1    0.0000
     50 C6B        5.1337   -6.3344    2.1619 C.ar      1 RES1    0.0000
     51 H9B        3.5416   -2.5767    3.5773 H         1 RES1    0.0000
     52 H8B        5.4350   -3.2841    4.7209 H         1 RES1    0.0000
     53 H2B        7.7030   -8.8922    6.4410 H         1 RES1    0.0000
     54 H5B        4.1052   -5.2545    0.7868 H         1 RES1    0.0000
     55 H3B        6.9850   -7.0734    3.9707 H         1 RES1    0.0000
     56 H4B        6.0084   -5.9492    1.9305 H         1 RES1    0.0000
@<TRIPOS>BOND
     1    1    2 2
     2    2    3 1
     3    3    4 ar
     4    4    5 ar
     5    5    6 ar
     6    6    7 ar
     7    7    8 ar
     8    8    9 ar
     9    9   24 1
    10   10    1 1
    11   11   10 ar
    12   12   11 ar
    13   13   12 ar
    14   14   13 ar
    15   15   14 ar
    16   16    3 ar
    17   17    5 ar
    18   18    8 ar
    19   19    1 1
    20   20    2 1
    21   21    4 1
    22   22    6 1
    23   23    7 1
    24   25   11 1
    25   26   13 1
    26   27   14 1
    27   28   16 1
    28   29    9 ar
    29   30   10 ar
    30   31   12 ar
    31   32   15 ar
    32   33   15 ar
    33   34   16 ar
    34   35   18 ar
    35   36   29 1
    36   37   29 ar
    37   38   30 ar
    38   39   30 1
    39   40   32 ar
    40   41   32 1
    41   42   33 ar
    42   43   34 ar
    43   44   35 ar
    44   45   36 2
    45   46   36 1
    46   47   37 1
    47   48   38 ar
    48   49   40 ar
    49   50   42 ar
    50   51   43 1
    51   52   44 1
    52   53   45 1
    53   54   48 1
    54   55   49 1
    55   56   50 1
    56   17   18 ar
    57   17   34 ar
    58   31   33 ar
    59   31   38 ar
    60   35   37 ar
    61   40   45 1
    62   42   49 ar
    63   43   44 ar
    64   48   50 ar
@<TRIPOS>SUBSTRUCTURE
     1 RES1 1

@<TRIPOS>CRYSIN
   9.8290   12.6310   10.0010  90.0000 113.8200  90.0000  14 1

