# MOL2 file generated by ConQuest
# Please check atom types

@<TRIPOS>MOLECULE
PYRPYR10
    46    53     1
SMALL
NO_CHARGES
****
Generated from CSD

@<TRIPOS>ATOM
      1 C1        -8.2946   -1.7563    3.4787 C.ar      1 RES1    0.0000
      2 C2        -4.6057   -2.3847    3.7090 C.ar      1 RES1    0.0000
      3 C3        -3.5459   -2.2135    4.7090 C.ar      1 RES1    0.0000
      4 C4        -3.9037   -2.1133    6.0376 C.ar      1 RES1    0.0000
      5 C5        -5.2566   -1.6769    6.4019 C.ar      1 RES1    0.0000
      6 C6        -5.5672   -1.1241    7.6484 C.ar      1 RES1    0.0000
      7 C7        -6.8469   -0.6646    7.9484 C.ar      1 RES1    0.0000
      8 C8        -7.8386   -0.7656    7.0073 C.ar      1 RES1    0.0000
      9 C9        -2.1421   -2.1642    4.3358 C.ar      1 RES1    0.0000
     10 C10       -1.7107   -1.8296    3.0465 C.ar      1 RES1    0.0000
     11 C11       -0.3571   -1.7640    2.7679 C.ar      1 RES1    0.0000
     12 C12       -8.5735   -1.3007    4.7126 C.ar      1 RES1    0.0000
     13 C13        0.6040   -2.0601    3.7072 C.ar      1 RES1    0.0000
     14 C14        0.2095   -2.3508    4.9965 C.ar      1 RES1    0.0000
     15 C15       -1.1741   -2.3562    5.3448 C.ar      1 RES1    0.0000
     16 C16       -1.5669   -2.6029    6.6966 C.ar      1 RES1    0.0000
     17 C17       -2.9243   -2.5004    7.0645 C.ar      1 RES1    0.0000
     18 C18       -3.2618   -2.9113    8.3556 C.ar      1 RES1    0.0000
     19 C19       -2.3415   -3.3492    9.2752 C.ar      1 RES1    0.0000
     20 C20       -0.9956   -3.3415    8.9359 C.ar      1 RES1    0.0000
     21 C21       -0.5882   -2.9861    7.6591 C.ar      1 RES1    0.0000
     22 C22        0.7891   -2.9730    7.2716 C.ar      1 RES1    0.0000
     23 C23       -7.5632   -1.2606    5.7287 C.ar      1 RES1    0.0000
     24 C24        1.1640   -2.6630    6.0305 C.ar      1 RES1    0.0000
     25 C25       -6.2516   -1.6731    5.3966 C.ar      1 RES1    0.0000
     26 C26       -5.9476   -2.0886    4.0751 C.ar      1 RES1    0.0000
     27 C27       -6.9825   -2.1935    3.0947 C.ar      1 RES1    0.0000
     28 C28       -6.6797   -2.6607    1.8286 C.ar      1 RES1    0.0000
     29 C29       -5.4135   -3.0601    1.5268 C.ar      1 RES1    0.0000
     30 C30       -4.3874   -2.9367    2.4411 C.ar      1 RES1    0.0000
     31 H1        -8.9176   -1.7502    2.7679 H         1 RES1    0.0000
     32 H2        -4.8912   -1.0023    8.2323 H         1 RES1    0.0000
     33 H3        -7.0148   -0.1850    8.8931 H         1 RES1    0.0000
     34 H4        -8.6452   -0.4240    7.2145 H         1 RES1    0.0000
     35 H5        -2.3078   -1.5883    2.2858 H         1 RES1    0.0000
     36 H6        -0.0102   -1.4880    1.9108 H         1 RES1    0.0000
     37 H7        -9.4849   -0.8558    4.9287 H         1 RES1    0.0000
     38 H8         1.5564   -2.1819    3.4644 H         1 RES1    0.0000
     39 H9        -4.1536   -2.8990    8.5716 H         1 RES1    0.0000
     40 H10       -2.5731   -3.8627   10.1967 H         1 RES1    0.0000
     41 H11       -0.4059   -3.6391    9.6252 H         1 RES1    0.0000
     42 H12        1.3783   -3.3153    7.9645 H         1 RES1    0.0000
     43 H13        2.0197   -2.7448    5.6430 H         1 RES1    0.0000
     44 H14       -7.3220   -2.5983    1.0179 H         1 RES1    0.0000
     45 H15       -5.2108   -3.4541    0.7679 H         1 RES1    0.0000
     46 H16       -3.5237   -3.2151    2.1965 H         1 RES1    0.0000
@<TRIPOS>BOND
     1    1   12 ar
     2    2    3 ar
     3    3    4 ar
     4    4    5 ar
     5    5    6 ar
     6    6    7 ar
     7    7    8 ar
     8    8   23 ar
     9    9    3 ar
    10   10    9 ar
    11   11   10 ar
    12   12   23 ar
    13   13   11 ar
    14   14   13 ar
    15   15    9 ar
    16   16   15 ar
    17   17    4 ar
    18   18   17 ar
    19   19   18 ar
    20   20   19 ar
    21   21   16 ar
    22   22   21 ar
    23   23   25 ar
    24   24   14 ar
    25   25    5 ar
    26   26    2 ar
    27   27    1 ar
    28   28   27 ar
    29   29   28 ar
    30   30    2 ar
    31   31    1 1
    32   32    6 1
    33   33    7 1
    34   34    8 1
    35   35   10 1
    36   36   11 1
    37   37   12 1
    38   38   13 1
    39   39   18 1
    40   40   19 1
    41   41   20 1
    42   42   22 1
    43   43   24 1
    44   44   28 1
    45   45   29 1
    46   46   30 1
    47   14   15 ar
    48   16   17 ar
    49   20   21 ar
    50   22   24 ar
    51   25   26 ar
    52   26   27 ar
    53   29   30 ar
@<TRIPOS>SUBSTRUCTURE
     1 RES1 1

@<TRIPOS>CRYSIN
  13.1700    7.7100   20.3200  90.0000 118.5000  90.0000  14 1

