# MOL2 file generated by ConQuest
# Please check atom types

@<TRIPOS>MOLECULE
PYRPYR11
    46    53     1
SMALL
NO_CHARGES
****
Generated from CSD

@<TRIPOS>ATOM
      1 C1         0.4341    0.9050    6.5104 C.ar      1 RES1    0.0000
      2 H1         1.3043    0.6060    6.7445 H         1 RES1    0.0000
      3 C2        -0.5910    0.7963    7.4382 C.ar      1 RES1    0.0000
      4 H2        -0.4095    0.4322    8.2965 H         1 RES1    0.0000
      5 C3        -1.8701    1.2098    7.1292 C.ar      1 RES1    0.0000
      6 H3        -2.5492    1.1874    7.7940 H         1 RES1    0.0000
      7 C4        -3.4933    2.0901    5.4818 C.ar      1 RES1    0.0000
      8 H4        -4.1866    2.0556    6.1297 H         1 RES1    0.0000
      9 C5        -3.7707    2.5403    4.2379 C.ar      1 RES1    0.0000
     10 H5        -4.6493    2.8400    4.0342 H         1 RES1    0.0000
     11 C6        -3.0431    3.0302    1.9250 C.ar      1 RES1    0.0000
     12 H6        -3.9297    3.2789    1.6928 H         1 RES1    0.0000
     13 C7        -2.0368    3.1200    0.9870 C.ar      1 RES1    0.0000
     14 H7        -2.2230    3.4842    0.1301 H         1 RES1    0.0000
     15 C8        -0.7530    2.6817    1.2864 C.ar      1 RES1    0.0000
     16 H8        -0.0753    2.7523    0.6254 H         1 RES1    0.0000
     17 C9         1.5536    0.9090    0.5895 C.ar      1 RES1    0.0000
     18 H9         0.6378    0.9162    0.3386 H         1 RES1    0.0000
     19 C10        2.4982    0.4742   -0.3300 C.ar      1 RES1    0.0000
     20 H10        2.2180    0.1641   -1.1832 H         1 RES1    0.0000
     21 C11        3.8415    0.4884   -0.0119 C.ar      1 RES1    0.0000
     22 H11        4.4863    0.2412   -0.6646 H         1 RES1    0.0000
     23 C12        5.6394    0.8787    1.6481 C.ar      1 RES1    0.0000
     24 H12        6.2993    0.6652    0.9979 H         1 RES1    0.0000
     25 C13        6.0258    1.1859    2.9040 C.ar      1 RES1    0.0000
     26 H13        6.9515    1.2076    3.1148 H         1 RES1    0.0000
     27 C14        5.4491    1.7627    5.2397 C.ar      1 RES1    0.0000
     28 H14        6.3691    1.7605    5.4758 H         1 RES1    0.0000
     29 C15        4.4957    2.0445    6.1917 C.ar      1 RES1    0.0000
     30 H15        4.7682    2.2804    7.0706 H         1 RES1    0.0000
     31 C16        3.1438    1.9892    5.8899 C.ar      1 RES1    0.0000
     32 H16        2.5086    2.1845    6.5681 H         1 RES1    0.0000
     33 C17       -2.1710    1.6623    5.8416 C.ar      1 RES1    0.0000
     34 C18       -2.7606    2.5739    3.2194 C.ar      1 RES1    0.0000
     35 C19       -1.1312    1.7394    4.8731 C.ar      1 RES1    0.0000
     36 C20       -1.4398    2.1487    3.5378 C.ar      1 RES1    0.0000
     37 C21        0.2150    1.4463    5.2340 C.ar      1 RES1    0.0000
     38 C22       -0.4286    2.1374    2.5383 C.ar      1 RES1    0.0000
     39 C23        1.2724    1.6024    4.2375 C.ar      1 RES1    0.0000
     40 C24        0.9214    1.7040    2.8917 C.ar      1 RES1    0.0000
     41 C25        2.6924    1.6515    4.6046 C.ar      1 RES1    0.0000
     42 C26        1.9084    1.3376    1.8765 C.ar      1 RES1    0.0000
     43 C27        3.6769    1.4669    3.5966 C.ar      1 RES1    0.0000
     44 C28        3.2794    1.2295    2.2443 C.ar      1 RES1    0.0000
     45 C29        5.0619    1.4801    3.9252 C.ar      1 RES1    0.0000
     46 C30        4.2542    0.8670    1.2712 C.ar      1 RES1    0.0000
@<TRIPOS>BOND
     1    1    2 1
     2    3    1 ar
     3    4    3 1
     4    5    3 ar
     5    6    5 1
     6    7    8 1
     7    9    7 ar
     8   10    9 1
     9   11   12 1
    10   13   11 ar
    11   14   13 1
    12   15   13 ar
    13   16   15 1
    14   17   18 1
    15   19   17 ar
    16   20   19 1
    17   21   19 ar
    18   22   21 1
    19   23   24 1
    20   25   23 ar
    21   26   25 1
    22   27   28 1
    23   29   27 ar
    24   30   29 1
    25   31   29 ar
    26   32   31 1
    27   33    5 ar
    28   34    9 ar
    29   35   33 ar
    30   36   34 ar
    31   37    1 ar
    32   38   15 ar
    33   39   37 ar
    34   40   38 ar
    35   41   31 ar
    36   42   17 ar
    37   43   41 ar
    38   44   42 ar
    39   45   25 ar
    40   46   21 ar
    41    7   33 ar
    42   11   34 ar
    43   23   46 ar
    44   27   45 ar
    45   35   36 ar
    46   35   37 ar
    47   36   38 ar
    48   39   40 ar
    49   39   41 ar
    50   40   42 ar
    51   43   44 ar
    52   43   45 ar
    53   44   46 ar
@<TRIPOS>SUBSTRUCTURE
     1 RES1 1

@<TRIPOS>CRYSIN
  13.1759    7.4913   18.1519  90.0000 100.9900  90.0000 231 1

