# MOL2 file generated by ConQuest
# Please check atom types

@<TRIPOS>MOLECULE
QAPLIF
    70    74     2
SMALL
NO_CHARGES
****
Generated from CSD

@<TRIPOS>ATOM
      1 C1         3.1590   17.3996    1.5109 C.ar      1 RES1    0.0000
      2 H1         2.4730   16.9251    1.1011 H         1 RES1    0.0000
      3 C2         3.1804   18.7753    1.4205 C.ar      1 RES1    0.0000
      4 H2         2.5108   19.2173    0.9502 H         1 RES1    0.0000
      5 C3         4.1714   19.4915    2.0139 C.ar      1 RES1    0.0000
      6 H3         4.1821   20.4197    1.9470 H         1 RES1    0.0000
      7 C4         5.1544   18.8422    2.7115 C.ar      1 RES1    0.0000
      8 H4         5.8292   19.3288    3.1267 H         1 RES1    0.0000
      9 C5         5.1433   17.4651    2.7989 C.ar      1 RES1    0.0000
     10 H5         5.8204   17.0337    3.2679 H         1 RES1    0.0000
     11 C6         4.1443   16.7133    2.2034 C.ar      1 RES1    0.0000
     12 C7         4.1090   15.2413    2.2630 C.2       1 RES1    0.0000
     13 H6         3.4016   14.8299    1.8218 H         1 RES1    0.0000
     14 C8         4.9541   14.4459    2.8628 C.2       1 RES1    0.0000
     15 H7         5.6659   14.8434    3.3097 H         1 RES1    0.0000
     16 C9         4.8805   12.9530    2.8943 C.3       1 RES1    0.0000
     17 H8         4.0275   12.6792    2.5216 H         1 RES1    0.0000
     18 H9         4.9015   12.6635    3.8201 H         1 RES1    0.0000
     19 C10        5.9850   12.2384    2.1410 C.ar      1 RES1    0.0000
     20 C11        6.9252   12.9222    1.4271 C.ar      1 RES1    0.0000
     21 H10        6.8772   13.8497    1.3916 H         1 RES1    0.0000
     22 C12        7.9599   12.2693    0.7468 C.ar      1 RES1    0.0000
     23 H11        8.5833   12.7649    0.2664 H         1 RES1    0.0000
     24 C13        8.0580   10.9168    0.7836 C.ar      1 RES1    0.0000
     25 H12        8.7562   10.4924    0.3387 H         1 RES1    0.0000
     26 C14        7.1120   10.1508    1.4885 C.ar      1 RES1    0.0000
     27 C15        7.1745    8.7338    1.5166 C.ar      1 RES1    0.0000
     28 H13        7.8682    8.2976    1.0770 H         1 RES1    0.0000
     29 C16        6.2416    8.0092    2.1733 C.ar      1 RES1    0.0000
     30 H14        6.2943    7.0811    2.1749 H         1 RES1    0.0000
     31 C17        5.2010    8.6455    2.8469 C.ar      1 RES1    0.0000
     32 H15        4.5655    8.1388    3.2984 H         1 RES1    0.0000
     33 C18        5.1068   10.0080    2.8488 C.ar      1 RES1    0.0000
     34 H16        4.4056   10.4169    3.3032 H         1 RES1    0.0000
     35 C19        6.0525   10.8066    2.1739 C.ar      1 RES1    0.0000
     36 C20        0.1419   18.5587    6.4357 C.ar      2 RES2    0.0000
     37 H17       -0.5358   18.0871    6.8633 H         2 RES2    0.0000
     38 C21        0.1430   19.9343    6.4903 C.ar      2 RES2    0.0000
     39 H18       -0.5255   20.3786    6.9596 H         2 RES2    0.0000
     40 C22        1.1161   20.6485    5.8616 C.ar      2 RES2    0.0000
     41 H19        1.1125   21.5777    5.8987 H         2 RES2    0.0000
     42 C23        2.1011   19.9885    5.1746 C.ar      2 RES2    0.0000
     43 H20        2.7664   20.4725    4.7414 H         2 RES2    0.0000
     44 C24        2.1109   18.6119    5.1232 C.ar      2 RES2    0.0000
     45 H21        2.7866   18.1756    4.6563 H         2 RES2    0.0000
     46 C25        1.1268   17.8654    5.7589 C.ar      2 RES2    0.0000
     47 C26        1.0946   16.3921    5.7390 C.2       2 RES2    0.0000
     48 H22        0.3716   15.9914    6.1651 H         2 RES2    0.0000
     49 C27        1.9621   15.5807    5.1924 C.2       2 RES2    0.0000
     50 H23        2.6990   15.9636    4.7735 H         2 RES2    0.0000
     51 C28        1.8676   14.0871    5.1850 C.3       2 RES2    0.0000
     52 H24        1.8814   13.7833    4.2631 H         2 RES2    0.0000
     53 H25        1.0115   13.8317    5.5632 H         2 RES2    0.0000
     54 C29        2.9600   13.3630    5.9431 C.ar      2 RES2    0.0000
     55 C30        3.9113   14.0396    6.6460 C.ar      2 RES2    0.0000
     56 H26        3.8822   14.9693    6.6707 H         2 RES2    0.0000
     57 C31        4.9318   13.3702    7.3326 C.ar      2 RES2    0.0000
     58 H27        5.5648   13.8591    7.8055 H         2 RES2    0.0000
     59 C32        5.0061   12.0158    7.3151 C.ar      2 RES2    0.0000
     60 H28        5.6961   11.5846    7.7670 H         2 RES2    0.0000
     61 C33        4.0440   11.2563    6.6161 C.ar      2 RES2    0.0000
     62 C34        4.0699    9.8406    6.6067 C.ar      2 RES2    0.0000
     63 H29        4.7472    9.3926    7.0607 H         2 RES2    0.0000
     64 C35        3.1272    9.1274    5.9479 C.ar      2 RES2    0.0000
     65 H30        3.1565    8.1977    5.9596 H         2 RES2    0.0000
     66 C36        2.1106    9.7842    5.2520 C.ar      2 RES2    0.0000
     67 H31        1.4716    9.2890    4.7928 H         2 RES2    0.0000
     68 C37        2.0465   11.1483    5.2396 C.ar      2 RES2    0.0000
     69 H32        1.3620   11.5690    4.7719 H         2 RES2    0.0000
     70 C38        3.0001   11.9310    5.9237 C.ar      2 RES2    0.0000
@<TRIPOS>BOND
     1    1    2 1
     2    3    1 ar
     3    4    3 1
     4    5    3 ar
     5    6    5 1
     6    7    5 ar
     7    8    7 1
     8    9    7 ar
     9   10    9 1
    10   11    1 ar
    11   12   11 1
    12   13   12 1
    13   14   12 2
    14   15   14 1
    15   16   14 1
    16   17   16 1
    17   18   16 1
    18   19   16 1
    19   20   19 ar
    20   21   20 1
    21   22   20 ar
    22   23   22 1
    23   24   22 ar
    24   25   24 1
    25   26   24 ar
    26   27   26 ar
    27   28   27 1
    28   29   27 ar
    29   30   29 1
    30   31   29 ar
    31   32   31 1
    32   33   31 ar
    33   34   33 1
    34   35   19 ar
    35   36   37 1
    36   38   36 ar
    37   39   38 1
    38   40   38 ar
    39   41   40 1
    40   42   40 ar
    41   43   42 1
    42   44   42 ar
    43   45   44 1
    44   46   36 ar
    45   47   46 1
    46   48   47 1
    47   49   47 2
    48   50   49 1
    49   51   49 1
    50   52   51 1
    51   53   51 1
    52   54   51 1
    53   55   54 ar
    54   56   55 1
    55   57   55 ar
    56   58   57 1
    57   59   57 ar
    58   60   59 1
    59   61   59 ar
    60   62   61 ar
    61   63   62 1
    62   64   62 ar
    63   65   64 1
    64   66   64 ar
    65   67   66 1
    66   68   66 ar
    67   69   68 1
    68   70   54 ar
    69    9   11 ar
    70   26   35 ar
    71   33   35 ar
    72   44   46 ar
    73   61   70 ar
    74   68   70 ar
@<TRIPOS>SUBSTRUCTURE
     1 RES1 1
     2 RES2 36

@<TRIPOS>CRYSIN
   6.0778   14.2353   16.2220  81.6867  89.9601  85.8639   2 1

