# MOL2 file generated by ConQuest
# Please check atom types

@<TRIPOS>MOLECULE
QAQQEH
    66    73     1
SMALL
NO_CHARGES
****
Generated from CSD

@<TRIPOS>ATOM
      1 C1        10.6409    0.9088   -0.6430 C.ar      1 RES1    0.0000
      2 C2         9.1647    0.3476    1.2880 C.ar      1 RES1    0.0000
      3 C3        12.5252   -0.3081    1.2249 C.ar      1 RES1    0.0000
      4 C4        10.6896   -2.7067   -1.9217 C.ar      1 RES1    0.0000
      5 C5        12.2844   -0.6905    2.5388 C.ar      1 RES1    0.0000
      6 H1        11.7600   -1.4632    2.7138 H         1 RES1    0.0000
      7 C6        11.0151    3.2416   -1.3999 C.ar      1 RES1    0.0000
      8 C7         9.7351    1.3238    0.2992 C.ar      1 RES1    0.0000
      9 C8         9.0046   -0.4047    3.5814 C.ar      1 RES1    0.0000
     10 H2         9.1992   -0.2749    4.5029 H         1 RES1    0.0000
     11 C9        10.0323    3.6861   -0.4255 C.ar      1 RES1    0.0000
     12 C10       11.2791    1.8539   -1.5345 C.ar      1 RES1    0.0000
     13 C11        9.3791    2.7269    0.3986 C.ar      1 RES1    0.0000
     14 C12       11.0221   -0.5415   -0.7548 C.ar      1 RES1    0.0000
     15 C13       11.6992   -3.2946   -1.0551 C.ar      1 RES1    0.0000
     16 C14       11.7119    4.1364   -2.2365 C.ar      1 RES1    0.0000
     17 H3        11.5550    5.0689   -2.1495 H         1 RES1    0.0000
     18 C15        9.6887    5.0477   -0.2568 C.ar      1 RES1    0.0000
     19 H4        10.1246    5.7021   -0.7900 H         1 RES1    0.0000
     20 C16       12.8536    2.3271   -3.3184 C.ar      1 RES1    0.0000
     21 H5        13.4672    2.0201   -3.9769 H         1 RES1    0.0000
     22 C17        8.7174   -1.5450   -3.5421 C.ar      1 RES1    0.0000
     23 H6         8.0437   -1.1546   -4.0857 H         1 RES1    0.0000
     24 C18       12.7989    0.0422    3.5990 C.ar      1 RES1    0.0000
     25 H7        12.6210   -0.2270    4.4926 H         1 RES1    0.0000
     26 C19       12.3052   -2.4983   -0.0456 C.ar      1 RES1    0.0000
     27 C20        9.4307    0.5207    2.6506 C.ar      1 RES1    0.0000
     28 H8         9.9118    1.2876    2.9384 H         1 RES1    0.0000
     29 C21       10.3768   -1.3412   -1.7829 C.ar      1 RES1    0.0000
     30 C22       11.9284   -1.1064    0.1015 C.ar      1 RES1    0.0000
     31 C23        8.3732    3.1705    1.2953 C.ar      1 RES1    0.0000
     32 H9         7.8995    2.5327    1.8171 H         1 RES1    0.0000
     33 C24       13.3110    0.8230    0.9929 C.ar      1 RES1    0.0000
     34 H10       13.4943    1.0943    0.1004 H         1 RES1    0.0000
     35 C25        9.3800   -0.7791   -2.6195 C.ar      1 RES1    0.0000
     36 H11        9.1672    0.1437   -2.5388 H         1 RES1    0.0000
     37 C26       13.7010   -4.3849    0.5881 C.ar      1 RES1    0.0000
     38 H12       14.3774   -4.7586    1.1400 H         1 RES1    0.0000
     39 C27        8.0047   -1.7002    1.8316 C.ar      1 RES1    0.0000
     40 H13        7.5087   -2.4600    1.5521 H         1 RES1    0.0000
     41 C28       12.2062    1.4279   -2.5108 C.ar      1 RES1    0.0000
     42 H14       12.3845    0.5002   -2.6113 H         1 RES1    0.0000
     43 C29        8.4363   -0.7735    0.8956 C.ar      1 RES1    0.0000
     44 H15        8.2337   -0.9045   -0.0228 H         1 RES1    0.0000
     45 C30        8.7450    5.4487    0.6544 C.ar      1 RES1    0.0000
     46 H16        8.5505    6.3725    0.7610 H         1 RES1    0.0000
     47 C31        8.2957   -1.5191    3.1766 C.ar      1 RES1    0.0000
     48 H17        8.0079   -2.1602    3.8165 H         1 RES1    0.0000
     49 C32        9.0325   -2.8986   -3.6829 C.ar      1 RES1    0.0000
     50 H18        8.5740   -3.4266   -4.3259 H         1 RES1    0.0000
     51 C33       13.8281    1.5558    2.0532 C.ar      1 RES1    0.0000
     52 H19       14.3592    2.3252    1.8855 H         1 RES1    0.0000
     53 C34       13.3129   -3.0885    0.7579 C.ar      1 RES1    0.0000
     54 H20       13.7302   -2.5664    1.4340 H         1 RES1    0.0000
     55 C35       10.0005   -3.4644   -2.8970 C.ar      1 RES1    0.0000
     56 H21       10.2126   -4.3843   -3.0089 H         1 RES1    0.0000
     57 C36       12.6106    3.6928   -3.1724 C.ar      1 RES1    0.0000
     58 H22       13.0686    4.3169   -3.7222 H         1 RES1    0.0000
     59 C37       12.1183   -4.6199   -1.1948 C.ar      1 RES1    0.0000
     60 H23       11.7126   -5.1647   -1.8585 H         1 RES1    0.0000
     61 C38        8.0725    4.4991    1.4226 C.ar      1 RES1    0.0000
     62 H24        7.4025    4.7763    2.0377 H         1 RES1    0.0000
     63 C39       13.5686    1.1622    3.3567 C.ar      1 RES1    0.0000
     64 H25       13.9203    1.6636    4.0836 H         1 RES1    0.0000
     65 C40       13.0976   -5.1567   -0.4028 C.ar      1 RES1    0.0000
     66 H26       13.3661   -6.0586   -0.5291 H         1 RES1    0.0000
@<TRIPOS>BOND
     1    1    8 ar
     2    2    8 1
     3    3    5 ar
     4    4   15 ar
     5    5    6 1
     6    7   11 ar
     7    8   13 ar
     8    9   10 1
     9   11   13 ar
    10   12    1 ar
    11   13   31 ar
    12   14    1 1
    13   15   26 ar
    14   16    7 ar
    15   17   16 1
    16   18   11 ar
    17   19   18 1
    18   20   21 1
    19   22   23 1
    20   24    5 ar
    21   25   24 1
    22   26   30 ar
    23   27    2 ar
    24   28   27 1
    25   29    4 ar
    26   30    3 1
    27   31   32 1
    28   33    3 ar
    29   34   33 1
    30   35   22 ar
    31   36   35 1
    32   37   38 1
    33   39   40 1
    34   41   12 ar
    35   42   41 1
    36   43    2 ar
    37   44   43 1
    38   45   18 ar
    39   46   45 1
    40   47    9 ar
    41   48   47 1
    42   49   22 ar
    43   50   49 1
    44   51   33 ar
    45   52   51 1
    46   53   26 ar
    47   54   53 1
    48   55    4 ar
    49   56   55 1
    50   57   16 ar
    51   58   57 1
    52   59   15 ar
    53   60   59 1
    54   61   31 ar
    55   62   61 1
    56   63   24 ar
    57   64   63 1
    58   65   37 ar
    59   66   65 1
    60    7   12 ar
    61    9   27 ar
    62   14   29 ar
    63   14   30 ar
    64   20   41 ar
    65   20   57 ar
    66   29   35 ar
    67   37   53 ar
    68   39   43 ar
    69   39   47 ar
    70   45   61 ar
    71   49   55 ar
    72   51   63 ar
    73   59   65 ar
@<TRIPOS>SUBSTRUCTURE
     1 RES1 1

@<TRIPOS>CRYSIN
  14.4470   17.7360   10.3860  90.0000  94.5030  90.0000  14 1

