# MOL2 file generated by ConQuest
# Please check atom types

@<TRIPOS>MOLECULE
QAYJEI
    80    88     2
SMALL
NO_CHARGES
****
Generated from CSD

@<TRIPOS>ATOM
      1 C1        -1.3723    7.6840   28.3198 C.ar      1 RES1    0.0000
      2 C2        -2.3310    8.3092   29.1236 C.ar      1 RES1    0.0000
      3 H1        -2.8918    8.9524   28.7543 H         1 RES1    0.0000
      4 C3        -2.4510    7.9817   30.4517 C.ar      1 RES1    0.0000
      5 H2        -3.0918    8.4076   30.9733 H         1 RES1    0.0000
      6 C4        -1.6302    7.0271   31.0212 C.ar      1 RES1    0.0000
      7 H3        -1.7172    6.8244   31.9263 H         1 RES1    0.0000
      8 C5        -0.6906    6.3780   30.2684 C.ar      1 RES1    0.0000
      9 H4        -0.1425    5.7365   30.6603 H         1 RES1    0.0000
     10 C6        -0.5515    6.6825   28.8896 C.ar      1 RES1    0.0000
     11 C7         0.4282    6.0093   28.0973 C.ar      1 RES1    0.0000
     12 H5         1.0038    5.4038   28.5061 H         1 RES1    0.0000
     13 C8         0.5370    6.2309   26.7608 C.ar      1 RES1    0.0000
     14 H6         1.1565    5.7433   26.2646 H         1 RES1    0.0000
     15 C9        -0.2921    7.2136   26.0926 C.ar      1 RES1    0.0000
     16 C10       -1.1959    8.0116   26.8902 C.ar      1 RES1    0.0000
     17 C11       -1.8653    9.0491   26.2787 C.ar      1 RES1    0.0000
     18 H7        -2.4469    9.5725   26.7806 H         1 RES1    0.0000
     19 C12       -1.6946    9.3373   24.9224 C.ar      1 RES1    0.0000
     20 C13       -2.3593   10.4441   24.3078 C.ar      1 RES1    0.0000
     21 H8        -2.8676   11.0231   24.8322 H         1 RES1    0.0000
     22 C14       -2.2589   10.6587   22.9797 C.ar      1 RES1    0.0000
     23 H9        -2.7076   11.3772   22.5934 H         1 RES1    0.0000
     24 C15       -1.4837    9.8103   22.1677 C.ar      1 RES1    0.0000
     25 H10       -1.4380    9.9591   21.2485 H         1 RES1    0.0000
     26 C16       -0.8080    8.7848   22.7147 C.ar      1 RES1    0.0000
     27 H11       -0.2863    8.2451   22.1649 H         1 RES1    0.0000
     28 C17       -0.8633    8.5000   24.0983 C.ar      1 RES1    0.0000
     29 C18       -0.1762    7.4257   24.7121 C.ar      1 RES1    0.0000
     30 C19        0.5909    6.4738   23.8716 C.ar      1 RES1    0.0000
     31 C20        0.1444    5.1669   23.7241 C.ar      1 RES1    0.0000
     32 H12       -0.6265    4.8974   24.1668 H         1 RES1    0.0000
     33 C21        0.8194    4.2577   22.9346 C.ar      1 RES1    0.0000
     34 H13        0.4947    3.3904   22.8500 H         1 RES1    0.0000
     35 C22        1.9578    4.6195   22.2748 C.ar      1 RES1    0.0000
     36 H14        2.4185    4.0002   21.7588 H         1 RES1    0.0000
     37 C23        2.4224    5.9324   22.3876 C.ar      1 RES1    0.0000
     38 H15        3.1825    6.1992   21.9224 H         1 RES1    0.0000
     39 C24        1.7534    6.8296   23.1912 C.ar      1 RES1    0.0000
     40 H16        2.0853    7.6934   23.2786 H         1 RES1    0.0000
     41 C25       11.3518    5.1284   -0.1308 C.ar      2 RES2    0.0000
     42 C26       10.3937    4.4801   -0.9361 C.ar      2 RES2    0.0000
     43 H17        9.8600    3.8095   -0.5752 H         2 RES2    0.0000
     44 C27       10.2454    4.8436   -2.2782 C.ar      2 RES2    0.0000
     45 H18        9.6006    4.4262   -2.7999 H         2 RES2    0.0000
     46 C28       11.0477    5.8143   -2.8281 C.ar      2 RES2    0.0000
     47 H19       10.9488    6.0384   -3.7247 H         2 RES2    0.0000
     48 C29       11.9795    6.4464   -2.0809 C.ar      2 RES2    0.0000
     49 H20       12.5167    7.0981   -2.4700 H         2 RES2    0.0000
     50 C30       12.1429    6.1282   -0.7246 C.ar      2 RES2    0.0000
     51 C31       13.1055    6.8031    0.0902 C.ar      2 RES2    0.0000
     52 H21       13.6680    7.4240   -0.3130 H         2 RES2    0.0000
     53 C32       13.2372    6.5841    1.4013 C.ar      2 RES2    0.0000
     54 H22       13.8613    7.0750    1.8863 H         2 RES2    0.0000
     55 C33       12.4317    5.6022    2.0780 C.ar      2 RES2    0.0000
     56 C34       11.5276    4.7965    1.2939 C.ar      2 RES2    0.0000
     57 C35       10.8663    3.7496    1.9032 C.ar      2 RES2    0.0000
     58 H23       10.2870    3.2245    1.3985 H         2 RES2    0.0000
     59 C36       11.0448    3.4563    3.2623 C.ar      2 RES2    0.0000
     60 C37       10.4146    2.3444    3.8544 C.ar      2 RES2    0.0000
     61 H24        9.9113    1.7705    3.3243 H         2 RES2    0.0000
     62 C38       10.5235    2.0912    5.1796 C.ar      2 RES2    0.0000
     63 H25       10.1225    1.3385    5.5490 H         2 RES2    0.0000
     64 C39       11.2623    2.9918    5.9973 C.ar      2 RES2    0.0000
     65 H26       11.3015    2.8490    6.9165 H         2 RES2    0.0000
     66 C40       11.8946    4.0319    5.4728 C.ar      2 RES2    0.0000
     67 H27       12.3812    4.5947    6.0311 H         2 RES2    0.0000
     68 C41       11.8519    4.3124    4.0780 C.ar      2 RES2    0.0000
     69 C42       12.5346    5.3901    3.4608 C.ar      2 RES2    0.0000
     70 C43       13.3353    6.3292    4.2937 C.ar      2 RES2    0.0000
     71 C44       12.9322    7.6601    4.4175 C.ar      2 RES2    0.0000
     72 H28       12.1635    7.9440    3.9785 H         2 RES2    0.0000
     73 C45       13.6512    8.5684    5.1768 C.ar      2 RES2    0.0000
     74 H29       13.3655    9.4511    5.2473 H         2 RES2    0.0000
     75 C46       14.7881    8.1544    5.8281 C.ar      2 RES2    0.0000
     76 H30       15.2755    8.7583    6.3413 H         2 RES2    0.0000
     77 C47       15.2078    6.8407    5.7238 C.ar      2 RES2    0.0000
     78 H31       15.9731    6.5627    6.1721 H         2 RES2    0.0000
     79 C48       14.4963    5.9392    4.9540 C.ar      2 RES2    0.0000
     80 H32       14.7982    5.0625    4.8751 H         2 RES2    0.0000
@<TRIPOS>BOND
     1    1    2 ar
     2    2    3 1
     3    4    2 ar
     4    5    4 1
     5    6    4 ar
     6    7    6 1
     7    8    6 ar
     8    9    8 1
     9   10    1 ar
    10   11   10 ar
    11   12   11 1
    12   13   11 ar
    13   14   13 1
    14   15   13 ar
    15   16    1 ar
    16   17   16 ar
    17   18   17 1
    18   19   17 ar
    19   20   19 ar
    20   21   20 1
    21   22   20 ar
    22   23   22 1
    23   24   22 ar
    24   25   24 1
    25   26   24 ar
    26   27   26 1
    27   28   19 ar
    28   29   15 ar
    29   30   29 1
    30   31   30 ar
    31   32   31 1
    32   33   31 ar
    33   34   33 1
    34   35   33 ar
    35   36   35 1
    36   37   35 ar
    37   38   37 1
    38   39   30 ar
    39   40   39 1
    40   41   42 ar
    41   42   43 1
    42   44   42 ar
    43   45   44 1
    44   46   44 ar
    45   47   46 1
    46   48   46 ar
    47   49   48 1
    48   50   41 ar
    49   51   50 ar
    50   52   51 1
    51   53   51 ar
    52   54   53 1
    53   55   53 ar
    54   56   41 ar
    55   57   56 ar
    56   58   57 1
    57   59   57 ar
    58   60   59 ar
    59   61   60 1
    60   62   60 ar
    61   63   62 1
    62   64   62 ar
    63   65   64 1
    64   66   64 ar
    65   67   66 1
    66   68   59 ar
    67   69   55 ar
    68   70   69 1
    69   71   70 ar
    70   72   71 1
    71   73   71 ar
    72   74   73 1
    73   75   73 ar
    74   76   75 1
    75   77   75 ar
    76   78   77 1
    77   79   70 ar
    78   80   79 1
    79    8   10 ar
    80   15   16 ar
    81   26   28 ar
    82   28   29 ar
    83   37   39 ar
    84   48   50 ar
    85   55   56 ar
    86   66   68 ar
    87   68   69 ar
    88   77   79 ar
@<TRIPOS>SUBSTRUCTURE
     1 RES1 1
     2 RES2 41

@<TRIPOS>CRYSIN
  13.0510    8.5530   28.8710  90.0000 102.4140  90.0000 231 1

