# MOL2 file generated by ConQuest
# Please check atom types

@<TRIPOS>MOLECULE
QEFBAE
    42    45     1
SMALL
NO_CHARGES
****
Generated from CSD

@<TRIPOS>ATOM
      1 C1         1.5524    1.5109    3.9128 C.ar      1 RES1    0.0000
      2 H1         1.0058    0.7613    3.9780 H         1 RES1    0.0000
      3 C2         1.5059    2.2729    2.7809 C.ar      1 RES1    0.0000
      4 H2         0.9205    2.0457    2.0953 H         1 RES1    0.0000
      5 C3         2.3484    3.4118    2.6410 C.ar      1 RES1    0.0000
      6 C4         3.1524    3.7597    3.6996 C.ar      1 RES1    0.0000
      7 H3         3.6885    4.5161    3.6243 H         1 RES1    0.0000
      8 C5         4.7716    4.5978    6.0488 C.ar      1 RES1    0.0000
      9 H4         4.7475    5.1549    5.3048 H         1 RES1    0.0000
     10 C6         5.5171    4.9574    7.1173 C.ar      1 RES1    0.0000
     11 H5         5.9683    5.7701    7.0997 H         1 RES1    0.0000
     12 C7         6.4685    4.4802    9.3480 C.ar      1 RES1    0.0000
     13 H6         6.9402    5.2811    9.3227 H         1 RES1    0.0000
     14 C8         6.5980    3.6582   10.4294 C.ar      1 RES1    0.0000
     15 H7         7.1549    3.9002   11.1335 H         1 RES1    0.0000
     16 C9         5.8882    2.4450   10.4783 C.ar      1 RES1    0.0000
     17 H8         5.9783    1.8867   11.2159 H         1 RES1    0.0000
     18 C10        5.0671    2.0804    9.4479 C.ar      1 RES1    0.0000
     19 H9         4.5989    1.2788    9.5008 H         1 RES1    0.0000
     20 C11        3.2785    1.3531    7.1954 C.ar      1 RES1    0.0000
     21 H10        3.3075    0.7979    7.9400 H         1 RES1    0.0000
     22 C12        2.4858    1.0232    6.1478 C.ar      1 RES1    0.0000
     23 H11        1.9790    0.2445    6.1903 H         1 RES1    0.0000
     24 C13        2.4090    1.8322    4.9863 C.ar      1 RES1    0.0000
     25 C14        3.1963    3.0126    4.8993 C.ar      1 RES1    0.0000
     26 C15        4.0162    3.3809    6.0342 C.ar      1 RES1    0.0000
     27 C16        4.0727    2.5452    7.1715 C.ar      1 RES1    0.0000
     28 C17        4.9151    2.9005    8.2974 C.ar      1 RES1    0.0000
     29 C18        5.6304    4.1329    8.2665 C.ar      1 RES1    0.0000
     30 C19        2.3390    4.1583    1.2944 C.3       1 RES1    0.0000
     31 C20        2.6906    3.1648    0.1670 C.3       1 RES1    0.0000
     32 H12        2.0629    2.4388    0.1728 H         1 RES1    0.0000
     33 H13        3.5766    2.8232    0.3058 H         1 RES1    0.0000
     34 H14        2.6500    3.6148   -0.6807 H         1 RES1    0.0000
     35 C21        0.9314    4.7439    1.0501 C.3       1 RES1    0.0000
     36 H15        0.2826    4.0370    1.0689 H         1 RES1    0.0000
     37 H16        0.9083    5.1759    0.1941 H         1 RES1    0.0000
     38 H17        0.7274    5.3839    1.7364 H         1 RES1    0.0000
     39 C22        3.3643    5.3127    1.2572 C.3       1 RES1    0.0000
     40 H18        4.2460    4.9624    1.4066 H         1 RES1    0.0000
     41 H19        3.1535    5.9509    1.9438 H         1 RES1    0.0000
     42 H20        3.3328    5.7417    0.3989 H         1 RES1    0.0000
@<TRIPOS>BOND
     1    1    2 1
     2    3    1 ar
     3    4    3 1
     4    5    3 ar
     5    6    5 ar
     6    7    6 1
     7    8    9 1
     8   10    8 ar
     9   11   10 1
    10   12   13 1
    11   14   12 ar
    12   15   14 1
    13   16   14 ar
    14   17   16 1
    15   18   16 ar
    16   19   18 1
    17   20   21 1
    18   22   20 ar
    19   23   22 1
    20   24    1 ar
    21   25    6 ar
    22   26    8 ar
    23   27   20 ar
    24   28   18 ar
    25   29   10 ar
    26   30    5 1
    27   31   30 1
    28   32   31 1
    29   33   31 1
    30   34   31 1
    31   35   30 1
    32   36   35 1
    33   37   35 1
    34   38   35 1
    35   39   30 1
    36   40   39 1
    37   41   39 1
    38   42   39 1
    39   12   29 ar
    40   22   24 ar
    41   24   25 ar
    42   25   26 ar
    43   26   27 ar
    44   27   28 ar
    45   28   29 ar
@<TRIPOS>SUBSTRUCTURE
     1 RES1 1

@<TRIPOS>CRYSIN
   9.7207    6.1898   26.7910  90.0000  97.0110  90.0000 231 1

