# MOL2 file generated by ConQuest
# Please check atom types

@<TRIPOS>MOLECULE
QEFLAO
    36    39     1
SMALL
NO_CHARGES
****
Generated from CSD

@<TRIPOS>ATOM
      1 C1         4.6609    1.8305    0.4738 C.ar      1 RES1    0.0000
      2 C2         5.5978    2.3120    1.3780 C.ar      1 RES1    0.0000
      3 C3         5.2940    2.5170    2.7347 C.ar      1 RES1    0.0000
      4 C4         4.0794    2.1103    3.2399 C.ar      1 RES1    0.0000
      5 C5         1.8728    1.0746    2.8465 C.ar      1 RES1    0.0000
      6 C6         0.9682    0.4877    2.0393 C.ar      1 RES1    0.0000
      7 C7         0.0950    0.0380   -0.2235 C.ar      1 RES1    0.0000
      8 C8         0.1038    0.2190   -1.5553 C.ar      1 RES1    0.0000
      9 C9         0.9618    1.4780   -3.4893 C.ar      1 RES1    0.0000
     10 C10        1.7609    2.4608   -4.0222 C.ar      1 RES1    0.0000
     11 C11        2.6706    3.1345   -3.1808 C.ar      1 RES1    0.0000
     12 C12        2.8243    2.7493   -1.8693 C.ar      1 RES1    0.0000
     13 C13        3.3274    1.6011    0.9347 C.ar      1 RES1    0.0000
     14 C14        3.0927    1.6251    2.3450 C.ar      1 RES1    0.0000
     15 C15        1.0949    0.5778    0.6308 C.ar      1 RES1    0.0000
     16 C16        2.2080    1.2639    0.0637 C.ar      1 RES1    0.0000
     17 C17        2.0823    1.6772   -1.3207 C.ar      1 RES1    0.0000
     18 C18        1.0638    1.0919   -2.1381 C.ar      1 RES1    0.0000
     19 C19        5.2030    1.4044   -0.8885 C.3       1 RES1    0.0000
     20 C20        3.8382    2.1227    4.7398 C.3       1 RES1    0.0000
     21 H1         6.6366    2.5625    1.0621 H         1 RES1    0.0000
     22 H2         6.0549    3.0006    3.3433 H         1 RES1    0.0000
     23 H3         1.6726    1.1242    3.8698 H         1 RES1    0.0000
     24 H4         0.1232   -0.0661    2.4290 H         1 RES1    0.0000
     25 H5        -0.7206   -0.5456    0.1755 H         1 RES1    0.0000
     26 H6        -0.6279   -0.3058   -2.1612 H         1 RES1    0.0000
     27 H7         0.2266    0.9754   -4.1099 H         1 RES1    0.0000
     28 H8         1.6815    2.6947   -5.0335 H         1 RES1    0.0000
     29 H9         3.2595    3.9511   -3.5281 H         1 RES1    0.0000
     30 H10        3.5349    3.2899   -1.2561 H         1 RES1    0.0000
     31 H11        6.1978    0.8431   -0.7850 H         1 RES1    0.0000
     32 H12        4.3853    0.7935   -1.3854 H         1 RES1    0.0000
     33 H13        5.3900    2.2897   -1.4962 H         1 RES1    0.0000
     34 H14        4.2510    1.2068    5.1720 H         1 RES1    0.0000
     35 H15        4.4163    2.9675    5.1813 H         1 RES1    0.0000
     36 H16        2.6960    2.2153    4.9319 H         1 RES1    0.0000
@<TRIPOS>BOND
     1    1    2 ar
     2    2    3 ar
     3    3    4 ar
     4    4   14 ar
     5    5    6 ar
     6    6   15 ar
     7    7    8 ar
     8    8   18 ar
     9    9   10 ar
    10   10   11 ar
    11   11   12 ar
    12   12   17 ar
    13   13    1 ar
    14   14    5 ar
    15   15    7 ar
    16   16   13 ar
    17   17   16 ar
    18   18    9 ar
    19   19    1 1
    20   20    4 1
    21   21    2 1
    22   22    3 1
    23   23    5 1
    24   24    6 1
    25   25    7 1
    26   26    8 1
    27   27    9 1
    28   28   10 1
    29   29   11 1
    30   30   12 1
    31   31   19 1
    32   32   19 1
    33   33   19 1
    34   34   20 1
    35   35   20 1
    36   36   20 1
    37   13   14 ar
    38   15   16 ar
    39   17   18 ar
@<TRIPOS>SUBSTRUCTURE
     1 RES1 1

@<TRIPOS>CRYSIN
   8.8120    8.2660    9.4970  90.0000 103.4700  90.0000   4 1

