# MOL2 file generated by ConQuest
# Please check atom types

@<TRIPOS>MOLECULE
QETFOK
    62    65     1
SMALL
NO_CHARGES
****
Generated from CSD

@<TRIPOS>ATOM
      1 C1         0.4082   -0.3273    7.3351 C.ar      1 RES1    0.0000
      2 C2         1.3234    0.3059    6.4596 C.ar      1 RES1    0.0000
      3 C3         1.8952    1.5327    6.7387 C.ar      1 RES1    0.0000
      4 C4         1.5458    2.1959    7.9628 C.ar      1 RES1    0.0000
      5 C5        -0.1879   -1.5792    7.0526 C.ar      1 RES1    0.0000
      6 C6         2.8345    2.1745    5.7157 C.3       1 RES1    0.0000
      7 C7         3.7448    3.1910    6.4167 C.3       1 RES1    0.0000
      8 C8         2.9517    4.1867    7.2453 C.3       1 RES1    0.0000
      9 C9         2.1731    3.5265    8.3961 C.3       1 RES1    0.0000
     10 C10        3.7343    1.1381    5.0278 C.3       1 RES1    0.0000
     11 C11        1.9754    2.8571    4.6357 C.3       1 RES1    0.0000
     12 C12        1.0979    4.5212    8.8677 C.3       1 RES1    0.0000
     13 C13        3.1335    3.2424    9.5634 C.3       1 RES1    0.0000
     14 H1         1.5548   -0.1610    5.6172 H         1 RES1    0.0000
     15 H2         0.0389   -2.0027    6.1514 H         1 RES1    0.0000
     16 H3         4.4032    2.6974    7.0064 H         1 RES1    0.0000
     17 H4         4.3112    3.6591    5.7108 H         1 RES1    0.0000
     18 H5         2.3108    4.6604    6.6356 H         1 RES1    0.0000
     19 H6         3.5643    4.9008    7.6621 H         1 RES1    0.0000
     20 H7         4.4498    1.6101    4.4621 H         1 RES1    0.0000
     21 H8         3.2006    0.4941    4.4391 H         1 RES1    0.0000
     22 H9         4.2167    0.6021    5.6973 H         1 RES1    0.0000
     23 H10        1.3120    3.5267    5.0472 H         1 RES1    0.0000
     24 H11        1.4418    2.1505    4.1311 H         1 RES1    0.0000
     25 H12        2.5688    3.3591    3.9819 H         1 RES1    0.0000
     26 H13        1.5140    5.4059    9.0362 H         1 RES1    0.0000
     27 H14        0.5949    4.2083    9.6951 H         1 RES1    0.0000
     28 H15        0.4213    4.6648    8.1638 H         1 RES1    0.0000
     29 H16        3.8587    2.6247    9.2886 H         1 RES1    0.0000
     30 H17        2.6449    2.8386   10.3143 H         1 RES1    0.0000
     31 H18        3.5546    4.0914    9.8761 H         1 RES1    0.0000
     32 C1B        0.0613    0.3273    8.5416 C.ar      1 RES1    0.0000
     33 C2B       -0.8539   -0.3059    9.4170 C.ar      1 RES1    0.0000
     34 C3B       -1.4257   -1.5327    9.1380 C.ar      1 RES1    0.0000
     35 C4B       -1.0763   -2.1959    7.9138 C.ar      1 RES1    0.0000
     36 C5B        0.6575    1.5792    8.8240 C.ar      1 RES1    0.0000
     37 H2B        0.4306    2.0027    9.7252 H         1 RES1    0.0000
     38 C9B       -1.7036   -3.5265    7.4805 C.3       1 RES1    0.0000
     39 C8B       -2.4822   -4.1867    8.6313 C.3       1 RES1    0.0000
     40 C7B       -3.2753   -3.1910    9.4599 C.3       1 RES1    0.0000
     41 C6B       -2.3650   -2.1745   10.1609 C.3       1 RES1    0.0000
     42 C10B      -3.2648   -1.1381   10.8488 C.3       1 RES1    0.0000
     43 H7B       -3.9803   -1.6101   11.4145 H         1 RES1    0.0000
     44 H8B       -2.7311   -0.4941   11.4375 H         1 RES1    0.0000
     45 H9B       -3.7472   -0.6021   10.1793 H         1 RES1    0.0000
     46 C11B      -1.5059   -2.8571   11.2410 C.3       1 RES1    0.0000
     47 H10B      -0.8425   -3.5267   10.8295 H         1 RES1    0.0000
     48 H11B      -0.9723   -2.1505   11.7455 H         1 RES1    0.0000
     49 H12B      -2.0993   -3.3591   11.8948 H         1 RES1    0.0000
     50 H3B       -3.9337   -2.6974    8.8703 H         1 RES1    0.0000
     51 H4B       -3.8417   -3.6591   10.1658 H         1 RES1    0.0000
     52 H5B       -1.8413   -4.6604    9.2410 H         1 RES1    0.0000
     53 H6B       -3.0948   -4.9008    8.2146 H         1 RES1    0.0000
     54 C12B      -0.6284   -4.5212    7.0090 C.3       1 RES1    0.0000
     55 H13B      -1.0445   -5.4059    6.8405 H         1 RES1    0.0000
     56 H14B      -0.1254   -4.2083    6.1816 H         1 RES1    0.0000
     57 H15B       0.0482   -4.6648    7.7129 H         1 RES1    0.0000
     58 C13B      -2.6640   -3.2424    6.3133 C.3       1 RES1    0.0000
     59 H16B      -3.3892   -2.6247    6.5880 H         1 RES1    0.0000
     60 H17B      -2.1754   -2.8386    5.5624 H         1 RES1    0.0000
     61 H18B      -3.0850   -4.0914    6.0006 H         1 RES1    0.0000
     62 H1B       -1.0853    0.1610   10.2595 H         1 RES1    0.0000
@<TRIPOS>BOND
     1    1    2 ar
     2    2    3 ar
     3    3    4 ar
     4    4    9 1
     5    5    1 ar
     6    6    3 1
     7    7    6 1
     8    8    7 1
     9    9    8 1
    10   10    6 1
    11   11    6 1
    12   12    9 1
    13   13    9 1
    14   14    2 1
    15   15    5 1
    16   16    7 1
    17   17    7 1
    18   18    8 1
    19   19    8 1
    20   20   10 1
    21   21   10 1
    22   22   10 1
    23   23   11 1
    24   24   11 1
    25   25   11 1
    26   26   12 1
    27   27   12 1
    28   28   12 1
    29   29   13 1
    30   30   13 1
    31   31   13 1
    32   32    1 ar
    33   33   32 ar
    34   34   33 ar
    35   35    5 ar
    36   36    4 ar
    37   37   36 1
    38   38   35 1
    39   39   38 1
    40   40   39 1
    41   41   34 1
    42   42   41 1
    43   43   42 1
    44   44   42 1
    45   45   42 1
    46   46   41 1
    47   47   46 1
    48   48   46 1
    49   49   46 1
    50   50   40 1
    51   51   40 1
    52   52   39 1
    53   53   39 1
    54   54   38 1
    55   55   54 1
    56   56   54 1
    57   57   54 1
    58   58   38 1
    59   59   58 1
    60   60   58 1
    61   61   58 1
    62   62   33 1
    63   32   36 ar
    64   34   35 ar
    65   40   41 1
@<TRIPOS>SUBSTRUCTURE
     1 RES1 1

@<TRIPOS>CRYSIN
   5.8991   22.0559    8.3897  90.0000 108.8800  90.0000 231 1

