# MOL2 file generated by ConQuest
# Please check atom types

@<TRIPOS>MOLECULE
QIBFAK
    54    58     1
SMALL
NO_CHARGES
****
Generated from CSD

@<TRIPOS>ATOM
      1 C1        13.2024   15.5406    3.3941 C.ar      1 RES1    0.0000
      2 H1        13.7406   16.2847    3.5403 H         1 RES1    0.0000
      3 C2        12.2277   15.2135    4.2997 C.ar      1 RES1    0.0000
      4 H2        12.1110   15.7309    5.0647 H         1 RES1    0.0000
      5 C3        11.4164   14.1172    4.0777 C.ar      1 RES1    0.0000
      6 H3        10.7459   13.9124    4.6888 H         1 RES1    0.0000
      7 C4        11.5874   13.3262    2.9676 C.ar      1 RES1    0.0000
      8 C5        10.6712   12.1381    2.7577 C.3       1 RES1    0.0000
      9 H4        10.6492   11.6226    3.5798 H         1 RES1    0.0000
     10 H5         9.7742   12.4700    2.5994 H         1 RES1    0.0000
     11 C6        11.0399   11.2094    1.6256 C.ar      1 RES1    0.0000
     12 C7        11.8207   10.0472    1.9274 C.ar      1 RES1    0.0000
     13 C8        12.1893    9.1685    0.9282 C.ar      1 RES1    0.0000
     14 C9        13.0103    7.9627    1.2528 C.ar      1 RES1    0.0000
     15 C10       14.3396    8.0767    1.6014 C.ar      1 RES1    0.0000
     16 H6        14.7401    8.9163    1.6146 H         1 RES1    0.0000
     17 C11       15.0812    6.9684    1.9278 C.ar      1 RES1    0.0000
     18 H7        15.9768    7.0630    2.1620 H         1 RES1    0.0000
     19 C12       14.5110    5.7263    1.9125 C.ar      1 RES1    0.0000
     20 H8        15.0139    4.9788    2.1444 H         1 RES1    0.0000
     21 C13       12.2258    9.7608    3.3336 C.ar      1 RES1    0.0000
     22 C14       11.5212    8.8559    4.1030 C.ar      1 RES1    0.0000
     23 H9        10.7591    8.4511    3.7557 H         1 RES1    0.0000
     24 C15       11.9391    8.5451    5.3813 C.ar      1 RES1    0.0000
     25 H10       11.4538    7.9379    5.8935 H         1 RES1    0.0000
     26 C16       13.0623    9.1268    5.8957 C.ar      1 RES1    0.0000
     27 H11       13.3523    8.9011    6.7497 H         1 RES1    0.0000
     28 C17       13.7592   10.0400    5.1582 C.ar      1 RES1    0.0000
     29 H12       14.5148   10.4483    5.5132 H         1 RES1    0.0000
     30 C18       13.3403   10.3509    3.8898 C.ar      1 RES1    0.0000
     31 H13       13.8188   10.9754    3.3930 H         1 RES1    0.0000
     32 C19       11.7892    9.4159   -0.4144 C.ar      1 RES1    0.0000
     33 C20       12.1604    8.5516   -1.4772 C.ar      1 RES1    0.0000
     34 H14       12.6979    7.8148   -1.2970 H         1 RES1    0.0000
     35 C21       11.7495    8.7791   -2.7511 C.ar      1 RES1    0.0000
     36 H15       11.9946    8.1931   -3.4292 H         1 RES1    0.0000
     37 C22       10.9605    9.8911   -3.0413 C.ar      1 RES1    0.0000
     38 H16       10.6824   10.0450   -3.9151 H         1 RES1    0.0000
     39 C23       10.5959   10.7460   -2.0575 C.ar      1 RES1    0.0000
     40 H17       10.0690   11.4815   -2.2730 H         1 RES1    0.0000
     41 C24       10.9923   10.5564   -0.7078 C.ar      1 RES1    0.0000
     42 C25       10.6333   11.4590    0.3319 C.ar      1 RES1    0.0000
     43 C26        9.8172   12.6881   -0.0121 C.3       1 RES1    0.0000
     44 H18        9.4004   13.0285    0.7826 H         1 RES1    0.0000
     45 H19        9.1418   12.4549   -0.6529 H         1 RES1    0.0000
     46 H20       10.3919   13.3602   -0.3847 H         1 RES1    0.0000
     47 C27       12.4506    6.6960    1.2420 C.ar      1 RES1    0.0000
     48 H21       11.5542    6.5948    1.0189 H         1 RES1    0.0000
     49 C28       13.2005    5.5858    1.5563 C.ar      1 RES1    0.0000
     50 H22       12.8142    4.7395    1.5256 H         1 RES1    0.0000
     51 C29       12.5744   13.6831    2.0718 C.ar      1 RES1    0.0000
     52 H23       12.6964   13.1714    1.3057 H         1 RES1    0.0000
     53 C30       13.3842   14.7802    2.2840 C.ar      1 RES1    0.0000
     54 H24       14.0486   14.9969    1.6718 H         1 RES1    0.0000
@<TRIPOS>BOND
     1    1    2 1
     2    3    1 ar
     3    4    3 1
     4    5    3 ar
     5    6    5 1
     6    7    5 ar
     7    8    7 1
     8    9    8 1
     9   10    8 1
    10   11    8 1
    11   12   11 ar
    12   13   12 ar
    13   14   13 1
    14   15   14 ar
    15   16   15 1
    16   17   15 ar
    17   18   17 1
    18   19   17 ar
    19   20   19 1
    20   21   12 1
    21   22   21 ar
    22   23   22 1
    23   24   22 ar
    24   25   24 1
    25   26   24 ar
    26   27   26 1
    27   28   26 ar
    28   29   28 1
    29   30   21 ar
    30   31   30 1
    31   32   13 ar
    32   33   32 ar
    33   34   33 1
    34   35   33 ar
    35   36   35 1
    36   37   35 ar
    37   38   37 1
    38   39   37 ar
    39   40   39 1
    40   41   32 ar
    41   42   11 ar
    42   43   42 1
    43   44   43 1
    44   45   43 1
    45   46   43 1
    46   47   14 ar
    47   48   47 1
    48   49   19 ar
    49   50   49 1
    50   51    7 ar
    51   52   51 1
    52   53    1 ar
    53   54   53 1
    54   28   30 ar
    55   39   41 ar
    56   41   42 ar
    57   47   49 ar
    58   51   53 ar
@<TRIPOS>SUBSTRUCTURE
     1 RES1 1

@<TRIPOS>CRYSIN
   9.9191   11.0491   11.6448  70.7160  83.0650  67.3710   2 1

