# MOL2 file generated by ConQuest
# Please check atom types

@<TRIPOS>MOLECULE
QICKES
    82    91     1
SMALL
NO_CHARGES
****
Generated from CSD

@<TRIPOS>ATOM
      1 C1         4.7951    1.6254   10.8423 C.ar      1 RES1    0.0000
      2 C2         3.8617    2.1796    9.9377 C.ar      1 RES1    0.0000
      3 C3         3.0105    3.2135   10.3004 C.ar      1 RES1    0.0000
      4 C4         3.0852    3.7223   11.6044 C.ar      1 RES1    0.0000
      5 C5         4.0189    3.2556   12.4791 C.ar      1 RES1    0.0000
      6 C6         4.9034    2.2136   12.1192 C.ar      1 RES1    0.0000
      7 C7         5.5890    0.4311   10.5340 C.ar      1 RES1    0.0000
      8 C8         5.4163   -0.3387    9.3767 C.ar      1 RES1    0.0000
      9 C9         6.0357   -1.5638    9.1987 C.ar      1 RES1    0.0000
     10 C10        6.9624   -1.9819   10.1903 C.ar      1 RES1    0.0000
     11 C11        7.1980   -1.2348   11.2838 C.ar      1 RES1    0.0000
     12 C12        6.5077   -0.0308   11.5079 C.ar      1 RES1    0.0000
     13 C13        5.8824    1.7242   13.0415 C.ar      1 RES1    0.0000
     14 C14        6.6470    0.6741   12.7440 C.ar      1 RES1    0.0000
     15 C15       -2.2692   -1.3256    9.1132 C.ar      1 RES1    0.0000
     16 C16       -1.4748   -1.1230   10.2732 C.ar      1 RES1    0.0000
     17 C17       -1.8597   -0.2301   11.2702 C.ar      1 RES1    0.0000
     18 C18       -3.0846    0.4246   11.1480 C.ar      1 RES1    0.0000
     19 C19       -3.8964    0.2026   10.0694 C.ar      1 RES1    0.0000
     20 C20       -3.5197   -0.6563    9.0357 C.ar      1 RES1    0.0000
     21 C21       -1.8334   -2.1569    7.9980 C.ar      1 RES1    0.0000
     22 C22       -0.6122   -2.8553    7.9558 C.ar      1 RES1    0.0000
     23 C23       -0.1985   -3.5359    6.8352 C.ar      1 RES1    0.0000
     24 C24       -1.0553   -3.5635    5.7051 C.ar      1 RES1    0.0000
     25 C25       -2.2517   -2.9315    5.7336 C.ar      1 RES1    0.0000
     26 C26       -2.6857   -2.2136    6.8447 C.ar      1 RES1    0.0000
     27 C27       -4.3347   -0.8054    7.8635 C.ar      1 RES1    0.0000
     28 C28       -3.9245   -1.5265    6.8257 C.ar      1 RES1    0.0000
     29 C29        0.7303    1.6011    9.7054 C.ar      1 RES1    0.0000
     30 C30        0.8625    0.8832   10.9347 C.ar      1 RES1    0.0000
     31 C31        1.6153   -0.2577   10.9442 C.ar      1 RES1    0.0000
     32 C32        2.0679   -0.8524    9.7489 C.ar      1 RES1    0.0000
     33 C33        1.6435   -0.3063    8.5182 C.ar      1 RES1    0.0000
     34 C34        1.0340    0.9658    8.5399 C.ar      1 RES1    0.0000
     35 C35        1.8318   -1.0712    7.3269 C.ar      1 RES1    0.0000
     36 C36        2.5187   -2.2460    7.3582 C.ar      1 RES1    0.0000
     37 C37        3.2364   -2.6058    8.5386 C.ar      1 RES1    0.0000
     38 C38        2.9412   -1.9705    9.7108 C.ar      1 RES1    0.0000
     39 C39        1.9228    3.7304    9.3794 C.3       1 RES1    0.0000
     40 C40        0.5464    3.1049    9.6809 C.3       1 RES1    0.0000
     41 C41        5.6649   -2.5021    8.0849 C.3       1 RES1    0.0000
     42 C42        4.4862   -3.4500    8.4611 C.3       1 RES1    0.0000
     43 C43       -0.9598    0.0794   12.4493 C.3       1 RES1    0.0000
     44 C44        0.0594    1.2235   12.1762 C.3       1 RES1    0.0000
     45 C45        1.1360   -4.1987    6.7456 C.3       1 RES1    0.0000
     46 C46        2.2871   -3.2572    6.2525 C.3       1 RES1    0.0000
     47 H1         3.7001    1.7988    9.0058 H         1 RES1    0.0000
     48 H2         2.4823    4.5050   11.7905 H         1 RES1    0.0000
     49 H3         4.0416    3.6623   13.4476 H         1 RES1    0.0000
     50 H4         4.7444   -0.0810    8.6663 H         1 RES1    0.0000
     51 H5         7.4236   -2.7873    9.9431 H         1 RES1    0.0000
     52 H6         7.7897   -1.5233   12.0485 H         1 RES1    0.0000
     53 H7         5.8703    2.1391   13.9095 H         1 RES1    0.0000
     54 H8         7.3159    0.2755   13.3797 H         1 RES1    0.0000
     55 H9        -0.6006   -1.6529   10.3506 H         1 RES1    0.0000
     56 H10       -3.4042    1.1181   11.8312 H         1 RES1    0.0000
     57 H11       -4.7292    0.6644    9.9703 H         1 RES1    0.0000
     58 H12        0.0546   -2.8845    8.7070 H         1 RES1    0.0000
     59 H13       -0.8590   -4.0026    4.9716 H         1 RES1    0.0000
     60 H14       -2.8897   -2.9169    4.8357 H         1 RES1    0.0000
     61 H15       -5.1817   -0.3727    7.8648 H         1 RES1    0.0000
     62 H16       -4.4760   -1.6205    5.9767 H         1 RES1    0.0000
     63 H17        1.9164   -0.7130   11.8312 H         1 RES1    0.0000
     64 H18        0.8659    1.4260    7.6882 H         1 RES1    0.0000
     65 H19        1.3576   -0.7616    6.4793 H         1 RES1    0.0000
     66 H20        3.4427   -2.1877   10.5000 H         1 RES1    0.0000
     67 H21        2.2151    3.5327    8.3538 H         1 RES1    0.0000
     68 H22        1.8376    4.6670    9.4677 H         1 RES1    0.0000
     69 H23       -0.1161    3.4031    8.8972 H         1 RES1    0.0000
     70 H24        0.1599    3.4193   10.5544 H         1 RES1    0.0000
     71 H25        5.3851   -1.9446    7.1857 H         1 RES1    0.0000
     72 H26        6.4100   -3.0465    7.7697 H         1 RES1    0.0000
     73 H27        4.7935   -3.7920    9.3047 H         1 RES1    0.0000
     74 H28        4.3348   -4.1323    7.7018 H         1 RES1    0.0000
     75 H29       -0.3692   -0.7130   12.7277 H         1 RES1    0.0000
     76 H30       -1.4688    0.3565   13.2575 H         1 RES1    0.0000
     77 H31       -0.3547    2.1229   12.0757 H         1 RES1    0.0000
     78 H32        0.7133    1.3288   12.9858 H         1 RES1    0.0000
     79 H33        1.6842   -4.6346    7.5660 H         1 RES1    0.0000
     80 H34        1.0272   -4.8453    6.0854 H         1 RES1    0.0000
     81 H35        1.9274   -2.7062    5.4198 H         1 RES1    0.0000
     82 H36        3.1949   -3.7434    6.1397 H         1 RES1    0.0000
@<TRIPOS>BOND
     1    1    2 ar
     2    2    3 ar
     3    3    4 ar
     4    4    5 ar
     5    5    6 ar
     6    6    1 ar
     7    7    1 ar
     8    8    7 ar
     9    9    8 ar
    10   10    9 ar
    11   11   10 ar
    12   12    7 ar
    13   13    6 ar
    14   14   12 ar
    15   15   16 ar
    16   16   17 ar
    17   17   18 ar
    18   18   19 ar
    19   19   20 ar
    20   20   15 ar
    21   21   15 ar
    22   22   21 ar
    23   23   22 ar
    24   24   23 ar
    25   25   24 ar
    26   26   21 ar
    27   27   20 ar
    28   28   26 ar
    29   29   30 ar
    30   30   31 ar
    31   31   32 ar
    32   32   33 ar
    33   33   34 ar
    34   34   29 ar
    35   35   33 ar
    36   36   35 ar
    37   37   36 ar
    38   38   32 ar
    39   39    3 1
    40   40   29 1
    41   41    9 1
    42   42   37 1
    43   43   17 1
    44   44   30 1
    45   45   23 1
    46   46   36 1
    47   47    2 1
    48   48    4 1
    49   49    5 1
    50   50    8 1
    51   51   10 1
    52   52   11 1
    53   53   13 1
    54   54   14 1
    55   55   16 1
    56   56   18 1
    57   57   19 1
    58   58   22 1
    59   59   24 1
    60   60   25 1
    61   61   27 1
    62   62   28 1
    63   63   31 1
    64   64   34 1
    65   65   35 1
    66   66   38 1
    67   67   39 1
    68   68   39 1
    69   69   40 1
    70   70   40 1
    71   71   41 1
    72   72   41 1
    73   73   42 1
    74   74   42 1
    75   75   43 1
    76   76   43 1
    77   77   44 1
    78   78   44 1
    79   79   45 1
    80   80   45 1
    81   81   46 1
    82   82   46 1
    83   11   12 ar
    84   13   14 ar
    85   25   26 ar
    86   27   28 ar
    87   37   38 ar
    88   39   40 1
    89   41   42 1
    90   43   44 1
    91   45   46 1
@<TRIPOS>SUBSTRUCTURE
     1 RES1 1

@<TRIPOS>CRYSIN
  14.4190   16.2050   14.8540  90.0000 113.8700  90.0000 231 1

