# MOL2 file generated by ConQuest
# Please check atom types

@<TRIPOS>MOLECULE
QIRGIJ01
    66    75     1
SMALL
NO_CHARGES
****
Generated from CSD

@<TRIPOS>ATOM
      1 C1        -5.4603   -5.0780    8.5250 C.ar      1 RES1    0.0000
      2 H1        -5.2923   -5.8357    8.0141 H         1 RES1    0.0000
      3 C2        -5.2419   -5.1022    9.8970 C.ar      1 RES1    0.0000
      4 H2        -4.8971   -5.8690   10.2953 H         1 RES1    0.0000
      5 C3        -5.5284   -4.0112   10.6675 C.ar      1 RES1    0.0000
      6 H3        -5.3796   -4.0485   11.5855 H         1 RES1    0.0000
      7 C4        -6.0465   -2.8259   10.0964 C.ar      1 RES1    0.0000
      8 C5        -6.2808   -1.6215   10.8224 C.ar      1 RES1    0.0000
      9 C6        -6.4109   -0.4061   10.1373 C.ar      1 RES1    0.0000
     10 C7        -6.0977    0.6884   11.0686 C.2       1 RES1    0.0000
     11 C8        -5.9441    2.0314   10.7819 C.2       1 RES1    0.0000
     12 C9        -4.9404    2.9441   11.3552 C.ar      1 RES1    0.0000
     13 C10       -5.0725    4.2001   10.7614 C.ar      1 RES1    0.0000
     14 C11       -4.0035    5.1407   10.8464 C.ar      1 RES1    0.0000
     15 C12       -3.8506    6.2678   10.0004 C.ar      1 RES1    0.0000
     16 H4        -4.4846    6.4340    9.3408 H         1 RES1    0.0000
     17 C13       -2.7897    7.1125   10.1377 C.ar      1 RES1    0.0000
     18 H5        -2.7081    7.8410    9.5656 H         1 RES1    0.0000
     19 C14       -1.8238    6.9006   11.1248 C.ar      1 RES1    0.0000
     20 H6        -1.1408    7.5199   11.2499 H         1 RES1    0.0000
     21 C15       -7.0153   -3.5157   15.7835 C.ar      1 RES1    0.0000
     22 H7        -7.1585   -4.0046   16.5624 H         1 RES1    0.0000
     23 C16       -7.2545   -4.0973   14.5473 C.ar      1 RES1    0.0000
     24 H8        -7.5873   -4.9648   14.5045 H         1 RES1    0.0000
     25 C17       -7.0087   -3.4133   13.3933 C.ar      1 RES1    0.0000
     26 H9        -7.1992   -3.8122   12.5751 H         1 RES1    0.0000
     27 C18       -6.4658   -2.1044   13.4201 C.ar      1 RES1    0.0000
     28 C19       -6.2986   -1.4816   14.6921 C.ar      1 RES1    0.0000
     29 C20       -5.9532   -0.1193   14.7725 C.ar      1 RES1    0.0000
     30 H10       -5.8152    0.2666   15.6079 H         1 RES1    0.0000
     31 C21       -5.8168    0.6437   13.6586 C.ar      1 RES1    0.0000
     32 H11       -5.6515    1.5555   13.7354 H         1 RES1    0.0000
     33 C22       -5.9286    0.0486   12.3856 C.ar      1 RES1    0.0000
     34 C23       -5.9175   -3.9525    7.9343 C.ar      1 RES1    0.0000
     35 H12       -6.0547   -3.9470    7.0144 H         1 RES1    0.0000
     36 C24       -6.1925   -2.7835    8.6807 C.ar      1 RES1    0.0000
     37 C25       -6.4935   -1.5647    8.0446 C.ar      1 RES1    0.0000
     38 H13       -6.6701   -1.5615    7.1311 H         1 RES1    0.0000
     39 C26       -6.5311   -0.3889    8.7341 C.ar      1 RES1    0.0000
     40 H14       -6.6356    0.4165    8.2812 H         1 RES1    0.0000
     41 C27       -6.1836   -1.3189   12.2652 C.ar      1 RES1    0.0000
     42 C28       -2.9372    4.8509   11.7522 C.ar      1 RES1    0.0000
     43 C29       -1.8826    5.7906   11.9001 C.ar      1 RES1    0.0000
     44 H15       -1.2233    5.6418   12.5386 H         1 RES1    0.0000
     45 C30       -2.8872    3.5990   12.3983 C.ar      1 RES1    0.0000
     46 H16       -2.2019    3.4245   13.0013 H         1 RES1    0.0000
     47 C31       -3.8239    2.6417   12.1564 C.ar      1 RES1    0.0000
     48 H17       -3.7261    1.7902   12.5196 H         1 RES1    0.0000
     49 C32       -6.3192    4.1889    9.9716 C.ar      1 RES1    0.0000
     50 C33       -7.1536    5.2434    9.4875 C.ar      1 RES1    0.0000
     51 C34       -6.9853    6.6142    9.7730 C.ar      1 RES1    0.0000
     52 H18       -6.2754    6.8823   10.3114 H         1 RES1    0.0000
     53 C35       -7.8393    7.5575    9.2773 C.ar      1 RES1    0.0000
     54 H19       -7.6905    8.4560    9.4649 H         1 RES1    0.0000
     55 C36       -8.9325    7.1895    8.4926 C.ar      1 RES1    0.0000
     56 H20       -9.4944    7.8410    8.1382 H         1 RES1    0.0000
     57 C37       -9.1736    5.8751    8.2496 C.ar      1 RES1    0.0000
     58 H21       -9.9178    5.6328    7.7485 H         1 RES1    0.0000
     59 C38       -8.3153    4.8715    8.7427 C.ar      1 RES1    0.0000
     60 C39       -8.6414    3.5093    8.5825 C.ar      1 RES1    0.0000
     61 H22       -9.3732    3.2791    8.0579 H         1 RES1    0.0000
     62 C40       -7.9171    2.5251    9.1731 C.ar      1 RES1    0.0000
     63 H23       -8.1943    1.6388    9.1175 H         1 RES1    0.0000
     64 C41       -6.7428    2.8573    9.8696 C.ar      1 RES1    0.0000
     65 C42       -6.5727   -2.2324   15.8588 C.ar      1 RES1    0.0000
     66 H24       -6.4478   -1.8402   16.6938 H         1 RES1    0.0000
@<TRIPOS>BOND
     1    1    2 1
     2    3    1 ar
     3    4    3 1
     4    5    3 ar
     5    6    5 1
     6    7    5 ar
     7    8    7 ar
     8    9    8 ar
     9   10    9 1
    10   11   10 2
    11   12   11 1
    12   13   12 ar
    13   14   13 ar
    14   15   14 ar
    15   16   15 1
    16   17   15 ar
    17   18   17 1
    18   19   17 ar
    19   20   19 1
    20   21   22 1
    21   23   21 ar
    22   24   23 1
    23   25   23 ar
    24   26   25 1
    25   27   25 ar
    26   28   27 ar
    27   29   28 ar
    28   30   29 1
    29   31   29 ar
    30   32   31 1
    31   33   10 1
    32   34    1 ar
    33   35   34 1
    34   36    7 ar
    35   37   36 ar
    36   38   37 1
    37   39    9 ar
    38   40   39 1
    39   41    8 1
    40   42   14 ar
    41   43   19 ar
    42   44   43 1
    43   45   42 ar
    44   46   45 1
    45   47   12 ar
    46   48   47 1
    47   49   13 1
    48   50   49 ar
    49   51   50 ar
    50   52   51 1
    51   53   51 ar
    52   54   53 1
    53   55   53 ar
    54   56   55 1
    55   57   55 ar
    56   58   57 1
    57   59   50 ar
    58   60   59 ar
    59   61   60 1
    60   62   60 ar
    61   63   62 1
    62   64   11 1
    63   65   21 ar
    64   66   65 1
    65   27   41 ar
    66   28   65 ar
    67   31   33 ar
    68   33   41 ar
    69   34   36 ar
    70   37   39 ar
    71   42   43 ar
    72   45   47 ar
    73   49   64 ar
    74   57   59 ar
    75   62   64 ar
@<TRIPOS>SUBSTRUCTURE
     1 RES1 1

@<TRIPOS>CRYSIN
  24.1802   15.1459   18.2993  90.0000 127.1010  90.0000  15 1

