# MOL2 file generated by ConQuest
# Please check atom types

@<TRIPOS>MOLECULE
QIXVEZ
   114   123     1
SMALL
NO_CHARGES
****
Generated from CSD

@<TRIPOS>ATOM
      1 C1        -1.8120    2.5984    5.5793 C.ar      1 RES1    0.0000
      2 H1        -2.1322    1.7792    5.2771 H         1 RES1    0.0000
      3 C2        -1.0337    3.3292    4.7890 C.ar      1 RES1    0.0000
      4 H2        -0.8209    3.0095    3.9405 H         1 RES1    0.0000
      5 C3        -0.5270    4.5666    5.1965 C.ar      1 RES1    0.0000
      6 H3        -0.0041    5.0672    4.6144 H         1 RES1    0.0000
      7 C4        -0.7986    5.0400    6.4391 C.ar      1 RES1    0.0000
      8 H4        -0.4297    5.8512    6.7077 H         1 RES1    0.0000
      9 C5        -1.6275    4.3253    7.3346 C.ar      1 RES1    0.0000
     10 C6        -1.9518    4.7978    8.6242 C.ar      1 RES1    0.0000
     11 C7        -2.8254    4.0610    9.4504 C.ar      1 RES1    0.0000
     12 C8        -3.2084    4.5334   10.7422 C.ar      1 RES1    0.0000
     13 H5        -2.8598    5.3305   11.0691 H         1 RES1    0.0000
     14 C9        -4.0901    3.8117   11.4945 C.ar      1 RES1    0.0000
     15 H6        -4.3678    4.1484   12.3140 H         1 RES1    0.0000
     16 C10       -4.5826    2.5753   11.0579 C.ar      1 RES1    0.0000
     17 H7        -5.1602    2.0878   11.5997 H         1 RES1    0.0000
     18 C11       -4.2259    2.0918    9.8601 C.ar      1 RES1    0.0000
     19 H8        -4.5542    1.2665    9.5847 H         1 RES1    0.0000
     20 C12       -3.3564    2.8165    9.0071 C.ar      1 RES1    0.0000
     21 C13       -2.9976    2.3300    7.7533 C.ar      1 RES1    0.0000
     22 H9        -3.3219    1.5028    7.4757 H         1 RES1    0.0000
     23 C14       -2.1646    3.0578    6.9048 C.ar      1 RES1    0.0000
     24 C15       -1.3884    6.0884    9.0967 C.ar      1 RES1    0.0000
     25 C16       -2.1302    7.2585    9.0384 C.ar      1 RES1    0.0000
     26 H10       -2.9834    7.2404    8.6690 H         1 RES1    0.0000
     27 C17       -1.6214    8.4506    9.5220 C.ar      1 RES1    0.0000
     28 H11       -2.1423    9.2196    9.4728 H         1 RES1    0.0000
     29 C18       -0.3486    8.5250   10.0773 C.ar      1 RES1    0.0000
     30 C19        0.3993    7.3570   10.1131 C.ar      1 RES1    0.0000
     31 H12        1.2607    7.3761   10.4601 H         1 RES1    0.0000
     32 C20       -0.1236    6.1518    9.6385 C.ar      1 RES1    0.0000
     33 H13        0.3932    5.3788    9.6877 H         1 RES1    0.0000
     34 C21        0.1642    9.8277   10.5855 C.2       1 RES1    0.0000
     35 C22        1.0316   10.6007    9.6676 C.ar      1 RES1    0.0000
     36 C23        0.6080   11.7688    9.0743 C.ar      1 RES1    0.0000
     37 H14       -0.2432   12.0854    9.2713 H         1 RES1    0.0000
     38 C24        1.4005   12.4915    8.1899 C.ar      1 RES1    0.0000
     39 H15        1.0620   13.2705    7.8115 H         1 RES1    0.0000
     40 C25        2.6815   12.0814    7.8608 C.ar      1 RES1    0.0000
     41 C26        3.0970   10.9023    8.4451 C.ar      1 RES1    0.0000
     42 H16        3.9462   10.5816    8.2436 H         1 RES1    0.0000
     43 C27        2.3024   10.1745    9.3205 C.ar      1 RES1    0.0000
     44 H17        2.6308    9.3824    9.6832 H         1 RES1    0.0000
     45 C28        3.5773   12.8413    6.8891 C.3       1 RES1    0.0000
     46 C29        4.9717   12.9227    7.3996 C.3       1 RES1    0.0000
     47 H18        5.4764   13.5309    6.8555 H         1 RES1    0.0000
     48 H19        5.3751   12.0532    7.3682 H         1 RES1    0.0000
     49 H20        4.9616   13.2384    8.3063 H         1 RES1    0.0000
     50 C30        3.1091   14.2094    6.6786 C.3       1 RES1    0.0000
     51 H21        2.6774   14.5270    7.4757 H         1 RES1    0.0000
     52 H22        2.4849   14.2244    5.9488 H         1 RES1    0.0000
     53 H23        3.8570   14.7753    6.4727 H         1 RES1    0.0000
     54 C31        3.7009   12.0583    5.6174 C.3       1 RES1    0.0000
     55 H24        2.8558   12.0542    5.1607 H         1 RES1    0.0000
     56 H25        3.9604   11.1566    5.8189 H         1 RES1    0.0000
     57 H26        4.3657   12.4634    5.0554 H         1 RES1    0.0000
     58 C1D        1.8120   17.5054   16.8097 C.ar      1 RES1    0.0000
     59 H1D        2.1322   18.3246   17.1119 H         1 RES1    0.0000
     60 C2D        1.0337   16.7746   17.6000 C.ar      1 RES1    0.0000
     61 H2D        0.8209   17.0943   18.4485 H         1 RES1    0.0000
     62 C3D        0.5270   15.5372   17.1925 C.ar      1 RES1    0.0000
     63 H3D        0.0041   15.0366   17.7746 H         1 RES1    0.0000
     64 C4D        0.7986   15.0638   15.9499 C.ar      1 RES1    0.0000
     65 H4D        0.4297   14.2526   15.6813 H         1 RES1    0.0000
     66 C5D        1.6275   15.7785   15.0544 C.ar      1 RES1    0.0000
     67 C6D        1.9518   15.3060   13.7648 C.ar      1 RES1    0.0000
     68 C7D        2.8254   16.0428   12.9386 C.ar      1 RES1    0.0000
     69 C8D        3.2084   15.5704   11.6468 C.ar      1 RES1    0.0000
     70 H5D        2.8598   14.7733   11.3199 H         1 RES1    0.0000
     71 C9D        4.0901   16.2921   10.8945 C.ar      1 RES1    0.0000
     72 H6D        4.3678   15.9554   10.0750 H         1 RES1    0.0000
     73 C10D       4.5826   17.5285   11.3311 C.ar      1 RES1    0.0000
     74 H7D        5.1602   18.0160   10.7893 H         1 RES1    0.0000
     75 C11D       4.2259   18.0120   12.5289 C.ar      1 RES1    0.0000
     76 H8D        4.5542   18.8373   12.8043 H         1 RES1    0.0000
     77 C12D       3.3564   17.2873   13.3819 C.ar      1 RES1    0.0000
     78 C13D       2.9976   17.7738   14.6357 C.ar      1 RES1    0.0000
     79 H9D        3.3219   18.6010   14.9133 H         1 RES1    0.0000
     80 C14D       2.1646   17.0460   15.4842 C.ar      1 RES1    0.0000
     81 C15D       1.3884   14.0154   13.2923 C.ar      1 RES1    0.0000
     82 C16D       2.1302   12.8453   13.3506 C.ar      1 RES1    0.0000
     83 H10D       2.9834   12.8634   13.7200 H         1 RES1    0.0000
     84 C17D       1.6214   11.6532   12.8670 C.ar      1 RES1    0.0000
     85 H11D       2.1423   10.8842   12.9162 H         1 RES1    0.0000
     86 C18D       0.3486   11.5788   12.3117 C.ar      1 RES1    0.0000
     87 C19D      -0.3993   12.7468   12.2759 C.ar      1 RES1    0.0000
     88 H12D      -1.2607   12.7277   11.9289 H         1 RES1    0.0000
     89 C20D       0.1236   13.9520   12.7505 C.ar      1 RES1    0.0000
     90 H13D      -0.3932   14.7250   12.7013 H         1 RES1    0.0000
     91 C21D      -0.1642   10.2761   11.8035 C.2       1 RES1    0.0000
     92 C22D      -1.0316    9.5031   12.7214 C.ar      1 RES1    0.0000
     93 C23D      -0.6080    8.3350   13.3147 C.ar      1 RES1    0.0000
     94 H14D       0.2432    8.0184   13.1177 H         1 RES1    0.0000
     95 C24D      -1.4005    7.6123   14.1991 C.ar      1 RES1    0.0000
     96 H15D      -1.0620    6.8333   14.5775 H         1 RES1    0.0000
     97 C25D      -2.6815    8.0224   14.5282 C.ar      1 RES1    0.0000
     98 C26D      -3.0970    9.2015   13.9439 C.ar      1 RES1    0.0000
     99 H16D      -3.9462    9.5222   14.1454 H         1 RES1    0.0000
    100 C27D      -2.3024    9.9293   13.0685 C.ar      1 RES1    0.0000
    101 H17D      -2.6308   10.7214   12.7058 H         1 RES1    0.0000
    102 C28D      -3.5773    7.2625   15.4999 C.3       1 RES1    0.0000
    103 C29D      -4.9717    7.1811   14.9894 C.3       1 RES1    0.0000
    104 H18D      -5.4764    6.5729   15.5335 H         1 RES1    0.0000
    105 H19D      -5.3751    8.0506   15.0208 H         1 RES1    0.0000
    106 H20D      -4.9616    6.8654   14.0827 H         1 RES1    0.0000
    107 C30D      -3.1091    5.8944   15.7104 C.3       1 RES1    0.0000
    108 H21D      -2.6774    5.5768   14.9133 H         1 RES1    0.0000
    109 H22D      -2.4849    5.8794   16.4402 H         1 RES1    0.0000
    110 H23D      -3.8570    5.3285   15.9163 H         1 RES1    0.0000
    111 C31D      -3.7009    8.0455   16.7716 C.3       1 RES1    0.0000
    112 H24D      -2.8558    8.0496   17.2283 H         1 RES1    0.0000
    113 H25D      -3.9604    8.9472   16.5701 H         1 RES1    0.0000
    114 H26D      -4.3657    7.6404   17.3336 H         1 RES1    0.0000
@<TRIPOS>BOND
     1    1    2 1
     2    3    1 ar
     3    4    3 1
     4    5    3 ar
     5    6    5 1
     6    7    5 ar
     7    8    7 1
     8    9    7 ar
     9   10    9 ar
    10   11   10 ar
    11   12   11 ar
    12   13   12 1
    13   14   12 ar
    14   15   14 1
    15   16   14 ar
    16   17   16 1
    17   18   16 ar
    18   19   18 1
    19   20   11 ar
    20   21   20 ar
    21   22   21 1
    22   23    1 ar
    23   24   10 1
    24   25   24 ar
    25   26   25 1
    26   27   25 ar
    27   28   27 1
    28   29   27 ar
    29   30   29 ar
    30   31   30 1
    31   32   24 ar
    32   33   32 1
    33   34   29 1
    34   35   34 1
    35   36   35 ar
    36   37   36 1
    37   38   36 ar
    38   39   38 1
    39   40   38 ar
    40   41   40 ar
    41   42   41 1
    42   43   35 ar
    43   44   43 1
    44   45   40 1
    45   46   45 1
    46   47   46 1
    47   48   46 1
    48   49   46 1
    49   50   45 1
    50   51   50 1
    51   52   50 1
    52   53   50 1
    53   54   45 1
    54   55   54 1
    55   56   54 1
    56   57   54 1
    57   58   59 1
    58   60   58 ar
    59   61   60 1
    60   62   60 ar
    61   63   62 1
    62   64   62 ar
    63   65   64 1
    64   66   64 ar
    65   67   66 ar
    66   68   67 ar
    67   69   68 ar
    68   70   69 1
    69   71   69 ar
    70   72   71 1
    71   73   71 ar
    72   74   73 1
    73   75   73 ar
    74   76   75 1
    75   77   68 ar
    76   78   77 ar
    77   79   78 1
    78   80   58 ar
    79   81   67 1
    80   82   81 ar
    81   83   82 1
    82   84   82 ar
    83   85   84 1
    84   86   84 ar
    85   87   86 ar
    86   88   87 1
    87   89   81 ar
    88   90   89 1
    89   91   34 2
    90   92   91 1
    91   93   92 ar
    92   94   93 1
    93   95   93 ar
    94   96   95 1
    95   97   95 ar
    96   98   97 ar
    97   99   98 1
    98  100   92 ar
    99  101  100 1
   100  102   97 1
   101  103  102 1
   102  104  103 1
   103  105  103 1
   104  106  103 1
   105  107  102 1
   106  108  107 1
   107  109  107 1
   108  110  107 1
   109  111  102 1
   110  112  111 1
   111  113  111 1
   112  114  111 1
   113    9   23 ar
   114   18   20 ar
   115   21   23 ar
   116   30   32 ar
   117   41   43 ar
   118   66   80 ar
   119   75   77 ar
   120   78   80 ar
   121   86   91 1
   122   87   89 ar
   123   98  100 ar
@<TRIPOS>SUBSTRUCTURE
     1 RES1 1

@<TRIPOS>CRYSIN
  20.2680   10.0519   22.3890  90.0000  90.0000  90.0000  61 1

