# MOL2 file generated by ConQuest
# Please check atom types

@<TRIPOS>MOLECULE
QODDIX
   108   114     3
SMALL
NO_CHARGES
****
Generated from CSD

@<TRIPOS>ATOM
      1 C1        16.1426   -3.5647   14.0411 C.ar      1 RES1    0.0000
      2 C2        25.8117   -0.4159   11.4621 C.ar      2 RES2    0.0000
      3 C3        26.1122   -3.3442    6.7441 C.ar      3 RES3    0.0000
      4 C4        16.1675   -2.3301   14.7758 C.ar      1 RES1    0.0000
      5 H1        15.3475   -1.9320   15.0417 H         1 RES1    0.0000
      6 C5        25.7737    0.8121   10.7236 C.ar      2 RES2    0.0000
      7 H2        26.5905    1.2548   10.5250 H         2 RES2    0.0000
      8 C6        26.0137   -2.1073    7.4740 C.ar      3 RES3    0.0000
      9 H3        26.8098   -1.6475    7.7142 H         3 RES3    0.0000
     10 C7        17.3336   -1.7194   15.0998 C.ar      1 RES1    0.0000
     11 H4        17.3095   -0.8888   15.5609 H         1 RES1    0.0000
     12 C8        24.6048    1.3647   10.2989 C.ar      2 RES2    0.0000
     13 H5        24.6213    2.1881    9.8245 H         2 RES2    0.0000
     14 C9        24.8086   -1.5780    7.8280 C.ar      3 RES3    0.0000
     15 H6        24.7809   -0.7599    8.3108 H         3 RES3    0.0000
     16 C10       18.5911   -2.2927   14.7672 C.ar      1 RES1    0.0000
     17 C11       23.3530    0.7272   10.5546 C.ar      2 RES2    0.0000
     18 C12       23.5923   -2.2315    7.4866 C.ar      3 RES3    0.0000
     19 C13       19.8055   -1.6938   15.0925 C.ar      1 RES1    0.0000
     20 H7        19.8026   -0.8466   15.5234 H         1 RES1    0.0000
     21 C14       22.1237    1.2868   10.1838 C.ar      2 RES2    0.0000
     22 H8        22.1092    2.1287    9.7427 H         2 RES2    0.0000
     23 C15       22.3388   -1.6956    7.7745 C.ar      3 RES3    0.0000
     24 H9        22.2844   -0.8567    8.2180 H         3 RES3    0.0000
     25 C16       21.0210   -2.3046   14.8039 C.ar      1 RES1    0.0000
     26 C17       20.9185    0.6274   10.4512 C.ar      2 RES2    0.0000
     27 C18       21.1604   -2.3640    7.4271 C.ar      3 RES3    0.0000
     28 C19       22.2775   -1.7176   15.1519 C.ar      1 RES1    0.0000
     29 H10       22.2915   -0.8710   15.5830 H         1 RES1    0.0000
     30 C20       19.6587    1.1983   10.1047 C.ar      2 RES2    0.0000
     31 H11       19.6297    2.0455    9.6764 H         2 RES2    0.0000
     32 C21       19.8653   -1.8138    7.6799 C.ar      3 RES3    0.0000
     33 H12       19.7917   -0.9684    8.1075 H         3 RES3    0.0000
     34 C22       23.4506   -2.3467   14.8792 C.ar      1 RES1    0.0000
     35 H13       24.2751   -1.9416   15.1256 H         1 RES1    0.0000
     36 C23       18.4944    0.5448   10.3809 C.ar      2 RES2    0.0000
     37 H14       17.6642    0.9339   10.1338 H         2 RES2    0.0000
     38 C24       18.7415   -2.4816    7.3184 C.ar      3 RES3    0.0000
     39 H15       17.8913   -2.0978    7.4910 H         3 RES3    0.0000
     40 C25       23.4491   -3.6169   14.2229 C.ar      1 RES1    0.0000
     41 H16       24.2718   -4.0483   14.0274 H         1 RES1    0.0000
     42 C26       18.5168   -0.7224   11.0405 C.ar      2 RES2    0.0000
     43 H17       17.7006   -1.1704   11.2343 H         2 RES2    0.0000
     44 C27       18.8250   -3.7465    6.6855 C.ar      3 RES3    0.0000
     45 H18       18.0305   -4.2045    6.4436 H         3 RES3    0.0000
     46 C28       22.2744   -4.2134   13.8758 C.ar      1 RES1    0.0000
     47 H19       22.2916   -5.0577   13.4396 H         1 RES1    0.0000
     48 C29       19.7004   -1.2910   11.3934 C.ar      2 RES2    0.0000
     49 H20       19.7013   -2.1323   11.8353 H         2 RES2    0.0000
     50 C30       20.0382   -4.3115    6.4215 C.ar      3 RES3    0.0000
     51 H21       20.0801   -5.1598    5.9950 H         3 RES3    0.0000
     52 C31       21.0180   -3.5938   14.1538 C.ar      1 RES1    0.0000
     53 C32       20.9370   -0.6464   11.1123 C.ar      2 RES2    0.0000
     54 C33       21.2477   -3.6365    6.7810 C.ar      3 RES3    0.0000
     55 C34       19.8034   -4.1742   13.8144 C.ar      1 RES1    0.0000
     56 H22       19.8030   -5.0173   13.3755 H         1 RES1    0.0000
     57 C35       22.1684   -1.1894   11.4888 C.ar      2 RES2    0.0000
     58 H23       22.1856   -2.0307   11.9303 H         2 RES2    0.0000
     59 C36       22.4985   -4.1724    6.4926 C.ar      3 RES3    0.0000
     60 H24       22.5534   -5.0196    6.0657 H         3 RES3    0.0000
     61 C37       18.5840   -3.5635   14.0950 C.ar      1 RES1    0.0000
     62 C38       23.3706   -0.5299   11.2358 C.ar      2 RES2    0.0000
     63 C39       23.6743   -3.4928    6.8157 C.ar      3 RES3    0.0000
     64 C40       17.3372   -4.1481   13.7390 C.ar      1 RES1    0.0000
     65 H25       17.3370   -4.9763   13.2739 H         1 RES1    0.0000
     66 C41       24.6263   -1.0605   11.6773 C.ar      2 RES2    0.0000
     67 H26       24.6349   -1.8922   12.1359 H         2 RES2    0.0000
     68 C42       24.9598   -4.0085    6.4593 C.ar      3 RES3    0.0000
     69 H27       25.0111   -4.8432    6.0083 H         3 RES3    0.0000
     70 C43       14.7914   -4.1885   13.6984 C.3       1 RES1    0.0000
     71 C44       27.1536   -0.9541   11.9412 C.3       2 RES2    0.0000
     72 C45       27.4957   -3.8647    6.3402 C.3       3 RES3    0.0000
     73 C46       13.8628   -3.1298   13.0821 C.3       1 RES1    0.0000
     74 H28       13.0230   -3.5528   12.8076 H         1 RES1    0.0000
     75 H29       14.2969   -2.7299   12.2994 H         1 RES1    0.0000
     76 H30       13.6758   -2.4329   13.7445 H         1 RES1    0.0000
     77 C47       27.9577   -1.4621   10.7475 C.3       2 RES2    0.0000
     78 H31       28.0778   -0.7349   10.1029 H         2 RES2    0.0000
     79 H32       27.4772   -2.2012   10.3195 H         2 RES2    0.0000
     80 H33       28.8357   -1.7758   11.0531 H         2 RES2    0.0000
     81 C48       28.3270   -2.7602    5.6823 C.3       3 RES3    0.0000
     82 H34       28.4959   -2.0473    6.3331 H         3 RES3    0.0000
     83 H35       27.8368   -2.3937    4.9167 H         3 RES3    0.0000
     84 H36       29.1801   -3.1321    5.3763 H         3 RES3    0.0000
     85 C49       14.1633   -4.7273   14.9853 C.3       1 RES1    0.0000
     86 H37       14.7708   -5.3755   15.3996 H         1 RES1    0.0000
     87 H38       13.3111   -5.1658   14.7743 H         1 RES1    0.0000
     88 H39       14.0047   -3.9865   15.6073 H         1 RES1    0.0000
     89 C50       26.9946   -2.1020   12.9420 C.3       2 RES2    0.0000
     90 H40       27.8782   -2.4145   13.2230 H         2 RES2    0.0000
     91 H41       26.5064   -2.8387   12.5181 H         2 RES2    0.0000
     92 H42       26.4960   -1.7859   13.7247 H         2 RES2    0.0000
     93 C51       27.3897   -5.0208    5.3418 C.3       3 RES3    0.0000
     94 H43       28.2881   -5.3113    5.0824 H         3 RES3    0.0000
     95 H44       26.8998   -4.7226    4.5476 H         3 RES3    0.0000
     96 H45       26.9133   -5.7688    5.7586 H         3 RES3    0.0000
     97 C52       14.9327   -5.3232   12.6887 C.3       1 RES1    0.0000
     98 H46       15.4663   -6.0457   13.0816 H         1 RES1    0.0000
     99 H47       15.3799   -4.9899   11.8817 H         1 RES1    0.0000
    100 H48       14.0459   -5.6642   12.4541 H         1 RES1    0.0000
    101 C53       27.9544    0.1551   12.6465 C.3       2 RES2    0.0000
    102 H49       28.1056    0.8959   12.0232 H         2 RES2    0.0000
    103 H50       28.8165   -0.2032   12.9424 H         2 RES2    0.0000
    104 H51       27.4503    0.4783   13.4219 H         2 RES2    0.0000
    105 C54       28.2300   -4.3566    7.5940 C.3       3 RES3    0.0000
    106 H52       28.3257   -3.6152    8.2268 H         3 RES3    0.0000
    107 H53       29.1153   -4.6899    7.3429 H         3 RES3    0.0000
    108 H54       27.7167   -5.0785    8.0125 H         3 RES3    0.0000
@<TRIPOS>BOND
     1    1    4 ar
     2    2    6 ar
     3    3    8 ar
     4    4    5 1
     5    6    7 1
     6    8    9 1
     7   10    4 ar
     8   11   10 1
     9   12    6 ar
    10   13   12 1
    11   14    8 ar
    12   15   14 1
    13   16   10 ar
    14   17   12 ar
    15   18   14 ar
    16   19   16 ar
    17   20   19 1
    18   21   17 ar
    19   22   21 1
    20   23   18 ar
    21   24   23 1
    22   25   19 ar
    23   26   21 ar
    24   27   23 ar
    25   28   25 ar
    26   29   28 1
    27   30   26 ar
    28   31   30 1
    29   32   27 ar
    30   33   32 1
    31   34   28 ar
    32   35   34 1
    33   36   30 ar
    34   37   36 1
    35   38   32 ar
    36   39   38 1
    37   40   34 ar
    38   41   40 1
    39   42   36 ar
    40   43   42 1
    41   44   38 ar
    42   45   44 1
    43   46   40 ar
    44   47   46 1
    45   48   42 ar
    46   49   48 1
    47   50   44 ar
    48   51   50 1
    49   52   25 ar
    50   53   26 ar
    51   54   27 ar
    52   55   52 ar
    53   56   55 1
    54   57   53 ar
    55   58   57 1
    56   59   54 ar
    57   60   59 1
    58   61   16 ar
    59   62   17 ar
    60   63   18 ar
    61   64    1 ar
    62   65   64 1
    63   66    2 ar
    64   67   66 1
    65   68    3 ar
    66   69   68 1
    67   70    1 1
    68   71    2 1
    69   72    3 1
    70   73   70 1
    71   74   73 1
    72   75   73 1
    73   76   73 1
    74   77   71 1
    75   78   77 1
    76   79   77 1
    77   80   77 1
    78   81   72 1
    79   82   81 1
    80   83   81 1
    81   84   81 1
    82   85   70 1
    83   86   85 1
    84   87   85 1
    85   88   85 1
    86   89   71 1
    87   90   89 1
    88   91   89 1
    89   92   89 1
    90   93   72 1
    91   94   93 1
    92   95   93 1
    93   96   93 1
    94   97   70 1
    95   98   97 1
    96   99   97 1
    97  100   97 1
    98  101   71 1
    99  102  101 1
   100  103  101 1
   101  104  101 1
   102  105   72 1
   103  106  105 1
   104  107  105 1
   105  108  105 1
   106   46   52 ar
   107   48   53 ar
   108   50   54 ar
   109   55   61 ar
   110   57   62 ar
   111   59   63 ar
   112   61   64 ar
   113   62   66 ar
   114   63   68 ar
@<TRIPOS>SUBSTRUCTURE
     1 RES1 1
     2 RES2 2
     3 RES3 3

@<TRIPOS>CRYSIN
  30.1630    5.9411   22.1184  90.0000  92.5010  90.0000  14 1

