# MOL2 file generated by ConQuest
# Please check atom types

@<TRIPOS>MOLECULE
QOLTUI
    58    63     1
SMALL
NO_CHARGES
****
Generated from CSD

@<TRIPOS>ATOM
      1 C1         5.7641    1.6232    1.3631 C.ar      1 RES1    0.0000
      2 H1         6.2704    0.8442    1.3136 H         1 RES1    0.0000
      3 C2         4.4361    1.5598    1.7202 C.ar      1 RES1    0.0000
      4 H2         4.0481    0.7382    1.9177 H         1 RES1    0.0000
      5 C3         3.6763    2.7154    1.7849 C.ar      1 RES1    0.0000
      6 H3         2.7761    2.6671    2.0138 H         1 RES1    0.0000
      7 C4         3.7532    7.5887   -1.9417 C.ar      1 RES1    0.0000
      8 H4         3.8184    8.0913   -2.7213 H         1 RES1    0.0000
      9 C5         3.8698    7.4272    0.4371 C.ar      1 RES1    0.0000
     10 H5         4.0189    7.8376    1.2581 H         1 RES1    0.0000
     11 C6         3.3416    5.4980   -0.8489 C.ar      1 RES1    0.0000
     12 H6         3.1320    4.5941   -0.9071 H         1 RES1    0.0000
     13 C7         6.3397    2.8290    1.0817 C.ar      1 RES1    0.0000
     14 H7         7.2393    2.8716    0.8517 H         1 RES1    0.0000
     15 C8         5.5883    3.9846    1.1381 C.ar      1 RES1    0.0000
     16 H8         5.9825    4.7995    0.9237 H         1 RES1    0.0000
     17 C9         3.4331    3.0590    6.2386 C.ar      1 RES1    0.0000
     18 H9         3.5801    2.5214    6.9835 H         1 RES1    0.0000
     19 C10        4.4769    3.6969    5.6433 C.ar      1 RES1    0.0000
     20 H10        5.3378    3.5833    5.9748 H         1 RES1    0.0000
     21 C11        0.9735    9.3870    3.4265 C.ar      1 RES1    0.0000
     22 H11        0.6227   10.2379    3.5601 H         1 RES1    0.0000
     23 C12        1.9848    8.9431    4.2343 C.ar      1 RES1    0.0000
     24 H12        2.3074    9.4797    4.9217 H         1 RES1    0.0000
     25 C13        4.2541    3.9460    1.5098 C.ar      1 RES1    0.0000
     26 C14        2.1069    3.2142    5.7194 C.ar      1 RES1    0.0000
     27 C15        3.9697    8.1765   -0.7251 C.ar      1 RES1    0.0000
     28 H13        4.1839    9.0803   -0.6780 H         1 RES1    0.0000
     29 C16        3.5526    6.0804    0.3981 C.ar      1 RES1    0.0000
     30 C17        3.4409    6.2580   -2.0054 C.ar      1 RES1    0.0000
     31 H14        3.2932    5.8586   -2.8322 H         1 RES1    0.0000
     32 C18        4.2633    4.5212    4.5376 C.ar      1 RES1    0.0000
     33 H15        4.9900    4.9623    4.1587 H         1 RES1    0.0000
     34 C19        0.5968    4.1379    4.0744 C.ar      1 RES1    0.0000
     35 H16        0.4273    4.6717    3.3329 H         1 RES1    0.0000
     36 C20        0.4513    8.5702    2.3857 C.ar      1 RES1    0.0000
     37 C21       -0.5579    6.9461    0.3834 C.ar      1 RES1    0.0000
     38 H17       -0.9075    6.4094   -0.2919 H         1 RES1    0.0000
     39 C22        0.4933    6.4842    1.1275 C.ar      1 RES1    0.0000
     40 H18        0.8486    5.6418    0.9552 H         1 RES1    0.0000
     41 C23        3.4975    5.2297    1.6232 C.2       1 RES1    0.0000
     42 C24        2.8762    5.5700    2.7788 C.2       1 RES1    0.0000
     43 C25        3.0312    4.7020    3.9948 C.ar      1 RES1    0.0000
     44 C26        1.9238    4.0434    4.5842 C.ar      1 RES1    0.0000
     45 C27        1.0137    2.5517    6.3016 C.ar      1 RES1    0.0000
     46 H19        1.1460    2.0254    7.0574 H         1 RES1    0.0000
     47 C28       -0.2160    2.6652    5.7863 C.ar      1 RES1    0.0000
     48 H20       -0.9283    2.2166    6.1798 H         1 RES1    0.0000
     49 C29       -0.4287    3.4565    4.6583 C.ar      1 RES1    0.0000
     50 H21       -1.2840    3.5208    4.2991 H         1 RES1    0.0000
     51 C30        2.1392    6.8603    2.9887 C.ar      1 RES1    0.0000
     52 C31        1.0499    7.2953    2.1747 C.ar      1 RES1    0.0000
     53 C32        2.5263    7.6711    4.0155 C.ar      1 RES1    0.0000
     54 H22        3.1828    7.3644    4.5984 H         1 RES1    0.0000
     55 C33       -0.6323    8.9687    1.5787 C.ar      1 RES1    0.0000
     56 H23       -1.0235    9.7996    1.7256 H         1 RES1    0.0000
     57 C34       -1.1102    8.1907    0.6115 C.ar      1 RES1    0.0000
     58 H24       -1.8200    8.4860    0.0868 H         1 RES1    0.0000
@<TRIPOS>BOND
     1    1    2 1
     2    3    1 ar
     3    4    3 1
     4    5    3 ar
     5    6    5 1
     6    7    8 1
     7    9   10 1
     8   11   12 1
     9   13    1 ar
    10   14   13 1
    11   15   13 ar
    12   16   15 1
    13   17   18 1
    14   19   17 ar
    15   20   19 1
    16   21   22 1
    17   23   21 ar
    18   24   23 1
    19   25    5 ar
    20   26   17 ar
    21   27    7 ar
    22   28   27 1
    23   29    9 ar
    24   30    7 ar
    25   31   30 1
    26   32   19 ar
    27   33   32 1
    28   34   35 1
    29   36   21 ar
    30   37   38 1
    31   39   37 ar
    32   40   39 1
    33   41   25 1
    34   42   41 2
    35   43   32 ar
    36   44   26 ar
    37   45   26 ar
    38   46   45 1
    39   47   45 ar
    40   48   47 1
    41   49   34 ar
    42   50   49 1
    43   51   42 1
    44   52   36 ar
    45   53   23 ar
    46   54   53 1
    47   55   36 ar
    48   56   55 1
    49   57   37 ar
    50   58   57 1
    51    9   27 ar
    52   11   29 ar
    53   11   30 ar
    54   15   25 ar
    55   29   41 1
    56   34   44 ar
    57   39   52 ar
    58   42   43 1
    59   43   44 ar
    60   47   49 ar
    61   51   52 ar
    62   51   53 ar
    63   55   57 ar
@<TRIPOS>SUBSTRUCTURE
     1 RES1 1

@<TRIPOS>CRYSIN
  13.7789    9.4646   19.5520  90.0000 109.1070  90.0000  14 1

