# MOL2 file generated by ConQuest
# Please check atom types

@<TRIPOS>MOLECULE
QOLVAQ01
    70    77     1
SMALL
NO_CHARGES
****
Generated from CSD

@<TRIPOS>ATOM
      1 C1        10.2527    8.8219    3.9950 C.ar      1 RES1    0.0000
      2 C2        10.2140    8.8900    5.4126 C.ar      1 RES1    0.0000
      3 C3        11.2479    8.3584    6.2504 C.ar      1 RES1    0.0000
      4 H1        12.0013    7.9803    5.8575 H         1 RES1    0.0000
      5 C4        11.1522    8.3951    7.6135 C.ar      1 RES1    0.0000
      6 H2        11.8270    8.0187    8.1302 H         1 RES1    0.0000
      7 C5        10.0356    9.0000    8.2510 C.ar      1 RES1    0.0000
      8 H3         9.9809    9.0157    9.1794 H         1 RES1    0.0000
      9 C6         9.0463    9.5567    7.4994 C.ar      1 RES1    0.0000
     10 H4         8.3277    9.9703    7.9204 H         1 RES1    0.0000
     11 C7         9.0961    9.5144    6.0689 C.ar      1 RES1    0.0000
     12 C8         8.0629   10.0640    5.3113 C.ar      1 RES1    0.0000
     13 H5         7.3680   10.5078    5.7412 H         1 RES1    0.0000
     14 C9         8.0511    9.9608    3.9204 C.ar      1 RES1    0.0000
     15 C10        6.9568   10.4726    3.1529 C.ar      1 RES1    0.0000
     16 H6         6.2702   10.9315    3.5810 H         1 RES1    0.0000
     17 C11        6.9083   10.2964    1.8026 C.ar      1 RES1    0.0000
     18 H7         6.1972   10.6406    1.3121 H         1 RES1    0.0000
     19 C12        7.9448    9.5869    1.1485 C.ar      1 RES1    0.0000
     20 H8         7.8884    9.4379    0.2326 H         1 RES1    0.0000
     21 C13        9.0271    9.1165    1.8397 C.ar      1 RES1    0.0000
     22 H9         9.6985    8.6633    1.3828 H         1 RES1    0.0000
     23 C14        9.1459    9.3084    3.2526 C.ar      1 RES1    0.0000
     24 C15       12.1650    9.2142    2.3407 C.ar      1 RES1    0.0000
     25 C16       12.6649   10.4522    2.8212 C.ar      1 RES1    0.0000
     26 C17       12.7019   10.7887    4.2126 C.ar      1 RES1    0.0000
     27 H10       12.4012   10.1708    4.8387 H         1 RES1    0.0000
     28 C18       13.1714   12.0034    4.6391 C.ar      1 RES1    0.0000
     29 H11       13.1875   12.1930    5.5491 H         1 RES1    0.0000
     30 C19       13.6323   12.9757    3.7155 C.ar      1 RES1    0.0000
     31 H12       13.9112   13.8114    4.0146 H         1 RES1    0.0000
     32 C20       13.6637   12.6783    2.3886 C.ar      1 RES1    0.0000
     33 H13       13.9832   13.3110    1.7861 H         1 RES1    0.0000
     34 C21       13.2146   11.4107    1.9041 C.ar      1 RES1    0.0000
     35 C22       13.3213   11.0893    0.5528 C.ar      1 RES1    0.0000
     36 H14       13.6678   11.7164   -0.0404 H         1 RES1    0.0000
     37 C23       12.9186    9.8473    0.0758 C.ar      1 RES1    0.0000
     38 C24       13.0862    9.5264   -1.3079 C.ar      1 RES1    0.0000
     39 H15       13.4975   10.1402   -1.8720 H         1 RES1    0.0000
     40 C25       12.6557    8.3401   -1.8124 C.ar      1 RES1    0.0000
     41 H16       12.7815    8.1390   -2.7113 H         1 RES1    0.0000
     42 C26       12.0114    7.4092   -0.9526 C.ar      1 RES1    0.0000
     43 H17       11.7019    6.6034   -1.3007 H         1 RES1    0.0000
     44 C27       11.8381    7.6776    0.3767 C.ar      1 RES1    0.0000
     45 H18       11.4071    7.0524    0.9139 H         1 RES1    0.0000
     46 C28       12.3046    8.8988    0.9629 C.ar      1 RES1    0.0000
     47 C29       11.4571    8.2675    3.2727 C.2       1 RES1    0.0000
     48 C30       11.8762    6.9843    3.4466 C.2       1 RES1    0.0000
     49 C31       11.0749    5.9949    4.2163 C.ar      1 RES1    0.0000
     50 C32        9.6827    5.8998    4.0851 C.ar      1 RES1    0.0000
     51 H19        9.2424    6.4204    3.4533 H         1 RES1    0.0000
     52 C33        8.9529    5.0307    4.8950 C.ar      1 RES1    0.0000
     53 H20        8.0296    4.9743    4.8008 H         1 RES1    0.0000
     54 C34        9.6019    4.2482    5.8420 C.ar      1 RES1    0.0000
     55 H21        9.1114    3.6905    6.4011 H         1 RES1    0.0000
     56 C35       10.9860    4.3020    5.9506 C.ar      1 RES1    0.0000
     57 H22       11.4229    3.7650    6.5717 H         1 RES1    0.0000
     58 C36       11.7202    5.1559    5.1342 C.ar      1 RES1    0.0000
     59 H23       12.6479    5.1703    5.1977 H         1 RES1    0.0000
     60 C37       13.1865    6.4939    2.9216 C.ar      1 RES1    0.0000
     61 C38       13.2700    5.2527    2.2783 C.ar      1 RES1    0.0000
     62 H24       12.5078    4.7271    2.1906 H         1 RES1    0.0000
     63 C39       14.4845    4.7965    1.7685 C.ar      1 RES1    0.0000
     64 H25       14.5243    3.9775    1.3298 H         1 RES1    0.0000
     65 C40       15.6338    5.5599    1.9135 C.ar      1 RES1    0.0000
     66 H26       16.4422    5.2558    1.5687 H         1 RES1    0.0000
     67 C41       15.5735    6.7772    2.5750 C.ar      1 RES1    0.0000
     68 H27       16.3458    7.2834    2.6886 H         1 RES1    0.0000
     69 C42       14.3565    7.2437    3.0702 C.ar      1 RES1    0.0000
     70 H28       14.3232    8.0649    3.5052 H         1 RES1    0.0000
@<TRIPOS>BOND
     1    1    2 ar
     2    2    3 ar
     3    3    4 1
     4    5    3 ar
     5    6    5 1
     6    7    5 ar
     7    8    7 1
     8    9    7 ar
     9   10    9 1
    10   11    2 ar
    11   12   11 ar
    12   13   12 1
    13   14   12 ar
    14   15   14 ar
    15   16   15 1
    16   17   15 ar
    17   18   17 1
    18   19   17 ar
    19   20   19 1
    20   21   19 ar
    21   22   21 1
    22   23    1 ar
    23   24   25 ar
    24   25   26 ar
    25   26   27 1
    26   28   26 ar
    27   29   28 1
    28   30   28 ar
    29   31   30 1
    30   32   30 ar
    31   33   32 1
    32   34   25 ar
    33   35   34 ar
    34   36   35 1
    35   37   35 ar
    36   38   37 ar
    37   39   38 1
    38   40   38 ar
    39   41   40 1
    40   42   40 ar
    41   43   42 1
    42   44   42 ar
    43   45   44 1
    44   46   24 ar
    45   47    1 1
    46   48   47 2
    47   49   48 1
    48   50   49 ar
    49   51   50 1
    50   52   50 ar
    51   53   52 1
    52   54   52 ar
    53   55   54 1
    54   56   54 ar
    55   57   56 1
    56   58   49 ar
    57   59   58 1
    58   60   48 1
    59   61   60 ar
    60   62   61 1
    61   63   61 ar
    62   64   63 1
    63   65   63 ar
    64   66   65 1
    65   67   65 ar
    66   68   67 1
    67   69   60 ar
    68   70   69 1
    69    9   11 ar
    70   14   23 ar
    71   21   23 ar
    72   24   47 1
    73   32   34 ar
    74   37   46 ar
    75   44   46 ar
    76   56   58 ar
    77   67   69 ar
@<TRIPOS>SUBSTRUCTURE
     1 RES1 1

@<TRIPOS>CRYSIN
   9.6966   11.6563   13.4072  87.6690  70.5610  79.6840   2 1

