# MOL2 file generated by ConQuest
# Please check atom types

@<TRIPOS>MOLECULE
QOLVAQ
    70    77     1
SMALL
NO_CHARGES
****
Generated from CSD

@<TRIPOS>ATOM
      1 C1         7.5214    9.2487    2.3819 C.ar      1 RES1    0.0000
      2 C2         7.6369    8.9350    0.9985 C.ar      1 RES1    0.0000
      3 C3         7.1478    7.7251    0.4148 C.ar      1 RES1    0.0000
      4 H1         6.7173    7.1037    0.9561 H         1 RES1    0.0000
      5 C4         7.2947    7.4591   -0.9109 C.ar      1 RES1    0.0000
      6 H2         6.9714    6.6579   -1.2556 H         1 RES1    0.0000
      7 C5         7.9293    8.3773   -1.7687 C.ar      1 RES1    0.0000
      8 H3         8.0366    8.1762   -2.6699 H         1 RES1    0.0000
      9 C6         8.3807    9.5459   -1.2799 C.ar      1 RES1    0.0000
     10 H4         8.7876   10.1537   -1.8546 H         1 RES1    0.0000
     11 C7         8.2481    9.8725    0.1038 C.ar      1 RES1    0.0000
     12 C8         8.6764   11.0959    0.5808 C.ar      1 RES1    0.0000
     13 H5         9.0297   11.7149   -0.0166 H         1 RES1    0.0000
     14 C9         8.5939   11.4276    1.9255 C.ar      1 RES1    0.0000
     15 C10        9.0659   12.6782    2.4026 C.ar      1 RES1    0.0000
     16 H6         9.3918   13.3031    1.7957 H         1 RES1    0.0000
     17 C11        9.0516   12.9782    3.7148 C.ar      1 RES1    0.0000
     18 H7         9.3517   13.8087    4.0087 H         1 RES1    0.0000
     19 C12        8.5791   12.0247    4.6430 C.ar      1 RES1    0.0000
     20 H8         8.6023   12.2219    5.5510 H         1 RES1    0.0000
     21 C13        8.0907   10.8251    4.2333 C.ar      1 RES1    0.0000
     22 H9         7.7847   10.2174    4.8675 H         1 RES1    0.0000
     23 C14        8.0370   10.4775    2.8487 C.ar      1 RES1    0.0000
     24 C15        5.6206    8.8577    4.0608 C.ar      1 RES1    0.0000
     25 C16        4.5087    9.3401    3.3412 C.ar      1 RES1    0.0000
     26 C17        4.3596    9.1798    1.9325 C.ar      1 RES1    0.0000
     27 H10        5.0327    8.7498    1.4553 H         1 RES1    0.0000
     28 C18        3.2696    9.6327    1.2675 C.ar      1 RES1    0.0000
     29 H11        3.1985    9.4925    0.3507 H         1 RES1    0.0000
     30 C19        2.2451   10.3110    1.9469 C.ar      1 RES1    0.0000
     31 H12        1.5222   10.6552    1.4745 H         1 RES1    0.0000
     32 C20        2.3114   10.4632    3.2795 C.ar      1 RES1    0.0000
     33 H13        1.6190   10.9011    3.7207 H         1 RES1    0.0000
     34 C21        3.4159    9.9699    4.0358 C.ar      1 RES1    0.0000
     35 C22        3.4571   10.0543    5.4159 C.ar      1 RES1    0.0000
     36 H14        2.7609   10.4807    5.8607 H         1 RES1    0.0000
     37 C23        4.5025    9.5239    6.1579 C.ar      1 RES1    0.0000
     38 C24        4.4895    9.5599    7.5831 C.ar      1 RES1    0.0000
     39 H15        3.7754    9.9644    8.0212 H         1 RES1    0.0000
     40 C25        5.4853    9.0224    8.3094 C.ar      1 RES1    0.0000
     41 H16        5.4471    9.0397    9.2384 H         1 RES1    0.0000
     42 C26        6.5913    8.4298    7.6546 C.ar      1 RES1    0.0000
     43 H17        7.2795    8.0590    8.1581 H         1 RES1    0.0000
     44 C27        6.6562    8.3985    6.2996 C.ar      1 RES1    0.0000
     45 H18        7.4067    8.0287    5.8940 H         1 RES1    0.0000
     46 C28        5.6118    8.9131    5.4778 C.ar      1 RES1    0.0000
     47 C29        6.8161    8.3014    3.3242 C.2       1 RES1    0.0000
     48 C30        7.2205    7.0189    3.4856 C.2       1 RES1    0.0000
     49 C31        8.5183    6.5092    2.9516 C.ar      1 RES1    0.0000
     50 C32        9.6945    7.2302    3.0978 C.ar      1 RES1    0.0000
     51 H19        9.6784    8.0488    3.5377 H         1 RES1    0.0000
     52 C33       10.8922    6.7462    2.5957 C.ar      1 RES1    0.0000
     53 H20       11.6718    7.2410    2.7019 H         1 RES1    0.0000
     54 C34       10.9335    5.5431    1.9443 C.ar      1 RES1    0.0000
     55 H21       11.7378    5.2238    1.6024 H         1 RES1    0.0000
     56 C35        9.7842    4.8120    1.7992 C.ar      1 RES1    0.0000
     57 H22        9.8098    3.9944    1.3554 H         1 RES1    0.0000
     58 C36        8.5834    5.2795    2.3079 C.ar      1 RES1    0.0000
     59 H23        7.8136    4.7659    2.2181 H         1 RES1    0.0000
     60 C37        6.4171    6.0295    4.2606 C.ar      1 RES1    0.0000
     61 C38        7.0440    5.2054    5.1891 C.ar      1 RES1    0.0000
     62 H24        7.9699    5.2309    5.2732 H         1 RES1    0.0000
     63 C39        6.3123    4.3480    5.9900 C.ar      1 RES1    0.0000
     64 H25        6.7452    3.8177    6.6184 H         1 RES1    0.0000
     65 C40        4.9506    4.2785    5.8589 C.ar      1 RES1    0.0000
     66 H26        4.4596    3.7085    6.4059 H         1 RES1    0.0000
     67 C41        4.3076    5.0546    4.9143 C.ar      1 RES1    0.0000
     68 H27        3.3849    4.9971    4.8163 H         1 RES1    0.0000
     69 C42        5.0361    5.9201    4.1117 C.ar      1 RES1    0.0000
     70 H28        4.5994    6.4310    3.4698 H         1 RES1    0.0000
@<TRIPOS>BOND
     1    1    2 ar
     2    2    3 ar
     3    3    4 1
     4    5    3 ar
     5    6    5 1
     6    7    5 ar
     7    8    7 1
     8    9    7 ar
     9   10    9 1
    10   11    2 ar
    11   12   11 ar
    12   13   12 1
    13   14   12 ar
    14   15   14 ar
    15   16   15 1
    16   17   15 ar
    17   18   17 1
    18   19   17 ar
    19   20   19 1
    20   21   19 ar
    21   22   21 1
    22   23    1 ar
    23   24   25 ar
    24   25   26 ar
    25   26   27 1
    26   28   26 ar
    27   29   28 1
    28   30   28 ar
    29   31   30 1
    30   32   30 ar
    31   33   32 1
    32   34   25 ar
    33   35   34 ar
    34   36   35 1
    35   37   35 ar
    36   38   37 ar
    37   39   38 1
    38   40   38 ar
    39   41   40 1
    40   42   40 ar
    41   43   42 1
    42   44   42 ar
    43   45   44 1
    44   46   24 ar
    45   47    1 1
    46   48   47 2
    47   49   48 1
    48   50   49 ar
    49   51   50 1
    50   52   50 ar
    51   53   52 1
    52   54   52 ar
    53   55   54 1
    54   56   54 ar
    55   57   56 1
    56   58   49 ar
    57   59   58 1
    58   60   48 1
    59   61   60 ar
    60   62   61 1
    61   63   61 ar
    62   64   63 1
    63   65   63 ar
    64   66   65 1
    65   67   65 ar
    66   68   67 1
    67   69   60 ar
    68   70   69 1
    69    9   11 ar
    70   14   23 ar
    71   21   23 ar
    72   24   47 1
    73   32   34 ar
    74   37   46 ar
    75   44   46 ar
    76   56   58 ar
    77   67   69 ar
@<TRIPOS>SUBSTRUCTURE
     1 RES1 1

@<TRIPOS>CRYSIN
   9.7985   11.7195   13.6490  87.4180  69.7120  79.1120   2 1

