# MOL2 file generated by ConQuest
# Please check atom types

@<TRIPOS>MOLECULE
QOQYEC01
    48    54     1
SMALL
NO_CHARGES
****
Generated from CSD

@<TRIPOS>ATOM
      1 C1         6.2783    1.8650   12.7092 C.ar      1 RES1    0.0000
      2 H1         5.6497    1.2128   12.4989 H         1 RES1    0.0000
      3 C2         7.1178    1.6689   13.7556 C.ar      1 RES1    0.0000
      4 H2         7.0615    0.8816   14.2481 H         1 RES1    0.0000
      5 C3         8.0762    2.6447   14.1083 C.ar      1 RES1    0.0000
      6 H3         8.6381    2.4986   14.8337 H         1 RES1    0.0000
      7 C4         8.1809    3.7845   13.3969 C.ar      1 RES1    0.0000
      8 H4         8.8154    4.4184   13.6421 H         1 RES1    0.0000
      9 C5         6.6819    6.6591    9.6747 C.ar      1 RES1    0.0000
     10 H5         7.3463    7.2790    9.8738 H         1 RES1    0.0000
     11 C6         5.8202    6.9135    8.6639 C.ar      1 RES1    0.0000
     12 H6         5.8934    7.7034    8.1781 H         1 RES1    0.0000
     13 C7         4.8130    5.9851    8.3472 C.ar      1 RES1    0.0000
     14 H7         4.2188    6.1709    7.6562 H         1 RES1    0.0000
     15 C8         4.6938    4.8216    9.0362 C.ar      1 RES1    0.0000
     16 H8         4.0201    4.2226    8.8070 H         1 RES1    0.0000
     17 C9         5.4799    3.3013   10.8370 C.ar      1 RES1    0.0000
     18 C10        7.4374    5.1994   11.5140 C.ar      1 RES1    0.0000
     19 H9         8.0924    5.8228   11.7325 H         1 RES1    0.0000
     20 C11        6.5934    5.4597   10.4409 C.ar      1 RES1    0.0000
     21 C12        5.5816    4.4983   10.1050 C.ar      1 RES1    0.0000
     22 C13        6.3438    3.0569   11.9237 C.ar      1 RES1    0.0000
     23 C14        7.3359    4.0401   12.2715 C.ar      1 RES1    0.0000
     24 C15        4.4614    2.2772   10.4335 C.ar      1 RES1    0.0000
     25 C16        3.2800    2.1317   11.1556 C.ar      1 RES1    0.0000
     26 H10        3.1383    2.6669   11.9031 H         1 RES1    0.0000
     27 C17        2.3109    1.2147   10.7922 C.ar      1 RES1    0.0000
     28 H11        1.5357    1.1430   11.2997 H         1 RES1    0.0000
     29 C18        2.4763    0.3962    9.6778 C.ar      1 RES1    0.0000
     30 C19        1.4973   -0.5685    9.2551 C.ar      1 RES1    0.0000
     31 H12        0.7078   -0.6530    9.7389 H         1 RES1    0.0000
     32 C20        1.6912   -1.3488    8.1840 C.ar      1 RES1    0.0000
     33 H13        1.0334   -1.9610    7.9439 H         1 RES1    0.0000
     34 C21        2.8875   -1.2637    7.3988 C.ar      1 RES1    0.0000
     35 C22        3.1173   -2.0675    6.2800 C.ar      1 RES1    0.0000
     36 H14        2.4829   -2.7018    6.0343 H         1 RES1    0.0000
     37 C23        4.2672   -1.9370    5.5363 C.ar      1 RES1    0.0000
     38 H15        4.3960   -2.4785    4.7918 H         1 RES1    0.0000
     39 C24        5.2331   -1.0134    5.8815 C.ar      1 RES1    0.0000
     40 H16        6.0019   -0.9355    5.3647 H         1 RES1    0.0000
     41 C25        5.0645   -0.1922    7.0054 C.ar      1 RES1    0.0000
     42 C26        6.0464    0.7604    7.4204 C.ar      1 RES1    0.0000
     43 H17        6.8299    0.8477    6.9254 H         1 RES1    0.0000
     44 C27        5.8681    1.5378    8.5117 C.ar      1 RES1    0.0000
     45 H18        6.5345    2.1388    8.7535 H         1 RES1    0.0000
     46 C28        4.6722    1.4582    9.3068 C.ar      1 RES1    0.0000
     47 C29        3.6777    0.5151    8.9221 C.ar      1 RES1    0.0000
     48 C30        3.8750   -0.3129    7.7758 C.ar      1 RES1    0.0000
@<TRIPOS>BOND
     1    1    2 1
     2    3    1 ar
     3    4    3 1
     4    5    3 ar
     5    6    5 1
     6    7    5 ar
     7    8    7 1
     8    9   10 1
     9   11    9 ar
    10   12   11 1
    11   13   11 ar
    12   14   13 1
    13   15   13 ar
    14   16   15 1
    15   17   21 ar
    16   18   19 1
    17   20    9 ar
    18   21   15 ar
    19   22    1 ar
    20   23    7 ar
    21   24   17 1
    22   25   24 ar
    23   26   25 1
    24   27   25 ar
    25   28   27 1
    26   29   27 ar
    27   30   29 ar
    28   31   30 1
    29   32   30 ar
    30   33   32 1
    31   34   32 ar
    32   35   34 ar
    33   36   35 1
    34   37   35 ar
    35   38   37 1
    36   39   37 ar
    37   40   39 1
    38   41   39 ar
    39   42   41 ar
    40   43   42 1
    41   44   42 ar
    42   45   44 1
    43   46   24 ar
    44   47   29 ar
    45   48   34 ar
    46   17   22 ar
    47   18   20 ar
    48   18   23 ar
    49   20   21 ar
    50   22   23 ar
    51   41   48 ar
    52   44   46 ar
    53   46   47 ar
    54   47   48 ar
@<TRIPOS>SUBSTRUCTURE
     1 RES1 1

@<TRIPOS>CRYSIN
   7.3570   10.5830   25.6060  90.0000  96.0970  90.0000  14 1

