# MOL2 file generated by ConQuest
# Please check atom types

@<TRIPOS>MOLECULE
QOQYEC
    48    54     1
SMALL
NO_CHARGES
****
Generated from CSD

@<TRIPOS>ATOM
      1 C1        15.4973    2.4923   -0.5155 C.ar      1 RES1    0.0000
      2 H1        15.9272    3.0857    0.0580 H         1 RES1    0.0000
      3 C2        16.2087    1.8704   -1.5051 C.ar      1 RES1    0.0000
      4 H2        17.1214    2.0304   -1.5838 H         1 RES1    0.0000
      5 C3        15.5775    0.9962   -2.4026 C.ar      1 RES1    0.0000
      6 H3        16.0722    0.5916   -3.0778 H         1 RES1    0.0000
      7 C4        14.2741    0.7408   -2.2954 C.ar      1 RES1    0.0000
      8 H4        13.8732    0.1635   -2.9038 H         1 RES1    0.0000
      9 C5         9.9989    1.2158    0.0620 C.ar      1 RES1    0.0000
     10 H5         9.6048    0.6064   -0.5202 H         1 RES1    0.0000
     11 C6         9.2568    1.7563    1.0516 C.ar      1 RES1    0.0000
     12 H6         8.3594    1.5339    1.1342 H         1 RES1    0.0000
     13 C7         9.8334    2.6409    1.9412 C.ar      1 RES1    0.0000
     14 H7         9.3165    3.0024    2.6250 H         1 RES1    0.0000
     15 C8        11.1453    2.9944    1.8347 C.ar      1 RES1    0.0000
     16 H8        11.5070    3.5910    2.4487 H         1 RES1    0.0000
     17 C9        13.3307    2.8208    0.6759 C.ar      1 RES1    0.0000
     18 C10       12.1314    1.0196   -1.1263 C.ar      1 RES1    0.0000
     19 H9        11.7356    0.4340   -1.7307 H         1 RES1    0.0000
     20 C11       11.3654    1.5535   -0.1104 C.ar      1 RES1    0.0000
     21 C12       11.9676    2.4739    0.8117 C.ar      1 RES1    0.0000
     22 C13       14.0967    2.2399   -0.3534 C.ar      1 RES1    0.0000
     23 C14       13.4808    1.3312   -1.2724 C.ar      1 RES1    0.0000
     24 C15       13.9534    3.7539    1.6560 C.ar      1 RES1    0.0000
     25 C16       14.3560    3.2631    2.8998 C.ar      1 RES1    0.0000
     26 H10       14.2349    2.3603    3.0928 H         1 RES1    0.0000
     27 C17       14.9275    4.0809    3.8442 C.ar      1 RES1    0.0000
     28 H11       15.1766    3.7218    4.6655 H         1 RES1    0.0000
     29 C18       15.1390    5.4267    3.5988 C.ar      1 RES1    0.0000
     30 C19       15.7293    6.3393    4.5630 C.ar      1 RES1    0.0000
     31 H12       16.0142    6.0078    5.3835 H         1 RES1    0.0000
     32 C20       15.8743    7.6398    4.3065 C.ar      1 RES1    0.0000
     33 H13       16.2838    8.1809    4.9427 H         1 RES1    0.0000
     34 C21       15.4257    8.2252    3.0921 C.ar      1 RES1    0.0000
     35 C22       15.5195    9.5980    2.8442 C.ar      1 RES1    0.0000
     36 H14       15.8897   10.1577    3.4892 H         1 RES1    0.0000
     37 C23       15.0776   10.1250    1.6711 C.ar      1 RES1    0.0000
     38 H15       15.1459   11.0406    1.5178 H         1 RES1    0.0000
     39 C24       14.5249    9.3063    0.7077 C.ar      1 RES1    0.0000
     40 H16       14.2127    9.6821   -0.0842 H         1 RES1    0.0000
     41 C25       14.4208    7.9080    0.8959 C.ar      1 RES1    0.0000
     42 C26       13.8595    7.0218   -0.0834 C.ar      1 RES1    0.0000
     43 H17       13.5832    7.3723   -0.8999 H         1 RES1    0.0000
     44 C27       13.7214    5.7046    0.1374 C.ar      1 RES1    0.0000
     45 H18       13.3546    5.1666   -0.5266 H         1 RES1    0.0000
     46 C28       14.1257    5.1154    1.3765 C.ar      1 RES1    0.0000
     47 C29       14.7228    5.9716    2.3605 C.ar      1 RES1    0.0000
     48 C30       14.8644    7.3658    2.1064 C.ar      1 RES1    0.0000
@<TRIPOS>BOND
     1    1    2 1
     2    3    1 ar
     3    4    3 1
     4    5    3 ar
     5    6    5 1
     6    7    5 ar
     7    8    7 1
     8    9   10 1
     9   11    9 ar
    10   12   11 1
    11   13   11 ar
    12   14   13 1
    13   15   13 ar
    14   16   15 1
    15   17   21 ar
    16   18   19 1
    17   20    9 ar
    18   21   15 ar
    19   22    1 ar
    20   23    7 ar
    21   24   17 1
    22   25   24 ar
    23   26   25 1
    24   27   25 ar
    25   28   27 1
    26   29   27 ar
    27   30   29 ar
    28   31   30 1
    29   32   30 ar
    30   33   32 1
    31   34   32 ar
    32   35   34 ar
    33   36   35 1
    34   37   35 ar
    35   38   37 1
    36   39   37 ar
    37   40   39 1
    38   41   39 ar
    39   42   41 ar
    40   43   42 1
    41   44   42 ar
    42   45   44 1
    43   46   24 ar
    44   47   29 ar
    45   48   34 ar
    46   17   22 ar
    47   18   20 ar
    48   18   23 ar
    49   20   21 ar
    50   22   23 ar
    51   41   48 ar
    52   44   46 ar
    53   46   47 ar
    54   47   48 ar
@<TRIPOS>SUBSTRUCTURE
     1 RES1 1

@<TRIPOS>CRYSIN
  17.0600   29.7270    7.9426  90.0000  90.0000  90.0000  45 1

