# MOL2 file generated by ConQuest
# Please check atom types

@<TRIPOS>MOLECULE
QOZPUS
    80    92     2
SMALL
NO_CHARGES
****
Generated from CSD

@<TRIPOS>ATOM
      1 C1        14.0974    4.3376   10.0446 C.ar      1 RES1    0.0000
      2 C2        14.7847    5.3593   10.7381 C.ar      1 RES1    0.0000
      3 C3        15.8097    6.1835   10.2078 C.ar      1 RES1    0.0000
      4 C4        16.3512    7.1646   11.1167 C.ar      1 RES1    0.0000
      5 H1        17.0111    7.7512   10.8240 H         1 RES1    0.0000
      6 C5        15.9061    7.2356   12.3887 C.ar      1 RES1    0.0000
      7 H2        16.2840    7.8679   12.9574 H         1 RES1    0.0000
      8 C6        14.8892    6.3898   12.8976 C.ar      1 RES1    0.0000
      9 H3        14.6087    6.4670   13.7820 H         1 RES1    0.0000
     10 C7        14.3275    5.4607   12.0707 C.ar      1 RES1    0.0000
     11 C8        13.2697    4.4477   12.2283 C.ar      1 RES1    0.0000
     12 C9        12.4857    4.1251   13.3029 C.ar      1 RES1    0.0000
     13 H4        12.5713    4.5850   14.1073 H         1 RES1    0.0000
     14 C10       11.5610    3.0992   13.1703 C.ar      1 RES1    0.0000
     15 H5        11.0223    2.8749   13.8936 H         1 RES1    0.0000
     16 C11       11.4291    2.4124   11.9962 C.ar      1 RES1    0.0000
     17 H6        10.8105    1.7204   11.9361 H         1 RES1    0.0000
     18 C12       12.2114    2.7355   10.8824 C.ar      1 RES1    0.0000
     19 H7        12.1156    2.2709   10.0826 H         1 RES1    0.0000
     20 C13       13.1320    3.7645   10.9995 C.ar      1 RES1    0.0000
     21 C14        8.0275    2.3872    8.4982 C.ar      2 RES2    0.0000
     22 C15        9.2068    1.8717    7.7756 C.ar      2 RES2    0.0000
     23 C16        9.7716    2.2354    6.5477 C.ar      2 RES2    0.0000
     24 H8         9.4079    2.9212    6.0352 H         2 RES2    0.0000
     25 C17       10.9206    1.5239    6.1076 C.ar      2 RES2    0.0000
     26 H9        11.3204    1.7353    5.2957 H         2 RES2    0.0000
     27 C18       11.4339    0.5279    6.8870 C.ar      2 RES2    0.0000
     28 H10       12.1918    0.0772    6.5931 H         2 RES2    0.0000
     29 C19       10.8818    0.1667    8.0763 C.ar      2 RES2    0.0000
     30 H11       11.2530   -0.5212    8.5809 H         2 RES2    0.0000
     31 C20        9.7737    0.8345    8.5137 C.ar      2 RES2    0.0000
     32 C21        8.9517    0.6611    9.7408 C.ar      2 RES2    0.0000
     33 C22        8.9871   -0.1775   10.8013 C.ar      2 RES2    0.0000
     34 H12        9.6520   -0.8242   10.8656 H         2 RES2    0.0000
     35 C23        7.9880   -0.0597   11.8269 C.ar      2 RES2    0.0000
     36 H13        8.0294   -0.6333   12.5583 H         2 RES2    0.0000
     37 C24        6.9971    0.8443   11.7732 C.ar      2 RES2    0.0000
     38 H14        6.3656    0.8777   12.4562 H         2 RES2    0.0000
     39 C25        6.9026    1.7678   10.6613 C.ar      2 RES2    0.0000
     40 C26        7.9032    1.6294    9.6771 C.ar      2 RES2    0.0000
     41 C1B       16.1561    5.9520    8.8685 C.ar      1 RES1    0.0000
     42 C2B       15.4689    4.9303    8.1750 C.ar      1 RES1    0.0000
     43 C3B       14.4438    4.1061    8.7053 C.ar      1 RES1    0.0000
     44 C4B       13.9023    3.1250    7.7964 C.ar      1 RES1    0.0000
     45 H1B       13.2425    2.5384    8.0891 H         1 RES1    0.0000
     46 C5B       14.3475    3.0540    6.5245 C.ar      1 RES1    0.0000
     47 H2B       13.9695    2.4217    5.9557 H         1 RES1    0.0000
     48 C6B       15.3643    3.8998    6.0155 C.ar      1 RES1    0.0000
     49 H3B       15.6448    3.8226    5.1311 H         1 RES1    0.0000
     50 C7B       15.9261    4.8289    6.8424 C.ar      1 RES1    0.0000
     51 C8B       16.9839    5.8419    6.6848 C.ar      1 RES1    0.0000
     52 C9B       17.7679    6.1645    5.6102 C.ar      1 RES1    0.0000
     53 H4B       17.6822    5.7046    4.8058 H         1 RES1    0.0000
     54 C10B      18.6925    7.1904    5.7428 C.ar      1 RES1    0.0000
     55 H5B       19.2313    7.4147    5.0195 H         1 RES1    0.0000
     56 C11B      18.8244    7.8772    6.9169 C.ar      1 RES1    0.0000
     57 H6B       19.4431    8.5692    6.9770 H         1 RES1    0.0000
     58 C12B      18.0421    7.5541    8.0307 C.ar      1 RES1    0.0000
     59 H7B       18.1379    8.0187    8.8305 H         1 RES1    0.0000
     60 C13B      17.1215    6.5251    7.9136 C.ar      1 RES1    0.0000
     61 C14B       5.9346    2.7576   10.4149 C.ar      2 RES2    0.0000
     62 C15B       4.7554    3.2731   11.1376 C.ar      2 RES2    0.0000
     63 C16B       4.1905    2.9094   12.3654 C.ar      2 RES2    0.0000
     64 H8B        4.5542    2.2236   12.8779 H         2 RES2    0.0000
     65 C17B       3.0415    3.6209   12.8055 C.ar      2 RES2    0.0000
     66 H9B        2.6418    3.4095   13.6174 H         2 RES2    0.0000
     67 C18B       2.5282    4.6169   12.0261 C.ar      2 RES2    0.0000
     68 H10B       1.7703    5.0676   12.3200 H         2 RES2    0.0000
     69 C19B       3.0803    4.9781   10.8368 C.ar      2 RES2    0.0000
     70 H11B       2.7091    5.6660   10.3322 H         2 RES2    0.0000
     71 C20B       4.1884    4.3103   10.3994 C.ar      2 RES2    0.0000
     72 C21B       5.0104    4.4837    9.1723 C.ar      2 RES2    0.0000
     73 C22B       4.9750    5.3223    8.1118 C.ar      2 RES2    0.0000
     74 H12B       4.3101    5.9690    8.0475 H         2 RES2    0.0000
     75 C23B       5.9741    5.2045    7.0862 C.ar      2 RES2    0.0000
     76 H13B       5.9327    5.7781    6.3548 H         2 RES2    0.0000
     77 C24B       6.9650    4.3005    7.1399 C.ar      2 RES2    0.0000
     78 H14B       7.5965    4.2671    6.4569 H         2 RES2    0.0000
     79 C25B       7.0595    3.3770    8.2518 C.ar      2 RES2    0.0000
     80 C26B       6.0589    3.5154    9.2360 C.ar      2 RES2    0.0000
@<TRIPOS>BOND
     1    1    2 ar
     2    2    3 ar
     3    3    4 ar
     4    4    5 1
     5    6    4 ar
     6    7    6 1
     7    8    6 ar
     8    9    8 1
     9   10    2 ar
    10   11   10 1
    11   12   11 ar
    12   13   12 1
    13   14   12 ar
    14   15   14 1
    15   16   14 ar
    16   17   16 1
    17   18   16 ar
    18   19   18 1
    19   20    1 1
    20   21   22 1
    21   22   23 ar
    22   23   24 1
    23   25   23 ar
    24   26   25 1
    25   27   25 ar
    26   28   27 1
    27   29   27 ar
    28   30   29 1
    29   31   22 ar
    30   32   31 1
    31   33   32 ar
    32   34   33 1
    33   35   33 ar
    34   36   35 1
    35   37   35 ar
    36   38   37 1
    37   39   37 ar
    38   40   21 ar
    39   41    3 ar
    40   42   41 ar
    41   43    1 ar
    42   44   43 ar
    43   45   44 1
    44   46   44 ar
    45   47   46 1
    46   48   46 ar
    47   49   48 1
    48   50   42 ar
    49   51   50 1
    50   52   51 ar
    51   53   52 1
    52   54   52 ar
    53   55   54 1
    54   56   54 ar
    55   57   56 1
    56   58   56 ar
    57   59   58 1
    58   60   41 1
    59   61   39 ar
    60   62   61 1
    61   63   62 ar
    62   64   63 1
    63   65   63 ar
    64   66   65 1
    65   67   65 ar
    66   68   67 1
    67   69   67 ar
    68   70   69 1
    69   71   62 ar
    70   72   71 1
    71   73   72 ar
    72   74   73 1
    73   75   73 ar
    74   76   75 1
    75   77   75 ar
    76   78   77 1
    77   79   21 ar
    78   80   61 ar
    79    8   10 ar
    80   11   20 ar
    81   18   20 ar
    82   29   31 ar
    83   32   40 ar
    84   39   40 ar
    85   42   43 ar
    86   48   50 ar
    87   51   60 ar
    88   58   60 ar
    89   69   71 ar
    90   72   80 ar
    91   77   79 ar
    92   79   80 ar
@<TRIPOS>SUBSTRUCTURE
     1 RES1 1
     2 RES2 21

@<TRIPOS>CRYSIN
  16.2914    5.1448   19.0560  90.0000  97.0210  90.0000 231 1

