# MOL2 file generated by ConQuest
# Please check atom types

@<TRIPOS>MOLECULE
QQQCIG26
    70    77     1
SMALL
NO_CHARGES
****
Generated from CSD

@<TRIPOS>ATOM
      1 C1         1.0682    1.1768    9.2869 C.ar      1 RES1    0.0000
      2 C2         0.2694    0.0560    9.4820 C.ar      1 RES1    0.0000
      3 H1        -0.2525   -0.0148   10.2481 H         1 RES1    0.0000
      4 C3         0.2522   -0.9587    8.5319 C.ar      1 RES1    0.0000
      5 H2        -0.2822   -1.7089    8.6627 H         1 RES1    0.0000
      6 C4         1.0330   -0.8526    7.3867 C.ar      1 RES1    0.0000
      7 H3         1.0212   -1.5312    6.7515 H         1 RES1    0.0000
      8 C5         1.8311    0.2682    7.1916 C.ar      1 RES1    0.0000
      9 H4         2.3536    0.3398    6.4256 H         1 RES1    0.0000
     10 C6         1.8490    1.2829    8.1417 C.ar      1 RES1    0.0000
     11 H5         2.3827    2.0330    8.0109 H         1 RES1    0.0000
     12 C7        -0.8823    2.8420    8.0840 C.ar      1 RES1    0.0000
     13 C8        -1.5906    1.7007    7.7249 C.ar      1 RES1    0.0000
     14 H6        -2.0588    1.2215    8.3701 H         1 RES1    0.0000
     15 C9        -1.5994    1.2770    6.4012 C.ar      1 RES1    0.0000
     16 H7        -2.0730    0.5138    6.1606 H         1 RES1    0.0000
     17 C10       -0.8997    1.9937    5.4367 C.ar      1 RES1    0.0000
     18 H8        -0.9055    1.7097    4.5520 H         1 RES1    0.0000
     19 C11       -0.1917    3.1349    5.7970 C.ar      1 RES1    0.0000
     20 H9         0.2765    3.6142    5.1518 H         1 RES1    0.0000
     21 C12       -0.1830    3.5587    7.1207 C.ar      1 RES1    0.0000
     22 H10        0.2907    4.3219    7.3612 H         1 RES1    0.0000
     23 C13        1.1077    2.2938   10.3135 C.ar      1 RES1    0.0000
     24 C14        0.0491    3.2077   10.4798 C.ar      1 RES1    0.0000
     25 C15       -0.9683    3.3754    9.5031 C.ar      1 RES1    0.0000
     26 C16       -2.0635    4.2112    9.7514 C.ar      1 RES1    0.0000
     27 C17       -3.1080    4.4126    8.7736 C.ar      1 RES1    0.0000
     28 H11       -3.0547    3.9627    7.9621 H         1 RES1    0.0000
     29 C18       -4.1433    5.2223    8.9898 C.ar      1 RES1    0.0000
     30 H12       -4.8254    5.2813    8.3601 H         1 RES1    0.0000
     31 C19       -4.2074    5.9911   10.1771 C.ar      1 RES1    0.0000
     32 H13       -4.9148    6.5815   10.3157 H         1 RES1    0.0000
     33 C20       -3.2258    5.8711   11.1161 C.ar      1 RES1    0.0000
     34 H14       -3.2912    6.3661   11.8988 H         1 RES1    0.0000
     35 C21       -2.1071    5.0077   10.9487 C.ar      1 RES1    0.0000
     36 C1A       -1.0073    6.0819   12.8855 C.ar      1 RES1    0.0000
     37 C2A       -0.2086    7.2027   12.6904 C.ar      1 RES1    0.0000
     38 H1A        0.3133    7.2735   11.9243 H         1 RES1    0.0000
     39 C3A       -0.1914    8.2174   13.6404 C.ar      1 RES1    0.0000
     40 H2A        0.3430    8.9676   13.5096 H         1 RES1    0.0000
     41 C4A       -0.9722    8.1113   14.7857 C.ar      1 RES1    0.0000
     42 H3A       -0.9603    8.7899   15.4209 H         1 RES1    0.0000
     43 C5A       -1.7703    6.9905   14.9808 C.ar      1 RES1    0.0000
     44 H4A       -2.2928    6.9189   15.7468 H         1 RES1    0.0000
     45 C6A       -1.7882    5.9758   14.0307 C.ar      1 RES1    0.0000
     46 H5A       -2.3219    5.2257   14.1615 H         1 RES1    0.0000
     47 C7A        0.9432    4.4167   14.0883 C.ar      1 RES1    0.0000
     48 C8A        1.6514    5.5580   14.4475 C.ar      1 RES1    0.0000
     49 H6A        2.1196    6.0372   13.8023 H         1 RES1    0.0000
     50 C9A        1.6602    5.9817   15.7712 C.ar      1 RES1    0.0000
     51 H7A        2.1338    6.7449   16.0118 H         1 RES1    0.0000
     52 C10A       0.9606    5.2650   16.7357 C.ar      1 RES1    0.0000
     53 H8A        0.9663    5.5490   17.6204 H         1 RES1    0.0000
     54 C11A       0.2526    4.1238   16.3754 C.ar      1 RES1    0.0000
     55 H9A       -0.2156    3.6445   17.0206 H         1 RES1    0.0000
     56 C12A       0.2438    3.7000   15.0517 C.ar      1 RES1    0.0000
     57 H10A      -0.2298    2.9368   14.8111 H         1 RES1    0.0000
     58 C13A      -1.0469    4.9649   11.8589 C.ar      1 RES1    0.0000
     59 C14A       0.0117    4.0509   11.6926 C.ar      1 RES1    0.0000
     60 C15A       1.0291    3.8833   12.6693 C.ar      1 RES1    0.0000
     61 C16A       2.1244    3.0474   12.4210 C.ar      1 RES1    0.0000
     62 C17A       3.1688    2.8461   13.3988 C.ar      1 RES1    0.0000
     63 H11A       3.1156    3.2960   14.2103 H         1 RES1    0.0000
     64 C18A       4.2041    2.0364   13.1826 C.ar      1 RES1    0.0000
     65 H12A       4.8862    1.9774   13.8123 H         1 RES1    0.0000
     66 C19A       4.2683    1.2676   11.9953 C.ar      1 RES1    0.0000
     67 H13A       4.9757    0.6772   11.8567 H         1 RES1    0.0000
     68 C20A       3.2866    1.3876   11.0563 C.ar      1 RES1    0.0000
     69 H14A       3.3520    0.8926   10.2736 H         1 RES1    0.0000
     70 C21A       2.1680    2.2510   11.2237 C.ar      1 RES1    0.0000
@<TRIPOS>BOND
     1    1    2 ar
     2    2    3 1
     3    4    2 ar
     4    5    4 1
     5    6    4 ar
     6    7    6 1
     7    8    6 ar
     8    9    8 1
     9   10    1 ar
    10   11   10 1
    11   12   13 ar
    12   13   14 1
    13   15   13 ar
    14   16   15 1
    15   17   15 ar
    16   18   17 1
    17   19   17 ar
    18   20   19 1
    19   21   12 ar
    20   22   21 1
    21   23    1 1
    22   24   23 ar
    23   25   12 1
    24   26   25 ar
    25   27   26 ar
    26   28   27 1
    27   29   27 ar
    28   30   29 1
    29   31   29 ar
    30   32   31 1
    31   33   31 ar
    32   34   33 1
    33   35   26 ar
    34   36   37 ar
    35   37   38 1
    36   39   37 ar
    37   40   39 1
    38   41   39 ar
    39   42   41 1
    40   43   41 ar
    41   44   43 1
    42   45   36 ar
    43   46   45 1
    44   47   48 ar
    45   48   49 1
    46   50   48 ar
    47   51   50 1
    48   52   50 ar
    49   53   52 1
    50   54   52 ar
    51   55   54 1
    52   56   47 ar
    53   57   56 1
    54   58   35 ar
    55   59   24 ar
    56   60   47 1
    57   61   60 ar
    58   62   61 ar
    59   63   62 1
    60   64   62 ar
    61   65   64 1
    62   66   64 ar
    63   67   66 1
    64   68   66 ar
    65   69   68 1
    66   70   23 ar
    67    8   10 ar
    68   19   21 ar
    69   24   25 ar
    70   33   35 ar
    71   36   58 1
    72   43   45 ar
    73   54   56 ar
    74   58   59 ar
    75   59   60 ar
    76   61   70 ar
    77   68   70 ar
@<TRIPOS>SUBSTRUCTURE
     1 RES1 1

@<TRIPOS>CRYSIN
   6.7392    8.0591   11.4641  90.2710 104.6270  96.3290   2 1

