# MOL2 file generated by ConQuest
# Please check atom types

@<TRIPOS>MOLECULE
QQQCIG14
    70    77     1
SMALL
NO_CHARGES
****
Generated from CSD

@<TRIPOS>ATOM
      1 C1        -0.1442    2.8641   10.8443 C.ar      1 RES1    0.0000
      2 C2        -1.1371    3.0895    9.8477 C.ar      1 RES1    0.0000
      3 C3        -2.2212    3.9435   10.1060 C.ar      1 RES1    0.0000
      4 C4         0.9048    1.9085   10.6706 C.ar      1 RES1    0.0000
      5 C5        -2.2733    4.7012   11.3223 C.ar      1 RES1    0.0000
      6 C6        -1.0456    2.5730    8.4445 C.ar      1 RES1    0.0000
      7 C7         0.8850    0.8562    9.6012 C.ar      1 RES1    0.0000
      8 C8        -4.3422    5.7575   10.5673 C.ar      1 RES1    0.0000
      9 H1        -5.0668    6.3530   10.7221 H         1 RES1    0.0000
     10 C9        -1.7621    1.4560    8.0149 C.ar      1 RES1    0.0000
     11 H2        -2.2584    0.9449    8.6433 H         1 RES1    0.0000
     12 C10       -3.2532    4.1615    9.1260 C.ar      1 RES1    0.0000
     13 H3        -3.2177    3.6910    8.3016 H         1 RES1    0.0000
     14 C11       -3.3756    5.6132   11.5098 C.ar      1 RES1    0.0000
     15 H4        -3.4256    6.1225   12.3090 H         1 RES1    0.0000
     16 C12        0.1529   -0.3049    9.8002 C.ar      1 RES1    0.0000
     17 H5        -0.3818   -0.3893   10.5811 H         1 RES1    0.0000
     18 C13        1.6763    0.9506    8.4587 C.ar      1 RES1    0.0000
     19 H6         2.1986    1.7305    8.3073 H         1 RES1    0.0000
     20 C14       -4.2776    5.0274    9.3553 C.ar      1 RES1    0.0000
     21 H7        -4.9537    5.1428    8.6983 H         1 RES1    0.0000
     22 C15       -0.3490    3.3182    7.4955 C.ar      1 RES1    0.0000
     23 H8         0.1317    4.0912    7.7673 H         1 RES1    0.0000
     24 C16        0.9686   -1.2358    7.7478 C.ar      1 RES1    0.0000
     25 H9         0.9980   -1.9437    7.1148 H         1 RES1    0.0000
     26 C17        0.1852   -1.3475    8.8841 C.ar      1 RES1    0.0000
     27 H10       -0.3274   -2.1325    9.0354 H         1 RES1    0.0000
     28 C18       -1.0483    1.8228    5.7458 C.ar      1 RES1    0.0000
     29 H11       -1.0427    1.5628    4.8330 H         1 RES1    0.0000
     30 C19        1.7064   -0.0883    7.5391 C.ar      1 RES1    0.0000
     31 H12        2.2406   -0.0089    6.7571 H         1 RES1    0.0000
     32 C20       -1.7551    1.0833    6.6768 C.ar      1 RES1    0.0000
     33 H13       -2.2396    0.3150    6.3993 H         1 RES1    0.0000
     34 C21       -0.3483    2.9457    6.1551 C.ar      1 RES1    0.0000
     35 H14        0.1331    3.4625    5.5199 H         1 RES1    0.0000
     36 C1A       -0.1888    3.6466   12.0882 C.ar      1 RES1    0.0000
     37 C2A        0.8041    3.4212   13.0849 C.ar      1 RES1    0.0000
     38 C3A        1.8882    2.5672   12.8265 C.ar      1 RES1    0.0000
     39 C4A       -1.2378    4.6022   12.2619 C.ar      1 RES1    0.0000
     40 C5A        1.9403    1.8095   11.6103 C.ar      1 RES1    0.0000
     41 C6A        0.7126    3.9377   14.4881 C.ar      1 RES1    0.0000
     42 C7A       -1.2180    5.6545   13.3314 C.ar      1 RES1    0.0000
     43 C8A        4.0092    0.7532   12.3652 C.ar      1 RES1    0.0000
     44 H1A        4.7338    0.1577   12.2104 H         1 RES1    0.0000
     45 C9A        1.4292    5.0547   14.9176 C.ar      1 RES1    0.0000
     46 H2A        1.9254    5.5658   14.2893 H         1 RES1    0.0000
     47 C10A       2.9202    2.3492   13.8065 C.ar      1 RES1    0.0000
     48 H3A        2.8847    2.8197   14.6310 H         1 RES1    0.0000
     49 C11A       3.0426    0.8975   11.4227 C.ar      1 RES1    0.0000
     50 H4A        3.0926    0.3883   10.6235 H         1 RES1    0.0000
     51 C12A      -0.4859    6.8156   13.1323 C.ar      1 RES1    0.0000
     52 H5A        0.0488    6.9000   12.3515 H         1 RES1    0.0000
     53 C13A      -2.0093    5.5601   14.4739 C.ar      1 RES1    0.0000
     54 H6A       -2.5316    4.7802   14.6252 H         1 RES1    0.0000
     55 C14A       3.9446    1.4833   13.5772 C.ar      1 RES1    0.0000
     56 H7A        4.6208    1.3679   14.2342 H         1 RES1    0.0000
     57 C15A       0.0160    3.1925   15.4370 C.ar      1 RES1    0.0000
     58 H8A       -0.4647    2.4195   15.1653 H         1 RES1    0.0000
     59 C16A      -1.3016    7.7465   15.1848 C.ar      1 RES1    0.0000
     60 H9A       -1.3310    8.4544   15.8177 H         1 RES1    0.0000
     61 C17A      -0.5182    7.8582   14.0485 C.ar      1 RES1    0.0000
     62 H10A      -0.0056    8.6432   13.8971 H         1 RES1    0.0000
     63 C18A       0.7153    4.6880   17.1868 C.ar      1 RES1    0.0000
     64 H11A       0.7097    4.9479   18.0995 H         1 RES1    0.0000
     65 C19A      -2.0394    6.5990   15.3935 C.ar      1 RES1    0.0000
     66 H12A      -2.5736    6.5196   16.1755 H         1 RES1    0.0000
     67 C20A       1.4221    5.4274   16.2557 C.ar      1 RES1    0.0000
     68 H13A       1.9066    6.1957   16.5332 H         1 RES1    0.0000
     69 C21A       0.0153    3.5650   16.7775 C.ar      1 RES1    0.0000
     70 H14A      -0.4661    3.0482   17.4127 H         1 RES1    0.0000
@<TRIPOS>BOND
     1    1    2 ar
     2    2    3 ar
     3    3    5 ar
     4    4    1 ar
     5    5   14 ar
     6    6    2 1
     7    7    4 1
     8    8    9 1
     9   10    6 ar
    10   11   10 1
    11   12    3 ar
    12   13   12 1
    13   14    8 ar
    14   15   14 1
    15   16    7 ar
    16   17   16 1
    17   18    7 ar
    18   19   18 1
    19   20    8 ar
    20   21   20 1
    21   22    6 ar
    22   23   22 1
    23   24   25 1
    24   26   16 ar
    25   27   26 1
    26   28   29 1
    27   30   18 ar
    28   31   30 1
    29   32   10 ar
    30   33   32 1
    31   34   22 ar
    32   35   34 1
    33   36    1 ar
    34   37   36 ar
    35   38   37 ar
    36   39    5 ar
    37   40    4 ar
    38   41   37 1
    39   42   39 1
    40   43   44 1
    41   45   41 ar
    42   46   45 1
    43   47   38 ar
    44   48   47 1
    45   49   40 ar
    46   50   49 1
    47   51   42 ar
    48   52   51 1
    49   53   42 ar
    50   54   53 1
    51   55   43 ar
    52   56   55 1
    53   57   41 ar
    54   58   57 1
    55   59   60 1
    56   61   51 ar
    57   62   61 1
    58   63   64 1
    59   65   53 ar
    60   66   65 1
    61   67   45 ar
    62   68   67 1
    63   69   57 ar
    64   70   69 1
    65   12   20 ar
    66   24   26 ar
    67   24   30 ar
    68   28   32 ar
    69   28   34 ar
    70   36   39 ar
    71   38   40 ar
    72   43   49 ar
    73   47   55 ar
    74   59   61 ar
    75   59   65 ar
    76   63   67 ar
    77   63   69 ar
@<TRIPOS>SUBSTRUCTURE
     1 RES1 1

@<TRIPOS>CRYSIN
   7.0196    8.5432   11.9480  93.0400 105.5800  96.2800   2 1

