# MOL2 file generated by ConQuest
# Please check atom types

@<TRIPOS>MOLECULE
QQQCIG29
    70    77     1
SMALL
NO_CHARGES
****
Generated from CSD

@<TRIPOS>ATOM
      1 C1         1.1517    1.5386    9.0285 C.ar      1 RES1    0.0000
      2 C2         0.2837    0.4687    9.2145 C.ar      1 RES1    0.0000
      3 H1        -0.2458    0.4267    9.9780 H         1 RES1    0.0000
      4 C3         0.2074   -0.5382    8.2585 C.ar      1 RES1    0.0000
      5 H2        -0.3733   -1.2538    8.3833 H         1 RES1    0.0000
      6 C4         0.9981   -0.4752    7.1176 C.ar      1 RES1    0.0000
      7 H3         0.9469   -1.1481    6.4788 H         1 RES1    0.0000
      8 C5         1.8659    0.5947    6.9326 C.ar      1 RES1    0.0000
      9 H4         2.3953    0.6375    6.1692 H         1 RES1    0.0000
     10 C6         1.9425    1.6017    7.8875 C.ar      1 RES1    0.0000
     11 H5         2.5235    2.3172    7.7639 H         1 RES1    0.0000
     12 C7        -0.8108    3.0898    7.8262 C.ar      1 RES1    0.0000
     13 C8        -1.5447    1.9537    7.5036 C.ar      1 RES1    0.0000
     14 H6        -2.0291    1.5107    8.1617 H         1 RES1    0.0000
     15 C9        -1.5534    1.4811    6.1971 C.ar      1 RES1    0.0000
     16 H7        -2.0441    0.7209    5.9810 H         1 RES1    0.0000
     17 C10       -0.8288    2.1437    5.2132 C.ar      1 RES1    0.0000
     18 H8        -0.8351    1.8265    4.3389 H         1 RES1    0.0000
     19 C11       -0.0954    3.2790    5.5358 C.ar      1 RES1    0.0000
     20 H9         0.3889    3.7227    4.8777 H         1 RES1    0.0000
     21 C12       -0.0868    3.7524    6.8423 C.ar      1 RES1    0.0000
     22 H10        0.4039    4.5126    7.0585 H         1 RES1    0.0000
     23 C13        1.2120    2.6593   10.0296 C.ar      1 RES1    0.0000
     24 C14        0.1558    3.5700   10.1726 C.ar      1 RES1    0.0000
     25 C15       -0.8820    3.6838    9.2177 C.ar      1 RES1    0.0000
     26 C16       -1.9846    4.4714    9.4693 C.ar      1 RES1    0.0000
     27 C17       -3.0525    4.5952    8.5144 C.ar      1 RES1    0.0000
     28 H11       -3.0186    4.0822    7.7391 H         1 RES1    0.0000
     29 C18       -4.0808    5.4088    8.6940 C.ar      1 RES1    0.0000
     30 H12       -4.7690    5.4313    8.0682 H         1 RES1    0.0000
     31 C19       -4.1353    6.2492    9.8392 C.ar      1 RES1    0.0000
     32 H13       -4.8649    6.8124    9.9672 H         1 RES1    0.0000
     33 C20       -3.1453    6.2325   10.7285 C.ar      1 RES1    0.0000
     34 H14       -3.1849    6.8102   11.4565 H         1 RES1    0.0000
     35 C21       -2.0297    5.3619   10.6027 C.ar      1 RES1    0.0000
     36 C1A       -0.8681    6.4992   12.4781 C.ar      1 RES1    0.0000
     37 C2A       -0.0000    7.5692   12.2921 C.ar      1 RES1    0.0000
     38 H1A        0.5294    7.6111   11.5286 H         1 RES1    0.0000
     39 C3A        0.0763    8.5761   13.2480 C.ar      1 RES1    0.0000
     40 H2A        0.6569    9.2917   13.1233 H         1 RES1    0.0000
     41 C4A       -0.7145    8.5131   14.3890 C.ar      1 RES1    0.0000
     42 H3A       -0.6633    9.1859   15.0277 H         1 RES1    0.0000
     43 C5A       -1.5823    7.4431   14.5739 C.ar      1 RES1    0.0000
     44 H4A       -2.1117    7.4004   15.3374 H         1 RES1    0.0000
     45 C6A       -1.6589    6.4362   13.6190 C.ar      1 RES1    0.0000
     46 H5A       -2.2399    5.7206   13.7427 H         1 RES1    0.0000
     47 C7A        1.0944    4.9481   13.6803 C.ar      1 RES1    0.0000
     48 C8A        1.8283    6.0841   14.0029 C.ar      1 RES1    0.0000
     49 H6A        2.3127    6.5271   13.3448 H         1 RES1    0.0000
     50 C9A        1.8370    6.5568   15.3094 C.ar      1 RES1    0.0000
     51 H7A        2.3277    7.3170   15.5256 H         1 RES1    0.0000
     52 C10A       1.1124    5.8942   16.2934 C.ar      1 RES1    0.0000
     53 H8A        1.1187    6.2114   17.1676 H         1 RES1    0.0000
     54 C11A       0.3791    4.7589   15.9708 C.ar      1 RES1    0.0000
     55 H9A       -0.1053    4.3151   16.6289 H         1 RES1    0.0000
     56 C12A       0.3704    4.2854   14.6642 C.ar      1 RES1    0.0000
     57 H10A      -0.1202    3.5253   14.4481 H         1 RES1    0.0000
     58 C13A      -0.9283    5.3785   11.4770 C.ar      1 RES1    0.0000
     59 C14A       0.1279    4.4679   11.3340 C.ar      1 RES1    0.0000
     60 C15A       1.1656    4.3540   12.2888 C.ar      1 RES1    0.0000
     61 C16A       2.2682    3.5665   12.0372 C.ar      1 RES1    0.0000
     62 C17A       3.3361    3.4427   12.9921 C.ar      1 RES1    0.0000
     63 H11A       3.3022    3.9556   13.7674 H         1 RES1    0.0000
     64 C18A       4.3645    2.6290   12.8125 C.ar      1 RES1    0.0000
     65 H12A       5.0527    2.6066   13.4384 H         1 RES1    0.0000
     66 C19A       4.4189    1.7886   11.6673 C.ar      1 RES1    0.0000
     67 H13A       5.1486    1.2254   11.5393 H         1 RES1    0.0000
     68 C20A       3.4289    1.8053   10.7780 C.ar      1 RES1    0.0000
     69 H14A       3.4685    1.2277   10.0500 H         1 RES1    0.0000
     70 C21A       2.3133    2.6759   10.9038 C.ar      1 RES1    0.0000
@<TRIPOS>BOND
     1    1    2 ar
     2    2    3 1
     3    4    2 ar
     4    5    4 1
     5    6    4 ar
     6    7    6 1
     7    8    6 ar
     8    9    8 1
     9   10    1 ar
    10   11   10 1
    11   12   13 ar
    12   13   14 1
    13   15   13 ar
    14   16   15 1
    15   17   15 ar
    16   18   17 1
    17   19   17 ar
    18   20   19 1
    19   21   12 ar
    20   22   21 1
    21   23    1 1
    22   24   23 ar
    23   25   12 1
    24   26   25 ar
    25   27   26 ar
    26   28   27 1
    27   29   27 ar
    28   30   29 1
    29   31   29 ar
    30   32   31 1
    31   33   31 ar
    32   34   33 1
    33   35   26 ar
    34   36   37 ar
    35   37   38 1
    36   39   37 ar
    37   40   39 1
    38   41   39 ar
    39   42   41 1
    40   43   41 ar
    41   44   43 1
    42   45   36 ar
    43   46   45 1
    44   47   48 ar
    45   48   49 1
    46   50   48 ar
    47   51   50 1
    48   52   50 ar
    49   53   52 1
    50   54   52 ar
    51   55   54 1
    52   56   47 ar
    53   57   56 1
    54   58   35 ar
    55   59   24 ar
    56   60   47 1
    57   61   60 ar
    58   62   61 ar
    59   63   62 1
    60   64   62 ar
    61   65   64 1
    62   66   64 ar
    63   67   66 1
    64   68   66 ar
    65   69   68 1
    66   70   23 ar
    67    8   10 ar
    68   19   21 ar
    69   24   25 ar
    70   33   35 ar
    71   36   58 1
    72   43   45 ar
    73   54   56 ar
    74   58   59 ar
    75   59   60 ar
    76   61   70 ar
    77   68   70 ar
@<TRIPOS>SUBSTRUCTURE
     1 RES1 1

@<TRIPOS>CRYSIN
   6.6162    7.6757   11.1002  87.3990 104.3220  96.2890   2 1

