# MOL2 file generated by ConQuest
# Please check atom types

@<TRIPOS>MOLECULE
QQQCIG28
    70    77     1
SMALL
NO_CHARGES
****
Generated from CSD

@<TRIPOS>ATOM
      1 C1         1.1252    1.4095    9.1152 C.ar      1 RES1    0.0000
      2 C2         0.2823    0.3203    9.3022 C.ar      1 RES1    0.0000
      3 H1        -0.2427    0.2653   10.0684 H         1 RES1    0.0000
      4 C3         0.2236   -0.6859    8.3458 C.ar      1 RES1    0.0000
      5 H2        -0.3401   -1.4146    8.4707 H         1 RES1    0.0000
      6 C4         1.0081   -0.6030    7.2013 C.ar      1 RES1    0.0000
      7 H3         0.9694   -1.2767    6.5601 H         1 RES1    0.0000
      8 C5         1.8513    0.4862    7.0133 C.ar      1 RES1    0.0000
      9 H4         2.3760    0.5412    6.2482 H         1 RES1    0.0000
     10 C6         1.9097    1.4924    7.9708 C.ar      1 RES1    0.0000
     11 H5         2.4737    2.2211    7.8447 H         1 RES1    0.0000
     12 C7        -0.8314    2.9987    7.9165 C.ar      1 RES1    0.0000
     13 C8        -1.5499    1.8560    7.5828 C.ar      1 RES1    0.0000
     14 H6        -2.0266    1.3994    8.2382 H         1 RES1    0.0000
     15 C9        -1.5552    1.3963    6.2721 C.ar      1 RES1    0.0000
     16 H7        -2.0359    0.6319    6.0493 H         1 RES1    0.0000
     17 C10       -0.8422    2.0792    5.2929 C.ar      1 RES1    0.0000
     18 H8        -0.8456    1.7714    4.4147 H         1 RES1    0.0000
     19 C11       -0.1241    3.2211    5.6254 C.ar      1 RES1    0.0000
     20 H9         0.3529    3.6785    4.9712 H         1 RES1    0.0000
     21 C12       -0.1185    3.6816    6.9372 C.ar      1 RES1    0.0000
     22 H10        0.3623    4.4460    7.1600 H         1 RES1    0.0000
     23 C13        1.1854    2.5297   10.1303 C.ar      1 RES1    0.0000
     24 C14        0.1215    3.4243   10.2868 C.ar      1 RES1    0.0000
     25 C15       -0.9036    3.5692    9.3185 C.ar      1 RES1    0.0000
     26 C16       -2.0073    4.3700    9.5674 C.ar      1 RES1    0.0000
     27 C17       -3.0584    4.4995    8.6142 C.ar      1 RES1    0.0000
     28 H11       -3.0290    3.9863    7.8393 H         1 RES1    0.0000
     29 C18       -4.0876    5.3359    8.8001 C.ar      1 RES1    0.0000
     30 H12       -4.7676    5.3731    8.1664 H         1 RES1    0.0000
     31 C19       -4.1578    6.1623    9.9412 C.ar      1 RES1    0.0000
     32 H13       -4.8812    6.7344   10.0629 H         1 RES1    0.0000
     33 C20       -3.1676    6.1158   10.8552 C.ar      1 RES1    0.0000
     34 H14       -3.2073    6.6856   11.5889 H         1 RES1    0.0000
     35 C21       -2.0450    5.2104   10.7335 C.ar      1 RES1    0.0000
     36 C1A       -0.9082    6.3430   12.6213 C.ar      1 RES1    0.0000
     37 C2A       -0.0653    7.4322   12.4344 C.ar      1 RES1    0.0000
     38 H1A        0.4596    7.4872   11.6682 H         1 RES1    0.0000
     39 C3A       -0.0066    8.4384   13.3908 C.ar      1 RES1    0.0000
     40 H2A        0.5571    9.1671   13.2658 H         1 RES1    0.0000
     41 C4A       -0.7911    8.3555   14.5352 C.ar      1 RES1    0.0000
     42 H3A       -0.7524    9.0292   15.1765 H         1 RES1    0.0000
     43 C5A       -1.6343    7.2663   14.7233 C.ar      1 RES1    0.0000
     44 H4A       -2.1590    7.2113   15.4884 H         1 RES1    0.0000
     45 C6A       -1.6927    6.2601   13.7658 C.ar      1 RES1    0.0000
     46 H5A       -2.2567    5.5314   13.8918 H         1 RES1    0.0000
     47 C7A        1.0484    4.7538   13.8201 C.ar      1 RES1    0.0000
     48 C8A        1.7668    5.8965   14.1538 C.ar      1 RES1    0.0000
     49 H6A        2.2435    6.3531   13.4984 H         1 RES1    0.0000
     50 C9A        1.7722    6.3562   15.4645 C.ar      1 RES1    0.0000
     51 H7A        2.2529    7.1206   15.6873 H         1 RES1    0.0000
     52 C10A       1.0592    5.6733   16.4437 C.ar      1 RES1    0.0000
     53 H8A        1.0626    5.9810   17.3219 H         1 RES1    0.0000
     54 C11A       0.3411    4.5314   16.1111 C.ar      1 RES1    0.0000
     55 H9A       -0.1359    4.0740   16.7654 H         1 RES1    0.0000
     56 C12A       0.3354    4.0709   14.7993 C.ar      1 RES1    0.0000
     57 H10A      -0.1453    3.3065   14.5765 H         1 RES1    0.0000
     58 C13A      -0.9685    5.2228   11.6062 C.ar      1 RES1    0.0000
     59 C14A       0.0955    4.3282   11.4497 C.ar      1 RES1    0.0000
     60 C15A       1.1205    4.1832   12.4181 C.ar      1 RES1    0.0000
     61 C16A       2.2243    3.3824   12.1692 C.ar      1 RES1    0.0000
     62 C17A       3.2754    3.2530   13.1224 C.ar      1 RES1    0.0000
     63 H11A       3.2459    3.7662   13.8973 H         1 RES1    0.0000
     64 C18A       4.3046    2.4165   12.9365 C.ar      1 RES1    0.0000
     65 H12A       4.9846    2.3793   13.5701 H         1 RES1    0.0000
     66 C19A       4.3748    1.5901   11.7954 C.ar      1 RES1    0.0000
     67 H13A       5.0982    1.0180   11.6736 H         1 RES1    0.0000
     68 C20A       3.3846    1.6366   10.8813 C.ar      1 RES1    0.0000
     69 H14A       3.4243    1.0668   10.1477 H         1 RES1    0.0000
     70 C21A       2.2619    2.5421   11.0031 C.ar      1 RES1    0.0000
@<TRIPOS>BOND
     1    1    2 ar
     2    2    3 1
     3    4    2 ar
     4    5    4 1
     5    6    4 ar
     6    7    6 1
     7    8    6 ar
     8    9    8 1
     9   10    1 ar
    10   11   10 1
    11   12   13 ar
    12   13   14 1
    13   15   13 ar
    14   16   15 1
    15   17   15 ar
    16   18   17 1
    17   19   17 ar
    18   20   19 1
    19   21   12 ar
    20   22   21 1
    21   23    1 1
    22   24   23 ar
    23   25   12 1
    24   26   25 ar
    25   27   26 ar
    26   28   27 1
    27   29   27 ar
    28   30   29 1
    29   31   29 ar
    30   32   31 1
    31   33   31 ar
    32   34   33 1
    33   35   26 ar
    34   36   37 ar
    35   37   38 1
    36   39   37 ar
    37   40   39 1
    38   41   39 ar
    39   42   41 1
    40   43   41 ar
    41   44   43 1
    42   45   36 ar
    43   46   45 1
    44   47   48 ar
    45   48   49 1
    46   50   48 ar
    47   51   50 1
    48   52   50 ar
    49   53   52 1
    50   54   52 ar
    51   55   54 1
    52   56   47 ar
    53   57   56 1
    54   58   35 ar
    55   59   24 ar
    56   60   47 1
    57   61   60 ar
    58   62   61 ar
    59   63   62 1
    60   64   62 ar
    61   65   64 1
    62   66   64 ar
    63   67   66 1
    64   68   66 ar
    65   69   68 1
    66   70   23 ar
    67    8   10 ar
    68   19   21 ar
    69   24   25 ar
    70   33   35 ar
    71   36   58 1
    72   43   45 ar
    73   54   56 ar
    74   58   59 ar
    75   59   60 ar
    76   61   70 ar
    77   68   70 ar
@<TRIPOS>SUBSTRUCTURE
     1 RES1 1

@<TRIPOS>CRYSIN
   6.6350    7.7995   11.2182  88.4370 104.3480  96.3160   2 1

