# MOL2 file generated by ConQuest
# Please check atom types

@<TRIPOS>MOLECULE
QQQCIG30
    70    77     1
SMALL
NO_CHARGES
****
Generated from CSD

@<TRIPOS>ATOM
      1 C1         4.0204    4.2927    2.8710 C.ar      1 RES1    0.0000
      2 C2         4.0558    5.6803    2.8082 C.ar      1 RES1    0.0000
      3 H1         4.1267    6.1070    1.9841 H         1 RES1    0.0000
      4 C3         3.9838    6.4310    3.9760 C.ar      1 RES1    0.0000
      5 H2         4.0076    7.3604    3.9341 H         1 RES1    0.0000
      6 C4         3.8778    5.7941    5.2066 C.ar      1 RES1    0.0000
      7 H3         3.8309    6.2960    5.9877 H         1 RES1    0.0000
      8 C5         3.8424    4.4058    5.2694 C.ar      1 RES1    0.0000
      9 H4         3.7717    3.9790    6.0923 H         1 RES1    0.0000
     10 C6         3.9130    3.6551    4.1016 C.ar      1 RES1    0.0000
     11 H5         3.8891    2.7264    4.1434 H         1 RES1    0.0000
     12 C7         1.5472    5.2538    1.8982 C.ar      1 RES1    0.0000
     13 C8         1.5986    6.6177    1.6327 C.ar      1 RES1    0.0000
     14 H6         1.8834    6.9187    0.8009 H         1 RES1    0.0000
     15 C9         1.2238    7.5307    2.6121 C.ar      1 RES1    0.0000
     16 H7         1.2586    8.4429    2.4336 H         1 RES1    0.0000
     17 C10        0.7990    7.0804    3.8559 C.ar      1 RES1    0.0000
     18 H8         0.5486    7.6918    4.5114 H         1 RES1    0.0000
     19 C11        0.7475    5.7171    4.1214 C.ar      1 RES1    0.0000
     20 H9         0.4625    5.4162    4.9543 H         1 RES1    0.0000
     21 C12        1.1222    4.8042    3.1431 C.ar      1 RES1    0.0000
     22 H10        1.0875    3.8919    3.3205 H         1 RES1    0.0000
     23 C13        2.0575    2.1006   -2.8985 C.ar      1 RES1    0.0000
     24 C14        1.0216    1.2271   -3.2081 C.ar      1 RES1    0.0000
     25 H11        0.3926    1.0034   -2.5603 H         1 RES1    0.0000
     26 C15        0.9246    0.6874   -4.4850 C.ar      1 RES1    0.0000
     27 H12        0.2322    0.1028   -4.6921 H         1 RES1    0.0000
     28 C16        1.8636    1.0217   -5.4533 C.ar      1 RES1    0.0000
     29 H13        1.8004    0.6601   -6.3083 H         1 RES1    0.0000
     30 C17        2.8998    1.8950   -5.1449 C.ar      1 RES1    0.0000
     31 H14        3.5288    2.1188   -5.7927 H         1 RES1    0.0000
     32 C18        2.9967    2.4347   -3.8680 C.ar      1 RES1    0.0000
     33 H15        3.6906    3.0194   -3.6609 H         1 RES1    0.0000
     34 C19        4.4507    0.9688   -1.9335 C.ar      1 RES1    0.0000
     35 C20        3.5535   -0.0763   -2.1207 C.ar      1 RES1    0.0000
     36 H16        2.8562   -0.2035   -1.5192 H         1 RES1    0.0000
     37 C21        3.6997   -0.9313   -3.2070 C.ar      1 RES1    0.0000
     38 H17        3.0993   -1.6306   -3.3315 H         1 RES1    0.0000
     39 C22        4.7419   -0.7418   -4.1060 C.ar      1 RES1    0.0000
     40 H18        4.8388   -1.3134   -4.8331 H         1 RES1    0.0000
     41 C23        5.6391    0.3033   -3.9187 C.ar      1 RES1    0.0000
     42 H19        6.3364    0.4305   -4.5202 H         1 RES1    0.0000
     43 C24        5.4943    1.1583   -2.8324 C.ar      1 RES1    0.0000
     44 H20        6.0947    1.8576   -2.7079 H         1 RES1    0.0000
     45 C25       -0.4024    5.0300    0.0837 C.ar      1 RES1    0.0000
     46 H21       -0.5367    5.4279    0.9155 H         1 RES1    0.0000
     47 C26       -1.3547    5.1618   -0.8593 C.ar      1 RES1    0.0000
     48 H22       -2.1409    5.6227   -0.6830 H         1 RES1    0.0000
     49 C27       -1.1278    4.5723   -2.1196 C.ar      1 RES1    0.0000
     50 H23       -1.7426    4.7224   -2.8005 H         1 RES1    0.0000
     51 C28       -0.0702    3.8132   -2.3664 C.ar      1 RES1    0.0000
     52 H24        0.0154    3.4117   -3.2004 H         1 RES1    0.0000
     53 C29        0.9349    3.6070   -1.3804 C.ar      1 RES1    0.0000
     54 C30        0.7924    4.3190   -0.1487 C.ar      1 RES1    0.0000
     55 C31        5.3314    1.9687    0.1586 C.ar      1 RES1    0.0000
     56 C32        5.1443    2.6943    1.3936 C.ar      1 RES1    0.0000
     57 C33        6.1836    2.5604    2.3741 C.ar      1 RES1    0.0000
     58 H25        6.0231    2.8680    3.2379 H         1 RES1    0.0000
     59 C34        7.3707    2.0230    2.0965 C.ar      1 RES1    0.0000
     60 H26        8.0421    2.0130    2.7399 H         1 RES1    0.0000
     61 C35        7.6045    1.4651    0.8230 C.ar      1 RES1    0.0000
     62 H27        8.4445    1.1255    0.6070 H         1 RES1    0.0000
     63 C36        6.5962    1.4155   -0.0848 C.ar      1 RES1    0.0000
     64 H28        6.7509    1.0053   -0.9034 H         1 RES1    0.0000
     65 C37        4.2872    1.9355   -0.7778 C.ar      1 RES1    0.0000
     66 C38        4.0303    3.4808    1.5919 C.ar      1 RES1    0.0000
     67 C39        2.9869    3.5433    0.6236 C.ar      1 RES1    0.0000
     68 C40        3.1007    2.6810   -0.5894 C.ar      1 RES1    0.0000
     69 C41        2.0599    2.7693   -1.5633 C.ar      1 RES1    0.0000
     70 C42        1.8229    4.3309    0.7767 C.ar      1 RES1    0.0000
@<TRIPOS>BOND
     1    1    2 ar
     2    2    3 1
     3    4    2 ar
     4    5    4 1
     5    6    4 ar
     6    7    6 1
     7    8    6 ar
     8    9    8 1
     9   10    1 ar
    10   11   10 1
    11   12   13 ar
    12   13   14 1
    13   15   13 ar
    14   16   15 1
    15   17   15 ar
    16   18   17 1
    17   19   17 ar
    18   20   19 1
    19   21   12 ar
    20   22   21 1
    21   23   24 ar
    22   24   25 1
    23   26   24 ar
    24   27   26 1
    25   28   26 ar
    26   29   28 1
    27   30   28 ar
    28   31   30 1
    29   32   23 ar
    30   33   32 1
    31   34   35 ar
    32   35   36 1
    33   37   35 ar
    34   38   37 1
    35   39   37 ar
    36   40   39 1
    37   41   39 ar
    38   42   41 1
    39   43   34 ar
    40   44   43 1
    41   45   46 1
    42   47   45 ar
    43   48   47 1
    44   49   47 ar
    45   50   49 1
    46   51   49 ar
    47   52   51 1
    48   53   51 ar
    49   54   45 ar
    50   55   56 ar
    51   56   57 ar
    52   57   58 1
    53   59   57 ar
    54   60   59 1
    55   61   59 ar
    56   62   61 1
    57   63   55 ar
    58   64   63 1
    59   65   34 1
    60   66    1 1
    61   67   66 ar
    62   68   65 ar
    63   69   23 1
    64   70   12 1
    65    8   10 ar
    66   19   21 ar
    67   30   32 ar
    68   41   43 ar
    69   53   54 ar
    70   53   69 ar
    71   54   70 ar
    72   55   65 ar
    73   56   66 ar
    74   61   63 ar
    75   67   68 ar
    76   67   70 ar
    77   68   69 ar
@<TRIPOS>SUBSTRUCTURE
     1 RES1 1

@<TRIPOS>CRYSIN
  14.2395    6.7738   11.2810  81.2640 100.3780 101.7730   2 1

