# MOL2 file generated by ConQuest
# Please check atom types

@<TRIPOS>MOLECULE
QQQCIG01
    70    77     1
SMALL
NO_CHARGES
****
Generated from CSD

@<TRIPOS>ATOM
      1 C1         0.0000    0.0000    0.7343 C.ar      1 RES1    0.0000
      2 C2         1.0259    0.7072    1.4175 C.ar      1 RES1    0.0000
      3 C3         2.1020    1.2629    0.7208 C.ar      1 RES1    0.0000
      4 C4         3.1825    1.9282    1.3852 C.ar      1 RES1    0.0000
      5 C5         4.1890    2.5186    0.7074 C.ar      1 RES1    0.0000
      6 C6         0.9490    1.0478    2.8834 C.ar      1 RES1    0.0000
      7 C7         0.1595    2.1130    3.2787 C.ar      1 RES1    0.0000
      8 C8         0.1602    2.5460    4.6021 C.ar      1 RES1    0.0000
      9 C9         0.9698    1.9268    5.5246 C.ar      1 RES1    0.0000
     10 C10        1.7608    0.8804    5.1373 C.ar      1 RES1    0.0000
     11 C11        1.7551    0.4344    3.8274 C.ar      1 RES1    0.0000
     12 H1         3.1394    1.9918    2.3669 H         1 RES1    0.0000
     13 H2         4.9282    2.9876    1.2104 H         1 RES1    0.0000
     14 H3        -0.4167    2.5691    2.6090 H         1 RES1    0.0000
     15 H4        -0.4310    3.3485    4.8415 H         1 RES1    0.0000
     16 H5         0.9842    2.2515    6.4822 H         1 RES1    0.0000
     17 H6         2.3779    0.4186    5.7829 H         1 RES1    0.0000
     18 H7         2.3204   -0.3753    3.5504 H         1 RES1    0.0000
     19 C1H       -0.0000   -0.0000   -0.7343 C.ar      1 RES1    0.0000
     20 C2H       -1.0259   -0.7072   -1.4175 C.ar      1 RES1    0.0000
     21 C3H       -2.1020   -1.2629   -0.7208 C.ar      1 RES1    0.0000
     22 C3A       -2.1020   -1.2629    0.7208 C.ar      1 RES1    0.0000
     23 C2A       -1.0259   -0.7072    1.4175 C.ar      1 RES1    0.0000
     24 C3I        2.1020    1.2629   -0.7208 C.ar      1 RES1    0.0000
     25 C2I        1.0259    0.7072   -1.4175 C.ar      1 RES1    0.0000
     26 C6I        0.9490    1.0478   -2.8834 C.ar      1 RES1    0.0000
     27 C7I        0.1595    2.1130   -3.2787 C.ar      1 RES1    0.0000
     28 C8I        0.1602    2.5460   -4.6021 C.ar      1 RES1    0.0000
     29 C9I        0.9698    1.9268   -5.5246 C.ar      1 RES1    0.0000
     30 C10I       1.7608    0.8804   -5.1373 C.ar      1 RES1    0.0000
     31 C11I       1.7551    0.4344   -3.8274 C.ar      1 RES1    0.0000
     32 H7I        2.3204   -0.3753   -3.5504 H         1 RES1    0.0000
     33 H6I        2.3779    0.4186   -5.7829 H         1 RES1    0.0000
     34 H5I        0.9842    2.2515   -6.4822 H         1 RES1    0.0000
     35 H4I       -0.4310    3.3485   -4.8415 H         1 RES1    0.0000
     36 H3I       -0.4167    2.5691   -2.6090 H         1 RES1    0.0000
     37 C4I        3.1825    1.9282   -1.3852 C.ar      1 RES1    0.0000
     38 C5I        4.1890    2.5186   -0.7074 C.ar      1 RES1    0.0000
     39 H2I        4.9282    2.9876   -1.2104 H         1 RES1    0.0000
     40 H1I        3.1394    1.9918   -2.3669 H         1 RES1    0.0000
     41 C6A       -0.9490   -1.0478    2.8834 C.ar      1 RES1    0.0000
     42 C7A       -0.1595   -2.1130    3.2787 C.ar      1 RES1    0.0000
     43 C8A       -0.1602   -2.5460    4.6021 C.ar      1 RES1    0.0000
     44 C9A       -0.9698   -1.9268    5.5246 C.ar      1 RES1    0.0000
     45 C10A      -1.7608   -0.8804    5.1373 C.ar      1 RES1    0.0000
     46 C11A      -1.7551   -0.4344    3.8274 C.ar      1 RES1    0.0000
     47 H7A       -2.3204    0.3753    3.5504 H         1 RES1    0.0000
     48 H6A       -2.3779   -0.4186    5.7829 H         1 RES1    0.0000
     49 H5A       -0.9842   -2.2515    6.4822 H         1 RES1    0.0000
     50 H4A        0.4310   -3.3485    4.8415 H         1 RES1    0.0000
     51 H3A        0.4167   -2.5691    2.6090 H         1 RES1    0.0000
     52 C4A       -3.1825   -1.9282    1.3852 C.ar      1 RES1    0.0000
     53 C5A       -4.1890   -2.5186    0.7074 C.ar      1 RES1    0.0000
     54 C5H       -4.1890   -2.5186   -0.7074 C.ar      1 RES1    0.0000
     55 C4H       -3.1825   -1.9282   -1.3852 C.ar      1 RES1    0.0000
     56 H1H       -3.1394   -1.9918   -2.3669 H         1 RES1    0.0000
     57 H2H       -4.9282   -2.9876   -1.2104 H         1 RES1    0.0000
     58 H2A       -4.9282   -2.9876    1.2104 H         1 RES1    0.0000
     59 H1A       -3.1394   -1.9918    2.3669 H         1 RES1    0.0000
     60 C6H       -0.9490   -1.0478   -2.8834 C.ar      1 RES1    0.0000
     61 C7H       -0.1595   -2.1130   -3.2787 C.ar      1 RES1    0.0000
     62 C8H       -0.1602   -2.5460   -4.6021 C.ar      1 RES1    0.0000
     63 C9H       -0.9698   -1.9268   -5.5246 C.ar      1 RES1    0.0000
     64 C10H      -1.7608   -0.8804   -5.1373 C.ar      1 RES1    0.0000
     65 C11H      -1.7551   -0.4344   -3.8274 C.ar      1 RES1    0.0000
     66 H7H       -2.3204    0.3753   -3.5504 H         1 RES1    0.0000
     67 H6H       -2.3779   -0.4186   -5.7829 H         1 RES1    0.0000
     68 H5H       -0.9842   -2.2515   -6.4822 H         1 RES1    0.0000
     69 H4H        0.4310   -3.3485   -4.8415 H         1 RES1    0.0000
     70 H3H        0.4167   -2.5691   -2.6090 H         1 RES1    0.0000
@<TRIPOS>BOND
     1    1    2 ar
     2    2    3 ar
     3    3    4 ar
     4    4    5 ar
     5    5   13 1
     6    6    2 1
     7    7    6 ar
     8    8    7 ar
     9    9    8 ar
    10   10    9 ar
    11   11    6 ar
    12   12    4 1
    13   14    7 1
    14   15    8 1
    15   16    9 1
    16   17   10 1
    17   18   11 1
    18   19    1 ar
    19   20   19 ar
    20   21   20 ar
    21   22   21 ar
    22   23    1 ar
    23   24    3 ar
    24   25   19 ar
    25   26   25 1
    26   27   26 ar
    27   28   27 ar
    28   29   28 ar
    29   30   29 ar
    30   31   26 ar
    31   32   31 1
    32   33   30 1
    33   34   29 1
    34   35   28 1
    35   36   27 1
    36   37   24 ar
    37   38    5 ar
    38   39   38 1
    39   40   37 1
    40   41   23 1
    41   42   41 ar
    42   43   42 ar
    43   44   43 ar
    44   45   44 ar
    45   46   41 ar
    46   47   46 1
    47   48   45 1
    48   49   44 1
    49   50   43 1
    50   51   42 1
    51   52   22 ar
    52   53   52 ar
    53   54   53 ar
    54   55   21 ar
    55   56   55 1
    56   57   54 1
    57   58   53 1
    58   59   52 1
    59   60   20 1
    60   61   60 ar
    61   62   61 ar
    62   63   62 ar
    63   64   63 ar
    64   65   60 ar
    65   66   65 1
    66   67   64 1
    67   68   63 1
    68   69   62 1
    69   70   61 1
    70   10   11 ar
    71   22   23 ar
    72   24   25 ar
    73   30   31 ar
    74   37   38 ar
    75   45   46 ar
    76   54   55 ar
    77   64   65 ar
@<TRIPOS>SUBSTRUCTURE
     1 RES1 1

