# MOL2 file generated by ConQuest
# Please check atom types

@<TRIPOS>MOLECULE
QUATER10
    60    70     1
SMALL
NO_CHARGES
****
Generated from CSD

@<TRIPOS>ATOM
      1 C1         1.5671   -0.4523    8.3765 C.ar      1 RES1    0.0000
      2 C2         2.4035    0.5320   -0.9482 C.ar      1 RES1    0.0000
      3 C3         2.4485    0.5294   -2.3330 C.ar      1 RES1    0.0000
      4 C4         1.8310   -0.4572   -3.0768 C.ar      1 RES1    0.0000
      5 C5         1.8822   -0.4526   -4.5471 C.ar      1 RES1    0.0000
      6 C6         2.5467    0.5153   -5.2768 C.ar      1 RES1    0.0000
      7 C7         2.5894    0.5071   -6.6735 C.ar      1 RES1    0.0000
      8 C8         1.9672   -0.4825   -7.3743 C.ar      1 RES1    0.0000
      9 C9         1.2479   -1.4928   -6.6913 C.ar      1 RES1    0.0000
     10 C10        0.5572   -2.5084   -7.4063 C.ar      1 RES1    0.0000
     11 C11       -0.1410   -3.4815   -6.7429 C.ar      1 RES1    0.0000
     12 C12        2.2708    0.5182    7.7025 C.ar      1 RES1    0.0000
     13 C13       -0.1787   -3.4742   -5.3445 C.ar      1 RES1    0.0000
     14 C14        0.4692   -2.5156   -4.5945 C.ar      1 RES1    0.0000
     15 C15        0.4370   -2.5117   -3.1294 C.ar      1 RES1    0.0000
     16 C16       -0.2426   -3.4611   -2.3909 C.ar      1 RES1    0.0000
     17 C17       -0.2884   -3.4726   -1.0078 C.ar      1 RES1    0.0000
     18 C18        0.3702   -2.4996   -0.2554 C.ar      1 RES1    0.0000
     19 C19        0.3366   -2.5081    1.2108 C.ar      1 RES1    0.0000
     20 C20       -0.3566   -3.4625    1.9294 C.ar      1 RES1    0.0000
     21 C21       -0.3905   -3.4535    3.3117 C.ar      1 RES1    0.0000
     22 C22        0.2524   -2.4946    4.0685 C.ar      1 RES1    0.0000
     23 C23        2.2966    0.5126    6.3009 C.ar      1 RES1    0.0000
     24 C24        0.2065   -2.4804    5.5358 C.ar      1 RES1    0.0000
     25 C25       -0.4868   -3.4409    6.2530 C.ar      1 RES1    0.0000
     26 C26       -0.5256   -3.4165    7.6562 C.ar      1 RES1    0.0000
     27 C27        0.1420   -2.4588    8.3553 C.ar      1 RES1    0.0000
     28 C28        0.8729   -1.4589    7.6662 C.ar      1 RES1    0.0000
     29 C29        0.9087   -1.4646    6.2519 C.ar      1 RES1    0.0000
     30 C30        0.9813   -1.4830    3.3649 C.ar      1 RES1    0.0000
     31 C31        1.0153   -1.4796    1.9350 C.ar      1 RES1    0.0000
     32 C32        1.0914   -1.4925   -0.9622 C.ar      1 RES1    0.0000
     33 C33        1.1246   -1.4971   -2.3939 C.ar      1 RES1    0.0000
     34 C34        1.6327   -0.4456    5.5560 C.ar      1 RES1    0.0000
     35 C35        1.2063   -1.4855   -5.2679 C.ar      1 RES1    0.0000
     36 C36        1.6458   -0.4432    4.0908 C.ar      1 RES1    0.0000
     37 C37        2.3026    0.5394    3.3649 C.ar      1 RES1    0.0000
     38 C38        2.3374    0.5360    1.9876 C.ar      1 RES1    0.0000
     39 C39        1.7184   -0.4495    1.2268 C.ar      1 RES1    0.0000
     40 C40        1.7518   -0.4603   -0.2294 C.ar      1 RES1    0.0000
     41 H1         1.5564   -0.4677    9.4388 H         1 RES1    0.0000
     42 H2         2.7342    1.2969    8.1903 H         1 RES1    0.0000
     43 H3         2.8293    1.2437    5.8638 H         1 RES1    0.0000
     44 H4         2.7871    1.2437    3.8587 H         1 RES1    0.0000
     45 H5         2.8043    1.2437    1.5321 H         1 RES1    0.0000
     46 H6         2.8958    1.2650   -0.4729 H         1 RES1    0.0000
     47 H7         2.9095    1.2969   -2.7806 H         1 RES1    0.0000
     48 H8         2.9788    1.2543   -4.7856 H         1 RES1    0.0000
     49 H9         3.0803    1.1906   -7.2067 H         1 RES1    0.0000
     50 H10        2.0256   -0.4784   -8.4362 H         1 RES1    0.0000
     51 H11        0.5844   -2.4768   -8.4173 H         1 RES1    0.0000
     52 H12       -0.6728   -4.2414   -7.2824 H         1 RES1    0.0000
     53 H13       -0.6893   -4.1563   -4.8991 H         1 RES1    0.0000
     54 H14       -0.7133   -4.1670   -2.8373 H         1 RES1    0.0000
     55 H15       -0.7785   -4.1882   -0.4918 H         1 RES1    0.0000
     56 H16       -0.8561   -4.1351    1.4376 H         1 RES1    0.0000
     57 H17       -0.9108   -4.1351    3.7263 H         1 RES1    0.0000
     58 H18       -1.0017   -4.1563    5.7881 H         1 RES1    0.0000
     59 H19       -1.0112   -4.1457    8.1336 H         1 RES1    0.0000
     60 H20        0.0852   -2.4024    9.4388 H         1 RES1    0.0000
@<TRIPOS>BOND
     1    1   12 ar
     2    2    3 ar
     3    3    4 ar
     4    4    5 ar
     5    5    6 ar
     6    6    7 ar
     7    7    8 ar
     8    8    9 ar
     9    9   10 ar
    10   10   11 ar
    11   11   13 ar
    12   12   23 ar
    13   13   14 ar
    14   14   15 ar
    15   15   16 ar
    16   16   17 ar
    17   17   18 ar
    18   18   19 ar
    19   19   20 ar
    20   20   21 ar
    21   21   22 ar
    22   22   24 ar
    23   23   34 ar
    24   24   25 ar
    25   25   26 ar
    26   26   27 ar
    27   27   28 ar
    28   28    1 ar
    29   29   24 ar
    30   30   22 ar
    31   31   19 ar
    32   32   18 ar
    33   33    4 ar
    34   34   29 ar
    35   35    5 ar
    36   36   30 ar
    37   37   36 ar
    38   38   37 ar
    39   39   31 ar
    40   40    2 ar
    41   41    1 1
    42   42   12 1
    43   43   23 1
    44   44   37 1
    45   45   38 1
    46   46    2 1
    47   47    3 1
    48   48    6 1
    49   49    7 1
    50   50    8 1
    51   51   10 1
    52   52   11 1
    53   53   13 1
    54   54   16 1
    55   55   17 1
    56   56   20 1
    57   57   21 1
    58   58   25 1
    59   59   26 1
    60   60   27 1
    61    9   35 ar
    62   14   35 ar
    63   15   33 ar
    64   28   29 ar
    65   30   31 ar
    66   32   33 ar
    67   32   40 ar
    68   34   36 ar
    69   38   39 ar
    70   39   40 ar
@<TRIPOS>SUBSTRUCTURE
     1 RES1 1

@<TRIPOS>CRYSIN
  11.1450   10.6300   19.2350  90.0000 100.4600  90.0000  14 2

