# MOL2 file generated by ConQuest
# Please check atom types

@<TRIPOS>MOLECULE
QUJNEQ
   180   204     3
SMALL
NO_CHARGES
****
Generated from CSD

@<TRIPOS>ATOM
      1 C1         4.8450    4.9730   24.7567 C.ar      1 RES1    0.0000
      2 C2         5.7581    5.7601   22.2258 C.ar      1 RES1    0.0000
      3 C3         1.9571    3.5535   22.0367 C.ar      1 RES1    0.0000
      4 C4         6.6779    5.5044   23.2896 C.ar      1 RES1    0.0000
      5 H1         7.6050    5.6663   23.1585 H         1 RES1    0.0000
      6 C5         4.0123    6.0429   20.0378 C.ar      1 RES1    0.0000
      7 C6         2.5316    5.5768   24.2046 C.ar      1 RES1    0.0000
      8 C7         1.5972    6.3185   23.4232 C.ar      1 RES1    0.0000
      9 H2         1.8651    6.6666   22.5812 H         1 RES1    0.0000
     10 C8        -0.3666    3.8960   21.3007 C.ar      1 RES1    0.0000
     11 H3        -1.2978    3.7866   21.4519 H         1 RES1    0.0000
     12 C9         4.3704    5.4745   22.4149 C.ar      1 RES1    0.0000
     13 C10        4.7174    2.6129   21.0587 C.ar      1 RES1    0.0000
     14 H4         4.1425    3.0264   20.4234 H         1 RES1    0.0000
     15 C11        2.4021    2.0830   23.9576 C.ar      1 RES1    0.0000
     16 C12        4.2443    2.3757   22.3695 C.ar      1 RES1    0.0000
     17 C13        2.1400    5.2316   25.5154 C.ar      1 RES1    0.0000
     18 C14        0.5734    3.3461   22.2283 C.ar      1 RES1    0.0000
     19 C15        6.2389    5.0355   24.4844 C.ar      1 RES1    0.0000
     20 H5         6.8645    4.7485   25.1398 H         1 RES1    0.0000
     21 C16        3.5585    5.3609   21.2074 C.ar      1 RES1    0.0000
     22 C17        5.0850    1.6681   23.2518 C.ar      1 RES1    0.0000
     23 C18        3.1345    6.2120   18.9362 C.ar      1 RES1    0.0000
     24 H6         3.4450    6.6396   18.1472 H         1 RES1    0.0000
     25 C19        2.3416    4.6007   21.1293 C.ar      1 RES1    0.0000
     26 C20        3.9021    5.3211   23.7761 C.ar      1 RES1    0.0000
     27 C21        6.0042    2.2520   20.6755 C.ar      1 RES1    0.0000
     28 H7         6.3111    2.4282   19.7932 H         1 RES1    0.0000
     29 C22        2.8738    2.7167   22.7905 C.ar      1 RES1    0.0000
     30 C23        0.8183    5.4433   25.9238 C.ar      1 RES1    0.0000
     31 H8         0.5473    5.1463   26.7834 H         1 RES1    0.0000
     32 C24        6.2101    6.3015   21.0007 C.ar      1 RES1    0.0000
     33 H9         7.1313    6.5032   20.8898 H         1 RES1    0.0000
     34 C25        4.4146    4.6433   26.0826 C.ar      1 RES1    0.0000
     35 H10        5.0561    4.3791   26.7305 H         1 RES1    0.0000
     36 C26        6.8478    1.6240   21.6107 C.ar      1 RES1    0.0000
     37 H11        7.7355    1.3967   21.3612 H         1 RES1    0.0000
     38 C27        6.4066    1.3370   22.8711 C.ar      1 RES1    0.0000
     39 H12        6.9866    0.9136   23.4912 H         1 RES1    0.0000
     40 C28        0.1166    2.6357   23.3828 C.ar      1 RES1    0.0000
     41 H13       -0.8156    2.5419   23.5417 H         1 RES1    0.0000
     42 C29        0.3250    6.5331   23.8668 C.ar      1 RES1    0.0000
     43 H14       -0.2879    7.0091   23.3173 H         1 RES1    0.0000
     44 C30        4.5772    1.2219   24.5248 C.ar      1 RES1    0.0000
     45 H15        5.1630    0.8156   25.1524 H         1 RES1    0.0000
     46 C31        0.0561    4.5652   20.2218 C.ar      1 RES1    0.0000
     47 H16       -0.5564    4.7684   19.5235 H         1 RES1    0.0000
     48 C32        1.4138    4.9744   20.1058 C.ar      1 RES1    0.0000
     49 C33        0.9932    2.1071   24.2374 C.ar      1 RES1    0.0000
     50 H17        0.6776    1.7363   25.0541 H         1 RES1    0.0000
     51 C34        1.8555    5.7658   18.9967 C.ar      1 RES1    0.0000
     52 H18        1.2470    5.9818   18.3009 H         1 RES1    0.0000
     53 C35        3.2856    1.3782   24.8247 C.ar      1 RES1    0.0000
     54 H19        2.9481    1.0116   25.6314 H         1 RES1    0.0000
     55 C36        3.1129    4.7016   26.4204 C.ar      1 RES1    0.0000
     56 H20        2.8360    4.3862   27.2724 H         1 RES1    0.0000
     57 C37       -0.0893    6.0613   25.1222 C.ar      1 RES1    0.0000
     58 H21       -0.9890    6.1722   25.4070 H         1 RES1    0.0000
     59 C38        5.3500    6.5402   19.9773 C.ar      1 RES1    0.0000
     60 H22        5.6375    7.0375   19.2210 H         1 RES1    0.0000
     61 C39        1.8902    9.3705   18.3438 C.ar      2 RES2    0.0000
     62 C40        1.0840   12.2861   17.9178 C.ar      2 RES2    0.0000
     63 C41        3.2081    9.9261   18.2253 C.ar      2 RES2    0.0000
     64 C42        4.0671    9.3876   17.2422 C.ar      2 RES2    0.0000
     65 C43        1.6661    9.4444   20.8923 C.ar      2 RES2    0.0000
     66 C44        3.5171    9.1957   22.4678 C.ar      2 RES2    0.0000
     67 H23        4.4255    8.9798   22.6392 H         2 RES2    0.0000
     68 C45        2.8767   11.9806   19.7151 C.ar      2 RES2    0.0000
     69 C46        3.7249   11.0201   19.0320 C.ar      2 RES2    0.0000
     70 C47        3.0236    9.1417   21.1671 C.ar      2 RES2    0.0000
     71 H24        3.6044    8.8974   20.4537 H         2 RES2    0.0000
     72 C48        2.6698    9.5723   23.5341 C.ar      2 RES2    0.0000
     73 H25        3.0183    9.6660   24.4138 H         2 RES2    0.0000
     74 C49        1.5394   12.3543   19.2941 C.ar      2 RES2    0.0000
     75 C50        2.1959    8.3830   16.1204 C.ar      2 RES2    0.0000
     76 H26        1.8223    7.9923   15.3390 H         2 RES2    0.0000
     77 C51       -0.6889   13.1315   19.9420 C.ar      2 RES2    0.0000
     78 H27       -1.2765   13.4540   20.6175 H         2 RES2    0.0000
     79 C52        1.9663   12.1952   16.7985 C.ar      2 RES2    0.0000
     80 H28        2.9025   12.1355   16.9473 H         2 RES2    0.0000
     81 C53        3.5302    8.5876   16.1809 C.ar      2 RES2    0.0000
     82 H29        4.1059    8.2054   15.5306 H         2 RES2    0.0000
     83 C54        1.1031    9.3549   19.5689 C.ar      2 RES2    0.0000
     84 C55        5.9693   10.4177   18.3236 C.ar      2 RES2    0.0000
     85 H30        6.9096   10.4773   18.4471 H         2 RES2    0.0000
     86 C56       -0.2877    9.1275   19.4605 C.ar      2 RES2    0.0000
     87 C57        0.6865   12.9439   20.2495 C.ar      2 RES2    0.0000
     88 C58        5.6396   11.9565   20.2419 C.ar      2 RES2    0.0000
     89 H31        6.5800   12.0460   20.3428 H         2 RES2    0.0000
     90 C59        1.3536    8.7354   17.1767 C.ar      2 RES2    0.0000
     91 C60       -0.0395    8.4043   17.1741 C.ar      2 RES2    0.0000
     92 H32       -0.4142    7.9880   16.4078 H         2 RES2    0.0000
     93 C61       -0.3114   12.4935   17.6556 C.ar      2 RES2    0.0000
     94 C62        5.1086   11.1338   19.1933 C.ar      2 RES2    0.0000
     95 C63       -0.6017    9.6589   21.8023 C.ar      2 RES2    0.0000
     96 H33       -1.1786    9.8806   22.5233 H         2 RES2    0.0000
     97 C64        5.4819    9.6462   17.3153 C.ar      2 RES2    0.0000
     98 H34        6.0695    9.2824   16.6649 H         2 RES2    0.0000
     99 C65       -1.1766   12.8601   18.7118 C.ar      2 RES2    0.0000
    100 H35       -2.1118   12.9155   18.5555 H         2 RES2    0.0000
    101 C66        4.8118   12.6029   21.0864 C.ar      2 RES2    0.0000
    102 H36        5.1706   13.0420   21.8477 H         2 RES2    0.0000
    103 C67        3.4104   12.6385   20.8545 C.ar      2 RES2    0.0000
    104 C68        0.8058    9.6746   21.9964 C.ar      2 RES2    0.0000
    105 C69       -0.8331    8.6643   18.2304 C.ar      2 RES2    0.0000
    106 H37       -1.7716    8.5379   18.1522 H         2 RES2    0.0000
    107 C70        1.3519    9.7982   23.2896 C.ar      2 RES2    0.0000
    108 H38        0.7840   10.0468   24.0080 H         2 RES2    0.0000
    109 C71        1.2288   13.3944   21.4847 C.ar      2 RES2    0.0000
    110 H39        0.6393   13.7510   22.1401 H         2 RES2    0.0000
    111 C72       -1.1224    9.3350   20.6100 C.ar      2 RES2    0.0000
    112 H40       -2.0638    9.2384   20.5268 H         2 RES2    0.0000
    113 C73        2.5337   13.3375   21.7620 C.ar      2 RES2    0.0000
    114 H41        2.8795   13.7524   22.5434 H         2 RES2    0.0000
    115 C74        1.4896   12.1909   15.5255 C.ar      2 RES2    0.0000
    116 H42        2.1023   12.1412   14.7996 H         2 RES2    0.0000
    117 C75        0.1211   12.2563   15.2558 C.ar      2 RES2    0.0000
    118 H43       -0.1965   12.1881   14.3635 H         2 RES2    0.0000
    119 C76       -0.7609   12.4196   16.2919 C.ar      2 RES2    0.0000
    120 H44       -1.6901   12.4836   16.1053 H         2 RES2    0.0000
    121 C77        2.1875    1.3100   13.8694 C.ar      3 RES3    0.0000
    122 H45        2.4566    0.8951   14.6811 H         3 RES3    0.0000
    123 C78        5.1921    4.7130   16.7834 C.ar      3 RES3    0.0000
    124 H46        4.5859    4.2341   17.3380 H         3 RES3    0.0000
    125 C79        4.9069    2.1057   15.0088 C.ar      3 RES3    0.0000
    126 C80        2.6872    2.6868   11.9485 C.ar      3 RES3    0.0000
    127 C81        3.0248    5.6379   13.8618 C.ar      3 RES3    0.0000
    128 C82        2.4909    3.9514   15.5659 C.ar      3 RES3    0.0000
    129 C83        3.0893    2.1668   13.2140 C.ar      3 RES3    0.0000
    130 C84        4.0781    2.0489   16.1784 C.ar      3 RES3    0.0000
    131 C85        0.9360    1.0557   13.3804 C.ar      3 RES3    0.0000
    132 H47        0.3499    0.4788   13.8593 H         3 RES3    0.0000
    133 C86        4.4453    2.4339   13.6753 C.ar      3 RES3    0.0000
    134 C87        3.4462    4.8735   14.9634 C.ar      3 RES3    0.0000
    135 C88        2.8476    2.7977   16.3297 C.ar      3 RES3    0.0000
    136 C89        4.7851    5.1307   15.4928 C.ar      3 RES3    0.0000
    137 C90        6.2925    1.8301   15.1802 C.ar      3 RES3    0.0000
    138 C91        1.1074    4.1972   15.3289 C.ar      3 RES3    0.0000
    139 C92        5.3658    2.9170   12.7401 C.ar      3 RES3    0.0000
    140 C93        1.3830    2.4225   11.4494 C.ar      3 RES3    0.0000
    141 H48        1.1110    2.7849   10.6125 H         3 RES3    0.0000
    142 C94        0.5119    1.6397   12.1754 C.ar      3 RES3    0.0000
    143 H49       -0.3732    1.4962   11.8628 H         3 RES3    0.0000
    144 C95        5.6992    5.9136   14.7214 C.ar      3 RES3    0.0000
    145 C96        1.9052    2.2933   17.2724 C.ar      3 RES3    0.0000
    146 C97        6.4696    4.9986   17.2472 C.ar      3 RES3    0.0000
    147 H50        6.7336    4.6931   18.1068 H         3 RES3    0.0000
    148 C98        4.5345    1.2589   17.2498 C.ar      3 RES3    0.0000
    149 C99        3.6163    3.3973   11.1469 C.ar      3 RES3    0.0000
    150 H51        3.3223    3.8420   10.3604 H         3 RES3    0.0000
    151 C100       3.9845    6.4109   13.1258 C.ar      3 RES3    0.0000
    152 H52        3.7013    6.8854   12.3519 H         3 RES3    0.0000
    153 C101       5.2622    6.4777   13.4963 C.ar      3 RES3    0.0000
    154 H53        5.8903    6.9110   12.9317 H         3 RES3    0.0000
    155 C102       1.6774    5.6905   13.5064 C.ar      3 RES3    0.0000
    156 H54        1.4132    6.1580   12.7224 H         3 RES3    0.0000
    157 C103       4.9199    3.4441   11.4998 C.ar      3 RES3    0.0000
    158 H55        5.5491    3.8349   10.9049 H         3 RES3    0.0000
    159 C104       6.7760    2.8346   13.0325 C.ar      3 RES3    0.0000
    160 H56        7.4092    3.2069   12.4300 H         3 RES3    0.0000
    161 C105       7.1974    2.2279   14.1643 C.ar      3 RES3    0.0000
    162 H57        8.1248    2.0645   14.2853 H         3 RES3    0.0000
    163 C106       0.1663    3.5280   16.1608 C.ar      3 RES3    0.0000
    164 H58       -0.7611    3.6630   16.0095 H         3 RES3    0.0000
    165 C107       6.7546    1.1722   16.3448 C.ar      3 RES3    0.0000
    166 H59        7.6761    0.9690   16.4507 H         3 RES3    0.0000
    167 C108       6.9675    6.1850   15.2432 C.ar      3 RES3    0.0000
    168 H60        7.5786    6.7021   14.7315 H         3 RES3    0.0000
    169 C109       2.3349    1.3896   18.2682 C.ar      3 RES3    0.0000
    170 H61        1.7116    1.0813   18.9160 H         3 RES3    0.0000
    171 C110       5.8787    0.8411   17.2977 C.ar      3 RES3    0.0000
    172 H62        6.1700    0.3069   18.0287 H         3 RES3    0.0000
    173 C111       0.7056    5.0554   14.3055 C.ar      3 RES3    0.0000
    174 H63       -0.2187    5.2103   14.1467 H         3 RES3    0.0000
    175 C112       7.3548    5.7147   16.4885 C.ar      3 RES3    0.0000
    176 H64        8.2309    5.8866   16.8111 H         3 RES3    0.0000
    177 C113       0.5561    2.7025   17.1691 C.ar      3 RES3    0.0000
    178 H65       -0.0811    2.3984   17.8043 H         3 RES3    0.0000
    179 C114       3.6314    0.9463   18.3236 C.ar      3 RES3    0.0000
    180 H66        3.9306    0.4362   19.0673 H         3 RES3    0.0000
@<TRIPOS>BOND
     1    1   19 ar
     2    2    4 ar
     3    3   18 ar
     4    4    5 1
     5    6   21 ar
     6    7    8 ar
     7    8    9 1
     8   10   11 1
     9   12    2 ar
    10   13   14 1
    11   15   29 ar
    12   16   13 ar
    13   17    7 ar
    14   18   10 ar
    15   19    4 ar
    16   20   19 1
    17   21   12 ar
    18   22   16 ar
    19   23    6 ar
    20   24   23 1
    21   25    3 ar
    22   26    1 ar
    23   27   13 ar
    24   28   27 1
    25   29    3 ar
    26   30   17 ar
    27   31   30 1
    28   32    2 ar
    29   33   32 1
    30   34    1 ar
    31   35   34 1
    32   36   27 ar
    33   37   36 1
    34   38   22 ar
    35   39   38 1
    36   40   18 ar
    37   41   40 1
    38   42    8 ar
    39   43   42 1
    40   44   22 ar
    41   45   44 1
    42   46   10 ar
    43   47   46 1
    44   48   25 ar
    45   49   15 ar
    46   50   49 1
    47   51   23 ar
    48   52   51 1
    49   53   15 ar
    50   54   53 1
    51   55   17 ar
    52   56   55 1
    53   57   30 ar
    54   58   57 1
    55   59    6 ar
    56   60   59 1
    57   61   63 ar
    58   62   74 ar
    59   63   64 ar
    60   64   81 ar
    61   65   70 ar
    62   66   67 1
    63   68   69 ar
    64   69   63 ar
    65   70   66 ar
    66   71   70 1
    67   72   66 ar
    68   73   72 1
    69   74   68 ar
    70   75   76 1
    71   77   78 1
    72   79   62 ar
    73   80   79 1
    74   81   75 ar
    75   82   81 1
    76   83   61 ar
    77   84   85 1
    78   86   83 ar
    79   87   74 ar
    80   88   89 1
    81   90   61 ar
    82   91   90 ar
    83   92   91 1
    84   93   62 ar
    85   94   69 ar
    86   95   96 1
    87   97   64 ar
    88   98   97 1
    89   99   77 ar
    90  100   99 1
    91  101   88 ar
    92  102  101 1
    93  103   68 ar
    94  104   65 ar
    95  105   86 ar
    96  106  105 1
    97  107   72 ar
    98  108  107 1
    99  109   87 ar
   100  110  109 1
   101  111   86 ar
   102  112  111 1
   103  113  103 ar
   104  114  113 1
   105  115   79 ar
   106  116  115 1
   107  117  115 ar
   108  118  117 1
   109  119   93 ar
   110  120  119 1
   111  121  122 1
   112  123  124 1
   113  125  130 ar
   114  126  129 ar
   115  127  134 ar
   116  128  134 ar
   117  129  121 ar
   118  130  135 ar
   119  131  121 ar
   120  132  131 1
   121  133  125 ar
   122  134  136 ar
   123  135  128 ar
   124  136  123 ar
   125  137  125 ar
   126  138  128 ar
   127  139  133 ar
   128  140  126 ar
   129  141  140 1
   130  142  131 ar
   131  143  142 1
   132  144  136 ar
   133  145  135 ar
   134  146  123 ar
   135  147  146 1
   136  148  130 ar
   137  149  126 ar
   138  150  149 1
   139  151  127 ar
   140  152  151 1
   141  153  144 ar
   142  154  153 1
   143  155  127 ar
   144  156  155 1
   145  157  139 ar
   146  158  157 1
   147  159  139 ar
   148  160  159 1
   149  161  137 ar
   150  162  161 1
   151  163  138 ar
   152  164  163 1
   153  165  137 ar
   154  166  165 1
   155  167  144 ar
   156  168  167 1
   157  169  145 ar
   158  170  169 1
   159  171  148 ar
   160  172  171 1
   161  173  138 ar
   162  174  173 1
   163  175  146 ar
   164  176  175 1
   165  177  145 ar
   166  178  177 1
   167  179  148 ar
   168  180  179 1
   169    7   26 ar
   170   12   26 ar
   171   16   29 ar
   172   21   25 ar
   173   32   59 ar
   174   34   55 ar
   175   36   38 ar
   176   40   49 ar
   177   42   57 ar
   178   44   53 ar
   179   46   48 ar
   180   48   51 ar
   181   65   83 ar
   182   75   90 ar
   183   77   87 ar
   184   84   94 ar
   185   84   97 ar
   186   88   94 ar
   187   91  105 ar
   188   93   99 ar
   189   95  104 ar
   190   95  111 ar
   191  101  103 ar
   192  104  107 ar
   193  109  113 ar
   194  117  119 ar
   195  129  133 ar
   196  140  142 ar
   197  149  157 ar
   198  151  153 ar
   199  155  173 ar
   200  159  161 ar
   201  163  177 ar
   202  165  171 ar
   203  167  175 ar
   204  169  179 ar
@<TRIPOS>SUBSTRUCTURE
     1 RES1 1
     2 RES2 61
     3 RES3 121

@<TRIPOS>CRYSIN
   9.9439   14.2085   25.2080  90.0000  90.1650  90.0000   4 1

