# MOL2 file generated by ConQuest
# Please check atom types

@<TRIPOS>MOLECULE
QUJPIU
    46    51     1
SMALL
NO_CHARGES
****
Generated from CSD

@<TRIPOS>ATOM
      1 C1        10.1575    7.1799    0.7316 C.ar      1 RES1    0.0000
      2 C2        10.2310    6.2177   -0.2365 C.ar      1 RES1    0.0000
      3 C3         9.2449    5.2493   -0.3828 C.ar      1 RES1    0.0000
      4 C4         8.1467    5.2808    0.5190 C.ar      1 RES1    0.0000
      5 C5         7.9139    6.4512    1.2737 C.ar      1 RES1    0.0000
      6 C6         8.9348    7.4054    1.3528 C.ar      1 RES1    0.0000
      7 C7         9.4466    4.0568   -1.1439 C.ar      1 RES1    0.0000
      8 C8         8.8987    2.9101   -0.7390 C.ar      1 RES1    0.0000
      9 C9         8.1068    2.8486    0.4463 C.ar      1 RES1    0.0000
     10 C10        7.5739    4.0584    0.9479 C.ar      1 RES1    0.0000
     11 C11        6.7908    4.0489    2.1250 C.ar      1 RES1    0.0000
     12 C12        6.2741    5.2934    2.6238 C.ar      1 RES1    0.0000
     13 C13        6.8169    6.4354    2.2014 C.ar      1 RES1    0.0000
     14 C14        8.0932    1.7524    1.2912 C.ar      1 RES1    0.0000
     15 C15        7.6163    1.8454    2.5824 C.ar      1 RES1    0.0000
     16 C16        6.8194    2.9101    2.9174 C.ar      1 RES1    0.0000
     17 C17        8.2998    1.0552    3.6904 C.3       1 RES1    0.0000
     18 C18        9.5487    1.6530    4.0843 C.3       1 RES1    0.0000
     19 C19       10.0554    2.9874    3.5993 C.ar      1 RES1    0.0000
     20 C20        9.6358    4.1593    4.1644 C.ar      1 RES1    0.0000
     21 C21       10.1625    5.3817    3.7751 C.ar      1 RES1    0.0000
     22 C22       11.1673    5.4717    2.8327 C.ar      1 RES1    0.0000
     23 C23       11.5906    4.2966    2.2906 C.ar      1 RES1    0.0000
     24 C24       11.0478    3.0994    2.6495 C.ar      1 RES1    0.0000
     25 C25       11.8633    6.7713    2.4664 C.3       1 RES1    0.0000
     26 C26       11.4014    7.6704    1.4007 C.3       1 RES1    0.0000
     27 H1        11.0689    5.9780   -0.7454 H         1 RES1    0.0000
     28 H2         8.9398    8.2335    2.1535 H         1 RES1    0.0000
     29 H3        10.0480    4.0852   -1.8866 H         1 RES1    0.0000
     30 H4         9.0768    2.0347   -1.1504 H         1 RES1    0.0000
     31 H5         5.5033    5.1420    3.4787 H         1 RES1    0.0000
     32 H6         6.6364    7.1925    2.6137 H         1 RES1    0.0000
     33 H7         8.7282    1.0726    1.0583 H         1 RES1    0.0000
     34 H8         6.4123    2.9338    3.8469 H         1 RES1    0.0000
     35 H9         8.9896    4.2429    4.7672 H         1 RES1    0.0000
     36 H10        9.8861    6.1199    4.2886 H         1 RES1    0.0000
     37 H11       12.3763    4.3533    1.5277 H         1 RES1    0.0000
     38 H12       11.3678    2.1924    2.1995 H         1 RES1    0.0000
     39 H13       11.3429    7.4922    3.0738 H         1 RES1    0.0000
     40 H14       12.7125    6.9086    2.9910 H         1 RES1    0.0000
     41 H15       12.1646    7.5710    0.7270 H         1 RES1    0.0000
     42 H16       11.4798    8.6278    1.4265 H         1 RES1    0.0000
     43 H17        9.5014    1.7366    5.0248 H         1 RES1    0.0000
     44 H18       10.2260    1.0300    3.8496 H         1 RES1    0.0000
     45 H19        7.7121    0.9874    4.4276 H         1 RES1    0.0000
     46 H20        8.4629    0.1609    3.3517 H         1 RES1    0.0000
@<TRIPOS>BOND
     1    1    2 ar
     2    2    3 ar
     3    3    4 ar
     4    4    5 ar
     5    5    6 ar
     6    6    1 ar
     7    7    3 ar
     8    8    7 ar
     9    9    8 ar
    10   10    4 ar
    11   11   10 ar
    12   12   11 ar
    13   13    5 ar
    14   14    9 ar
    15   15   14 ar
    16   16   11 ar
    17   17   15 1
    18   18   17 1
    19   19   18 1
    20   20   19 ar
    21   21   20 ar
    22   22   21 ar
    23   23   22 ar
    24   24   19 ar
    25   25   22 1
    26   26    1 1
    27   27    2 1
    28   28    6 1
    29   29    7 1
    30   30    8 1
    31   31   12 1
    32   32   13 1
    33   33   14 1
    34   34   16 1
    35   35   20 1
    36   36   21 1
    37   37   23 1
    38   38   24 1
    39   39   25 1
    40   40   25 1
    41   41   26 1
    42   42   26 1
    43   43   18 1
    44   44   18 1
    45   45   17 1
    46   46   17 1
    47    9   10 ar
    48   12   13 ar
    49   15   16 ar
    50   23   24 ar
    51   25   26 1
@<TRIPOS>SUBSTRUCTURE
     1 RES1 1

@<TRIPOS>CRYSIN
  12.4510   15.7730    9.2030  90.0000  90.0000  90.0000  19 1

