# MOL2 file generated by ConQuest
# Please check atom types

@<TRIPOS>MOLECULE
QULDUW
    61    65     1
SMALL
NO_CHARGES
****
Generated from CSD

@<TRIPOS>ATOM
      1 C1         6.3034   12.5234    8.4270 C.ar      1 RES1    0.0000
      2 C2         7.4965   11.9647    7.8729 C.ar      1 RES1    0.0000
      3 C3         8.4710   12.7462    7.2136 C.ar      1 RES1    0.0000
      4 H1         8.3244   13.6584    7.1054 H         1 RES1    0.0000
      5 C4         9.6187   12.1967    6.7323 C.ar      1 RES1    0.0000
      6 H2        10.2437   12.7334    6.3016 H         1 RES1    0.0000
      7 C5         9.8596   10.8320    6.8830 C.ar      1 RES1    0.0000
      8 H3        10.6494   10.4626    6.5594 H         1 RES1    0.0000
      9 C6         8.9496   10.0426    7.4998 C.ar      1 RES1    0.0000
     10 H4         9.1221    9.1334    7.5847 H         1 RES1    0.0000
     11 C7         7.7466   10.5689    8.0165 C.ar      1 RES1    0.0000
     12 C8         6.8133    9.7636    8.6950 C.ar      1 RES1    0.0000
     13 H5         6.9600    8.8485    8.7688 H         1 RES1    0.0000
     14 C9         5.7008   10.3128    9.2420 C.ar      1 RES1    0.0000
     15 C10        4.6290    9.6921   10.0934 C.3       1 RES1    0.0000
     16 H6         4.9532    9.5372   10.9943 H         1 RES1    0.0000
     17 H7         4.3368    8.8465    9.7162 H         1 RES1    0.0000
     18 C11        3.4755   10.7175   10.0954 C.3       1 RES1    0.0000
     19 C12        4.1969   12.0572    9.8517 C.3       1 RES1    0.0000
     20 H8         3.6435   12.6543    9.3249 H         1 RES1    0.0000
     21 H9         4.4099   12.4908   10.6940 H         1 RES1    0.0000
     22 C13        5.4498   11.7018    9.1095 C.ar      1 RES1    0.0000
     23 C14        2.5349   10.4325    8.9467 C.3       1 RES1    0.0000
     24 H10        1.8521   11.1068    8.9174 H         1 RES1    0.0000
     25 H11        2.1298    9.5714    9.0711 H         1 RES1    0.0000
     26 H12        3.0268   10.4394    8.1227 H         1 RES1    0.0000
     27 C15        2.7102   10.7096   11.3978 C.3       1 RES1    0.0000
     28 H13        1.9870   11.3392   11.3483 H         1 RES1    0.0000
     29 H14        3.2979   10.9534   12.1167 H         1 RES1    0.0000
     30 H15        2.3578    9.8303   11.5566 H         1 RES1    0.0000
     31 C16        6.0506   13.9935    8.3795 C.2       1 RES1    0.0000
     32 H16        6.3969   14.4722    9.0974 H         1 RES1    0.0000
     33 C17        5.4165   14.7215    7.4846 C.2       1 RES1    0.0000
     34 C18        4.7571   14.2547    6.1893 C.3       1 RES1    0.0000
     35 C19        4.0509   15.5101    5.7292 C.ar      1 RES1    0.0000
     36 C20        3.2147   15.6438    4.6513 C.ar      1 RES1    0.0000
     37 H17        3.0281   14.9083    4.1124 H         1 RES1    0.0000
     38 C21        2.6516   16.8672    4.3692 C.ar      1 RES1    0.0000
     39 H18        2.0788   16.9597    3.6412 H         1 RES1    0.0000
     40 C22        2.9359   17.9537    5.1630 C.ar      1 RES1    0.0000
     41 H19        2.5601   18.7809    4.9658 H         1 RES1    0.0000
     42 C23        3.7650   17.8243    6.2389 C.ar      1 RES1    0.0000
     43 H20        3.9511   18.5621    6.7748 H         1 RES1    0.0000
     44 C24        4.3296   16.5959    6.5311 C.ar      1 RES1    0.0000
     45 C25        5.2665   16.2424    7.6444 C.3       1 RES1    0.0000
     46 C26        3.7588   13.1132    6.3744 C.3       1 RES1    0.0000
     47 H21        3.1069   13.3619    7.0336 H         1 RES1    0.0000
     48 H22        4.2245   12.3250    6.6656 H         1 RES1    0.0000
     49 H23        3.3184   12.9348    5.5401 H         1 RES1    0.0000
     50 C27        5.8113   13.8485    5.1478 C.3       1 RES1    0.0000
     51 H24        6.4570   14.5521    5.0558 H         1 RES1    0.0000
     52 H25        5.3840   13.6940    4.3035 H         1 RES1    0.0000
     53 H26        6.2520   13.0459    5.4360 H         1 RES1    0.0000
     54 C28        4.6936   16.6233    9.0024 C.3       1 RES1    0.0000
     55 H27        3.8803   16.1379    9.1550 H         1 RES1    0.0000
     56 H28        4.5111   17.5661    9.0196 H         1 RES1    0.0000
     57 H29        5.3291   16.4078    9.6899 H         1 RES1    0.0000
     58 C29        6.6164   16.9351    7.4411 C.3       1 RES1    0.0000
     59 H30        6.9781   16.6899    6.5867 H         1 RES1    0.0000
     60 H31        7.2227   16.6641    8.1348 H         1 RES1    0.0000
     61 H32        6.4956   17.8871    7.4755 H         1 RES1    0.0000
@<TRIPOS>BOND
     1    1    2 ar
     2    2    3 ar
     3    3    4 1
     4    5    3 ar
     5    6    5 1
     6    7    5 ar
     7    8    7 1
     8    9    7 ar
     9   10    9 1
    10   11    2 ar
    11   12   11 ar
    12   13   12 1
    13   14   12 ar
    14   15   14 1
    15   16   15 1
    16   17   15 1
    17   18   15 1
    18   19   18 1
    19   20   19 1
    20   21   19 1
    21   22    1 ar
    22   23   18 1
    23   24   23 1
    24   25   23 1
    25   26   23 1
    26   27   18 1
    27   28   27 1
    28   29   27 1
    29   30   27 1
    30   31    1 1
    31   32   31 1
    32   33   31 2
    33   34   33 1
    34   35   34 1
    35   36   35 ar
    36   37   36 1
    37   38   36 ar
    38   39   38 1
    39   40   38 ar
    40   41   40 1
    41   42   40 ar
    42   43   42 1
    43   44   35 ar
    44   45   33 1
    45   46   34 1
    46   47   46 1
    47   48   46 1
    48   49   46 1
    49   50   34 1
    50   51   50 1
    51   52   50 1
    52   53   50 1
    53   54   45 1
    54   55   54 1
    55   56   54 1
    56   57   54 1
    57   58   45 1
    58   59   58 1
    59   60   58 1
    60   61   58 1
    61    9   11 ar
    62   14   22 ar
    63   19   22 1
    64   42   44 ar
    65   44   45 1
@<TRIPOS>SUBSTRUCTURE
     1 RES1 1

@<TRIPOS>CRYSIN
  10.5770   10.8660   11.2890  72.3600  66.9500  75.3300   2 1

