# MOL2 file generated by ConQuest
# Please check atom types

@<TRIPOS>MOLECULE
QUMTOH
    41    44     1
SMALL
NO_CHARGES
****
Generated from CSD

@<TRIPOS>ATOM
      1 C1         2.9065    2.5686    9.2438 C.ar      1 RES1    0.0000
      2 C2         3.9142    3.3581    8.7162 C.ar      1 RES1    0.0000
      3 C3         3.9996    4.7510    9.0485 C.ar      1 RES1    0.0000
      4 C4         3.0720    5.2720    9.9089 C.ar      1 RES1    0.0000
      5 C5         2.0377    4.5039   10.4680 C.ar      1 RES1    0.0000
      6 C6         1.0878    5.0527   11.3745 C.ar      1 RES1    0.0000
      7 C7         0.1023    4.2910   11.9077 C.ar      1 RES1    0.0000
      8 C8        -0.0007    2.9420   11.5762 C.ar      1 RES1    0.0000
      9 C9         0.8992    2.3621   10.7159 C.ar      1 RES1    0.0000
     10 C10        1.9416    3.1238   10.1348 C.ar      1 RES1    0.0000
     11 C11        2.8456    1.1105    8.9127 C.ar      1 RES1    0.0000
     12 C12        3.3418    0.1658    9.7965 C.ar      1 RES1    0.0000
     13 C13        3.3448   -1.1789    9.4679 C.ar      1 RES1    0.0000
     14 C14        2.8356   -1.5994    8.2603 C.ar      1 RES1    0.0000
     15 C15        2.3071   -0.6751    7.3927 C.ar      1 RES1    0.0000
     16 C16        2.3012    0.6686    7.7127 C.ar      1 RES1    0.0000
     17 C17        4.9461    2.7676    7.8108 C.ar      1 RES1    0.0000
     18 C18        6.2021    2.4327    8.3035 C.ar      1 RES1    0.0000
     19 C19        7.1499    1.8604    7.4778 C.ar      1 RES1    0.0000
     20 C20        6.8666    1.6154    6.1549 C.ar      1 RES1    0.0000
     21 C21        5.6310    1.9460    5.6548 C.ar      1 RES1    0.0000
     22 C22        4.6786    2.5237    6.4719 C.ar      1 RES1    0.0000
     23 C23        5.0870    5.6122    8.4635 C.3       1 RES1    0.0000
     24 H1         3.0961    6.2370   10.1884 H         1 RES1    0.0000
     25 H2         1.1948    6.0016   11.6007 H         1 RES1    0.0000
     26 H3        -0.6110    4.6858   12.5230 H         1 RES1    0.0000
     27 H4        -0.6492    2.3857   11.9466 H         1 RES1    0.0000
     28 H5         0.8696    1.3908   10.5199 H         1 RES1    0.0000
     29 H6         3.6718    0.4386   10.7072 H         1 RES1    0.0000
     30 H7         3.7146   -1.7866   10.1308 H         1 RES1    0.0000
     31 H8         2.8378   -2.5675    8.0268 H         1 RES1    0.0000
     32 H9         1.9504   -0.9949    6.4705 H         1 RES1    0.0000
     33 H10        1.9457    1.3908    7.0757 H         1 RES1    0.0000
     34 H11        6.4037    2.5996    9.3526 H         1 RES1    0.0000
     35 H12        8.0345    1.6261    7.9115 H         1 RES1    0.0000
     36 H13        7.6549    1.2303    5.5914 H         1 RES1    0.0000
     37 H14        5.3385    1.7866    4.7267 H         1 RES1    0.0000
     38 H15        3.7913    2.7601    6.1102 H         1 RES1    0.0000
     39 H16        4.9617    6.5686    8.6897 H         1 RES1    0.0000
     40 H17        5.9620    5.2528    8.7330 H         1 RES1    0.0000
     41 H18        5.0359    5.6486    7.4936 H         1 RES1    0.0000
@<TRIPOS>BOND
     1    1    2 ar
     2    2    3 ar
     3    3    4 ar
     4    4    5 ar
     5    5    6 ar
     6    6    7 ar
     7    7    8 ar
     8    8    9 ar
     9    9   10 ar
    10   10    1 ar
    11   11    1 1
    12   12   11 ar
    13   13   12 ar
    14   14   13 ar
    15   15   14 ar
    16   16   11 ar
    17   17    2 1
    18   18   17 ar
    19   19   18 ar
    20   20   19 ar
    21   21   20 ar
    22   22   17 ar
    23   23    3 1
    24   24    4 1
    25   25    6 1
    26   26    7 1
    27   27    8 1
    28   28    9 1
    29   29   12 1
    30   30   13 1
    31   31   14 1
    32   32   15 1
    33   33   16 1
    34   34   18 1
    35   35   19 1
    36   36   20 1
    37   37   21 1
    38   38   22 1
    39   39   23 1
    40   40   23 1
    41   41   23 1
    42    5   10 ar
    43   15   16 ar
    44   21   22 ar
@<TRIPOS>SUBSTRUCTURE
     1 RES1 1

@<TRIPOS>CRYSIN
  21.3120   10.6981   16.2781  90.0000 117.7130  90.0000  15 1

