# MOL2 file generated by ConQuest
# Please check atom types

@<TRIPOS>MOLECULE
QURDOY
    34    37     1
SMALL
NO_CHARGES
****
Generated from CSD

@<TRIPOS>ATOM
      1 C1         2.6785    3.2022    2.0989 C.ar      1 RES1    0.0000
      2 C2         4.6580    1.7613    3.5614 C.ar      1 RES1    0.0000
      3 C3         3.6831    2.5008    1.4153 C.ar      1 RES1    0.0000
      4 C4         4.6787    1.7861    2.0885 C.ar      1 RES1    0.0000
      5 C5         2.6877    3.2063    3.5708 C.ar      1 RES1    0.0000
      6 C6         5.6389    1.0030    4.2209 C.ar      1 RES1    0.0000
      7 H1         5.6230    0.9708    5.1704 H         1 RES1    0.0000
      8 C7         1.6843    3.9411    4.2408 C.ar      1 RES1    0.0000
      9 H2         1.6930    3.9510    5.1913 H         1 RES1    0.0000
     10 C8         3.6621    2.4824    4.2125 C.ar      1 RES1    0.0000
     11 H3         3.6562    2.4742    5.1630 H         1 RES1    0.0000
     12 C9         3.6807    2.5145   -0.0869 C.ar      1 RES1    0.0000
     13 C10        5.7318    1.0568    1.4572 C.ar      1 RES1    0.0000
     14 H4         5.7835    1.0660    0.5088 H         1 RES1    0.0000
     15 C11        2.7212    1.7897   -2.2005 C.ar      1 RES1    0.0000
     16 H5         2.0675    1.2926   -2.6778 H         1 RES1    0.0000
     17 C12        0.6889    4.6142    2.1617 C.ar      1 RES1    0.0000
     18 H6         0.0072    5.0826    1.6938 H         1 RES1    0.0000
     19 C13        6.6130    0.3097    3.5645 C.ar      1 RES1    0.0000
     20 H7         7.2542   -0.1960    4.0502 H         1 RES1    0.0000
     21 C14        6.6581    0.3547    2.1450 C.ar      1 RES1    0.0000
     22 H8         7.3419   -0.1110    1.6781 H         1 RES1    0.0000
     23 C15        1.6310    3.9361    1.4823 C.ar      1 RES1    0.0000
     24 H9         1.5939    3.9492    0.5328 H         1 RES1    0.0000
     25 C16        3.6671    2.5280   -2.8830 C.ar      1 RES1    0.0000
     26 H10        3.6619    2.5311   -3.8335 H         1 RES1    0.0000
     27 C17        4.6247    3.2663   -2.2026 C.ar      1 RES1    0.0000
     28 H11        5.2668    3.7783   -2.6799 H         1 RES1    0.0000
     29 C18        2.7318    1.7784   -0.8155 C.ar      1 RES1    0.0000
     30 H12        2.0835    1.2619   -0.3496 H         1 RES1    0.0000
     31 C19        0.7180    4.6293    3.6064 C.ar      1 RES1    0.0000
     32 H13        0.0672    5.1160    4.0984 H         1 RES1    0.0000
     33 C20        4.6323    3.2473   -0.8092 C.ar      1 RES1    0.0000
     34 H14        5.2959    3.7411   -0.3402 H         1 RES1    0.0000
@<TRIPOS>BOND
     1    1    3 ar
     2    2    4 ar
     3    3    4 ar
     4    4   13 ar
     5    5    1 ar
     6    6    2 ar
     7    7    6 1
     8    8    5 ar
     9    9    8 1
    10   10    2 ar
    11   11   10 1
    12   12    3 1
    13   13   14 1
    14   15   16 1
    15   17   18 1
    16   19    6 ar
    17   20   19 1
    18   21   13 ar
    19   22   21 1
    20   23    1 ar
    21   24   23 1
    22   25   15 ar
    23   26   25 1
    24   27   25 ar
    25   28   27 1
    26   29   12 ar
    27   30   29 1
    28   31    8 ar
    29   32   31 1
    30   33   12 ar
    31   34   33 1
    32    5   10 ar
    33   15   29 ar
    34   17   23 ar
    35   17   31 ar
    36   19   21 ar
    37   27   33 ar
@<TRIPOS>SUBSTRUCTURE
     1 RES1 1

@<TRIPOS>CRYSIN
   6.2470   10.2590   10.7790  84.9400  76.3900  77.3900   2 1

