# MOL2 file generated by ConQuest
# Please check atom types

@<TRIPOS>MOLECULE
QURDIS
    48    53     1
SMALL
NO_CHARGES
****
Generated from CSD

@<TRIPOS>ATOM
      1 C1         0.0000    4.2574    7.6673 C.ar      1 RES1    0.0000
      2 C2         0.9637    3.5555    6.9166 C.ar      1 RES1    0.0000
      3 C3         0.9673    2.1174    6.9285 C.ar      1 RES1    0.0000
      4 C4         0.0000    1.4439    7.6673 C.ar      1 RES1    0.0000
      5 H1         0.0000    0.5143    7.6673 H         1 RES1    0.0000
      6 C5         1.9713    4.2274    6.1556 C.ar      1 RES1    0.0000
      7 C6         2.8866    3.4841    5.4633 C.ar      1 RES1    0.0000
      8 H2         3.5356    3.9234    4.9633 H         1 RES1    0.0000
      9 C7         2.8799    2.0692    5.4822 C.ar      1 RES1    0.0000
     10 H3         3.5167    1.5941    4.9980 H         1 RES1    0.0000
     11 C8         1.9525    1.4100    6.1998 C.ar      1 RES1    0.0000
     12 H4         1.9586    0.4807    6.2176 H         1 RES1    0.0000
     13 C9         2.0459    5.7506    6.0999 C.3       1 RES1    0.0000
     14 C10        1.8552    6.1719    4.6287 C.3       1 RES1    0.0000
     15 H5         0.9867    5.8975    4.3274 H         1 RES1    0.0000
     16 H6         2.5290    5.7543    4.0861 H         1 RES1    0.0000
     17 H7         1.9318    7.1258    4.5564 H         1 RES1    0.0000
     18 C11        3.4304    6.1817    6.6194 C.3       1 RES1    0.0000
     19 H8         3.5097    7.1364    6.5632 H         1 RES1    0.0000
     20 H9         4.1149    5.7720    6.0837 H         1 RES1    0.0000
     21 H10        3.5296    5.9045    7.5323 H         1 RES1    0.0000
     22 C12        0.0000    8.5260    7.6673 C.ar      1 RES1    0.0000
     23 H11        0.0000    9.4568    7.6673 H         1 RES1    0.0000
     24 C13        0.9574    7.8291    6.9612 C.ar      1 RES1    0.0000
     25 H12        1.6058    8.2992    6.4896 H         1 RES1    0.0000
     26 C14        0.9755    6.4369    6.9390 C.ar      1 RES1    0.0000
     27 C15        0.0000    5.7301    7.6673 C.ar      1 RES1    0.0000
     28 C2C       -0.9637    3.5555    8.4179 C.ar      1 RES1    0.0000
     29 C3C       -0.9673    2.1174    8.4060 C.ar      1 RES1    0.0000
     30 C5C       -1.9713    4.2274    9.1789 C.ar      1 RES1    0.0000
     31 C6C       -2.8866    3.4841    9.8712 C.ar      1 RES1    0.0000
     32 H2C       -3.5356    3.9234   10.3712 H         1 RES1    0.0000
     33 C7C       -2.8799    2.0692    9.8523 C.ar      1 RES1    0.0000
     34 H3C       -3.5167    1.5941   10.3365 H         1 RES1    0.0000
     35 C8C       -1.9525    1.4100    9.1347 C.ar      1 RES1    0.0000
     36 H4C       -1.9586    0.4807    9.1169 H         1 RES1    0.0000
     37 C9C       -2.0459    5.7506    9.2346 C.3       1 RES1    0.0000
     38 C10C      -1.8552    6.1719   10.7058 C.3       1 RES1    0.0000
     39 H5C       -0.9867    5.8975   11.0071 H         1 RES1    0.0000
     40 H6C       -2.5290    5.7543   11.2484 H         1 RES1    0.0000
     41 H7C       -1.9318    7.1258   10.7781 H         1 RES1    0.0000
     42 C11C      -3.4304    6.1817    8.7151 C.3       1 RES1    0.0000
     43 H8C       -3.5097    7.1364    8.7713 H         1 RES1    0.0000
     44 H9C       -4.1149    5.7720    9.2508 H         1 RES1    0.0000
     45 H10C      -3.5296    5.9045    7.8022 H         1 RES1    0.0000
     46 C13C      -0.9574    7.8291    8.3733 C.ar      1 RES1    0.0000
     47 H12C      -1.6058    8.2992    8.8449 H         1 RES1    0.0000
     48 C14C      -0.9755    6.4369    8.3955 C.ar      1 RES1    0.0000
@<TRIPOS>BOND
     1    1    2 ar
     2    2    3 ar
     3    3    4 ar
     4    4    5 1
     5    6    2 ar
     6    7    6 ar
     7    8    7 1
     8    9    7 ar
     9   10    9 1
    10   11    3 ar
    11   12   11 1
    12   13    6 1
    13   14   13 1
    14   15   14 1
    15   16   14 1
    16   17   14 1
    17   18   13 1
    18   19   18 1
    19   20   18 1
    20   21   18 1
    21   22   23 1
    22   24   22 ar
    23   25   24 1
    24   26   13 1
    25   27    1 1
    26   28    1 ar
    27   29    4 ar
    28   30   28 ar
    29   31   30 ar
    30   32   31 1
    31   33   31 ar
    32   34   33 1
    33   35   29 ar
    34   36   35 1
    35   37   30 1
    36   38   37 1
    37   39   38 1
    38   40   38 1
    39   41   38 1
    40   42   37 1
    41   43   42 1
    42   44   42 1
    43   45   42 1
    44   46   22 ar
    45   47   46 1
    46   48   27 ar
    47    9   11 ar
    48   24   26 ar
    49   26   27 ar
    50   28   29 ar
    51   33   35 ar
    52   37   48 1
    53   46   48 ar
@<TRIPOS>SUBSTRUCTURE
     1 RES1 1

@<TRIPOS>CRYSIN
   9.9370   17.6730   10.2230  90.0000  90.0000  90.0000  20 1

