# MOL2 file generated by ConQuest
# Please check atom types

@<TRIPOS>MOLECULE
RABSOC
    24    27     1
SMALL
NO_CHARGES
****
Generated from CSD

@<TRIPOS>ATOM
      1 C1         0.4100    2.5647   17.1144 C.1       1 RES1    0.0000
      2 C2         0.5781    1.8096   16.2081 C.1       1 RES1    0.0000
      3 C3         0.7912    0.9517   15.0831 C.ar      1 RES1    0.0000
      4 C4         0.4833    1.4002   13.8224 C.ar      1 RES1    0.0000
      5 C5         0.7503    0.6054   12.6921 C.ar      1 RES1    0.0000
      6 C6         0.4610    1.0461   11.3785 C.ar      1 RES1    0.0000
      7 C7         0.7690    0.2645   10.3082 C.ar      1 RES1    0.0000
      8 C8         1.3651   -0.9800   10.4915 C.ar      1 RES1    0.0000
      9 C9         1.6512   -1.4393   11.7329 C.ar      1 RES1    0.0000
     10 C10        1.3463   -0.6607   12.8685 C.ar      1 RES1    0.0000
     11 C11        1.6298   -1.1116   14.1803 C.ar      1 RES1    0.0000
     12 C12        1.3498   -0.3259   15.2542 C.ar      1 RES1    0.0000
     13 C1B        0.2051    3.4473   18.1513 C.1       1 RES1    0.0000
     14 C2B        0.0371    4.2024   19.0576 C.1       1 RES1    0.0000
     15 C3B       -0.1761    5.0603   20.1826 C.ar      1 RES1    0.0000
     16 C4B        0.1318    4.6118   21.4433 C.ar      1 RES1    0.0000
     17 C5B       -0.1351    5.4066   22.5736 C.ar      1 RES1    0.0000
     18 C6B        0.1541    4.9659   23.8872 C.ar      1 RES1    0.0000
     19 C7B       -0.1538    5.7475   24.9575 C.ar      1 RES1    0.0000
     20 C8B       -0.7499    6.9920   24.7742 C.ar      1 RES1    0.0000
     21 C9B       -1.0360    7.4513   23.5328 C.ar      1 RES1    0.0000
     22 C10B      -0.7311    6.6727   22.3972 C.ar      1 RES1    0.0000
     23 C11B      -1.0147    7.1236   21.0854 C.ar      1 RES1    0.0000
     24 C12B      -0.7347    6.3379   20.0115 C.ar      1 RES1    0.0000
@<TRIPOS>BOND
     1    1    2 3
     2    2    3 1
     3    3    4 ar
     4    4    5 ar
     5    5    6 ar
     6    6    7 ar
     7    7    8 ar
     8    8    9 ar
     9    9   10 ar
    10   10    5 ar
    11   11   10 ar
    12   12    3 ar
    13   13    1 1
    14   14   13 3
    15   15   14 1
    16   16   15 ar
    17   17   16 ar
    18   18   17 ar
    19   19   18 ar
    20   20   19 ar
    21   21   20 ar
    22   22   17 ar
    23   23   22 ar
    24   24   15 ar
    25   11   12 ar
    26   21   22 ar
    27   23   24 ar
@<TRIPOS>SUBSTRUCTURE
     1 RES1 1

@<TRIPOS>CRYSIN
   7.5340    6.0120   17.9690  90.0000 101.1000  90.0000  14 2

