# MOL2 file generated by ConQuest
# Please check atom types

@<TRIPOS>MOLECULE
RAFTEX
    37    43     1
SMALL
NO_CHARGES
****
Generated from CSD

@<TRIPOS>ATOM
      1 C1         3.2084    5.7133    1.1322 C.ar      1 RES1    0.0000
      2 H1         4.0249    5.2929    0.8893 H         1 RES1    0.0000
      3 C2         3.0689    7.1250    1.0609 C.ar      1 RES1    0.0000
      4 H2         3.8112    7.6433    0.7725 H         1 RES1    0.0000
      5 C3         1.9056    7.7688    1.3924 C.ar      1 RES1    0.0000
      6 H3         1.8466    8.7135    1.3080 H         1 RES1    0.0000
      7 C4         0.7880    7.0301    1.8616 C.ar      1 RES1    0.0000
      8 C5        -0.4428    7.5456    2.3420 C.ar      1 RES1    0.0000
      9 H4        -0.6105    8.4794    2.3025 H         1 RES1    0.0000
     10 C6        -1.3904    6.7056    2.8625 C.ar      1 RES1    0.0000
     11 H5        -2.2114    7.0748    3.1663 H         1 RES1    0.0000
     12 C7        -1.1917    5.3016    2.9647 C.ar      1 RES1    0.0000
     13 H6        -1.8606    4.7417    3.3395 H         1 RES1    0.0000
     14 C8        -0.0152    4.7785    2.5099 C.ar      1 RES1    0.0000
     15 C9         0.5426    3.3930    2.4729 C.3       1 RES1    0.0000
     16 C10        0.7362    2.4402    3.6130 C.ar      1 RES1    0.0000
     17 C11       -0.0672    2.0149    4.6350 C.ar      1 RES1    0.0000
     18 H7        -0.9448    2.3626    4.7400 H         1 RES1    0.0000
     19 C12        0.4403    1.0420    5.5339 C.ar      1 RES1    0.0000
     20 H8        -0.1164    0.7427    6.2434 H         1 RES1    0.0000
     21 C13        1.6965    0.5178    5.4218 C.ar      1 RES1    0.0000
     22 H9         1.9830   -0.1571    6.0256 H         1 RES1    0.0000
     23 C14        2.5730    0.9771    4.4082 C.ar      1 RES1    0.0000
     24 C15        2.0604    1.9508    3.5377 C.ar      1 RES1    0.0000
     25 C16        3.9206    0.5991    4.1996 C.ar      1 RES1    0.0000
     26 H10        4.3131   -0.0713    4.7463 H         1 RES1    0.0000
     27 C17        4.6633    1.1936    3.2147 C.ar      1 RES1    0.0000
     28 H11        5.5650    0.9190    3.0941 H         1 RES1    0.0000
     29 C18        4.1415    2.2028    2.3671 C.ar      1 RES1    0.0000
     30 H12        4.6867    2.6157    1.7075 H         1 RES1    0.0000
     31 C19        2.8335    2.5661    2.5237 C.ar      1 RES1    0.0000
     32 C20        1.9355    3.5134    1.7958 C.3       1 RES1    0.0000
     33 C21        2.1416    4.9753    1.5583 C.ar      1 RES1    0.0000
     34 C22        0.9527    5.6405    1.9445 C.ar      1 RES1    0.0000
     35 C23        0.7745    2.8467    1.0715 C.3       1 RES1    0.0000
     36 H13        0.8060    1.8631    0.9616 H         1 RES1    0.0000
     37 H14        0.3645    3.3356    0.3145 H         1 RES1    0.0000
@<TRIPOS>BOND
     1    1    2 1
     2    3    1 ar
     3    4    3 1
     4    5    3 ar
     5    6    5 1
     6    7    5 ar
     7    8    7 ar
     8    9    8 1
     9   10    8 ar
    10   11   10 1
    11   12   10 ar
    12   13   12 1
    13   14   12 ar
    14   15   14 1
    15   16   15 1
    16   17   16 ar
    17   18   17 1
    18   19   17 ar
    19   20   19 1
    20   21   19 ar
    21   22   21 1
    22   23   21 ar
    23   24   16 ar
    24   25   23 ar
    25   26   25 1
    26   27   25 ar
    27   28   27 1
    28   29   27 ar
    29   30   29 1
    30   31   24 ar
    31   32   15 1
    32   33    1 ar
    33   34    7 ar
    34   35   15 1
    35   36   35 1
    36   37   35 1
    37   14   34 ar
    38   23   24 ar
    39   29   31 ar
    40   31   32 1
    41   32   33 1
    42   32   35 1
    43   33   34 ar
@<TRIPOS>SUBSTRUCTURE
     1 RES1 1

@<TRIPOS>CRYSIN
   7.7038    8.8188   11.4785 101.4920 107.8750  93.9990   2 1

