# MOL2 file generated by ConQuest
# Please check atom types

@<TRIPOS>MOLECULE
RAMYEK
    38    41     1
SMALL
NO_CHARGES
****
Generated from CSD

@<TRIPOS>ATOM
      1 C1         2.9890    2.3391    9.0951 C.ar      1 RES1    0.0000
      2 C2         2.1907    1.4238    8.4919 C.ar      1 RES1    0.0000
      3 C3         1.6774    0.3199    9.1974 C.ar      1 RES1    0.0000
      4 C4         1.9840    0.1581   10.5242 C.ar      1 RES1    0.0000
      5 C5         2.7920    1.0924   11.1771 C.ar      1 RES1    0.0000
      6 C6         3.1099    0.9611   12.5626 C.ar      1 RES1    0.0000
      7 C7         3.9017    1.8521   13.1824 C.ar      1 RES1    0.0000
      8 C8         4.4172    2.9356   12.4829 C.ar      1 RES1    0.0000
      9 C9         4.1326    3.1268   11.1636 C.ar      1 RES1    0.0000
     10 C10        3.3133    2.2065   10.4776 C.ar      1 RES1    0.0000
     11 C11        3.5054    3.4481    8.3430 C.1       1 RES1    0.0000
     12 C12        3.9104    4.3760    7.6841 C.1       1 RES1    0.0000
     13 C13        4.2978    5.4213    6.8988 C.1       1 RES1    0.0000
     14 C14        4.5932    6.3340    6.1797 C.1       1 RES1    0.0000
     15 C15        4.9594    7.4481    5.3569 C.ar      1 RES1    0.0000
     16 C16        5.8110    8.4041    5.8518 C.ar      1 RES1    0.0000
     17 C17        6.1952    9.4978    5.0575 C.ar      1 RES1    0.0000
     18 C18        5.7621    9.6061    3.7849 C.ar      1 RES1    0.0000
     19 C19        4.9071    8.6386    3.2162 C.ar      1 RES1    0.0000
     20 C20        4.4868    8.7037    1.8593 C.ar      1 RES1    0.0000
     21 C21        3.6788    7.7667    1.3328 C.ar      1 RES1    0.0000
     22 C22        3.2178    6.7087    2.1271 C.ar      1 RES1    0.0000
     23 C23        3.6022    6.6080    3.4359 C.ar      1 RES1    0.0000
     24 C24        4.4742    7.5500    4.0075 C.ar      1 RES1    0.0000
     25 H1         1.9786    1.5284    7.5923 H         1 RES1    0.0000
     26 H2         1.1319   -0.2970    8.7657 H         1 RES1    0.0000
     27 H3         1.6542   -0.5749   10.9906 H         1 RES1    0.0000
     28 H4         2.7631    0.2447   13.0440 H         1 RES1    0.0000
     29 H5         4.1052    1.7425   14.0835 H         1 RES1    0.0000
     30 H6         4.9671    3.5437   12.9221 H         1 RES1    0.0000
     31 H7         4.4797    3.8636   10.7153 H         1 RES1    0.0000
     32 H8         6.1380    8.3263    6.7183 H         1 RES1    0.0000
     33 H9         6.7520   10.1517    5.4125 H         1 RES1    0.0000
     34 H10        6.0331   10.3340    3.2719 H         1 RES1    0.0000
     35 H11        4.7749    9.4086    1.3268 H         1 RES1    0.0000
     36 H12        3.4271    7.8216    0.4393 H         1 RES1    0.0000
     37 H13        2.6463    6.0714    1.7616 H         1 RES1    0.0000
     38 H14        3.2816    5.9057    3.9549 H         1 RES1    0.0000
@<TRIPOS>BOND
     1    1    2 ar
     2    2    3 ar
     3    3    4 ar
     4    4    5 ar
     5    5    6 ar
     6    6    7 ar
     7    7    8 ar
     8    8    9 ar
     9    9   10 ar
    10   10    1 ar
    11   11    1 1
    12   12   11 3
    13   13   12 1
    14   14   13 3
    15   15   14 1
    16   16   15 ar
    17   17   16 ar
    18   18   17 ar
    19   19   18 ar
    20   20   19 ar
    21   21   20 ar
    22   22   21 ar
    23   23   22 ar
    24   24   15 ar
    25   25    2 1
    26   26    3 1
    27   27    4 1
    28   28    6 1
    29   29    7 1
    30   30    8 1
    31   31    9 1
    32   32   16 1
    33   33   17 1
    34   34   18 1
    35   35   20 1
    36   36   21 1
    37   37   22 1
    38   38   23 1
    39    5   10 ar
    40   19   24 ar
    41   23   24 ar
@<TRIPOS>SUBSTRUCTURE
     1 RES1 1

@<TRIPOS>CRYSIN
   8.3520   12.7470   15.3160  90.0000 100.8300  90.0000 231 1

