# MOL2 file generated by ConQuest
# Please check atom types

@<TRIPOS>MOLECULE
RARRUZ
    42    46     1
SMALL
NO_CHARGES
****
Generated from CSD

@<TRIPOS>ATOM
      1 C1         2.7989    7.5997    6.8611 C.ar      1 RES1    0.0000
      2 H1         3.2939    8.2838    7.2511 H         1 RES1    0.0000
      3 C2         2.1017    6.6947    7.6728 C.ar      1 RES1    0.0000
      4 H2         2.1366    6.7805    8.5979 H         1 RES1    0.0000
      5 C3         1.3704    5.6842    7.1066 C.ar      1 RES1    0.0000
      6 H3         0.9147    5.0888    7.6581 H         1 RES1    0.0000
      7 C4         1.2925    5.5272    5.7059 C.ar      1 RES1    0.0000
      8 C5         0.4921    4.5087    5.0642 C.ar      1 RES1    0.0000
      9 C6        -0.2859    3.5063    5.8933 C.3       1 RES1    0.0000
     10 H4        -0.6540    2.8559    5.2591 H         1 RES1    0.0000
     11 C7        -1.4691    4.0422    6.6820 C.ar      1 RES1    0.0000
     12 C8        -1.4808    3.5115    7.9681 C.ar      1 RES1    0.0000
     13 C9        -2.5198    3.7984    8.8382 C.ar      1 RES1    0.0000
     14 H5        -2.5332    3.4415    9.6966 H         1 RES1    0.0000
     15 C10       -3.5320    4.6235    8.4010 C.ar      1 RES1    0.0000
     16 H6        -4.2363    4.8276    8.9719 H         1 RES1    0.0000
     17 C11        2.7570    7.4863    5.5195 C.ar      1 RES1    0.0000
     18 H7         3.2267    8.0916    4.9917 H         1 RES1    0.0000
     19 C12        2.0055    6.4542    4.9016 C.ar      1 RES1    0.0000
     20 C13        1.9233    6.3507    3.4996 C.ar      1 RES1    0.0000
     21 H8         2.4112    6.9352    2.9648 H         1 RES1    0.0000
     22 C14        1.1435    5.4102    2.9229 C.ar      1 RES1    0.0000
     23 H9         1.0977    5.3727    1.9940 H         1 RES1    0.0000
     24 C15        0.3941    4.4825    3.6820 C.ar      1 RES1    0.0000
     25 C16       -0.5113    3.5401    2.9316 C.3       1 RES1    0.0000
     26 H10       -0.1453    2.6528    2.9609 H         1 RES1    0.0000
     27 H11       -0.5837    3.8260    2.0172 H         1 RES1    0.0000
     28 H12       -1.3810    3.5411    3.3368 H         1 RES1    0.0000
     29 C17        0.4444    2.6996    6.9475 C.ar      1 RES1    0.0000
     30 C18       -0.2888    2.6706    8.1328 C.ar      1 RES1    0.0000
     31 C19       -2.4785    4.8729    6.2497 C.ar      1 RES1    0.0000
     32 H13       -2.4672    5.2357    5.3928 H         1 RES1    0.0000
     33 C20       -3.5140    5.1509    7.1314 C.ar      1 RES1    0.0000
     34 H14       -4.2099    5.7040    6.8578 H         1 RES1    0.0000
     35 C21        0.1776    1.9283    9.2176 C.ar      1 RES1    0.0000
     36 H15       -0.3060    1.8977   10.0105 H         1 RES1    0.0000
     37 C22        1.3617    1.2441    9.0967 C.ar      1 RES1    0.0000
     38 H16        1.6785    0.7443    9.8148 H         1 RES1    0.0000
     39 C23        2.0801    1.2865    7.9363 C.ar      1 RES1    0.0000
     40 H17        2.8824    0.8182    7.8770 H         1 RES1    0.0000
     41 C24        1.6361    2.0121    6.8463 C.ar      1 RES1    0.0000
     42 H18        2.1321    2.0367    6.0594 H         1 RES1    0.0000
@<TRIPOS>BOND
     1    1    2 1
     2    3    1 ar
     3    4    3 1
     4    5    3 ar
     5    6    5 1
     6    7    5 ar
     7    8    7 ar
     8    9    8 1
     9   10    9 1
    10   11    9 1
    11   12   11 ar
    12   13   12 ar
    13   14   13 1
    14   15   13 ar
    15   16   15 1
    16   17    1 ar
    17   18   17 1
    18   19    7 ar
    19   20   19 ar
    20   21   20 1
    21   22   20 ar
    22   23   22 1
    23   24    8 ar
    24   25   24 1
    25   26   25 1
    26   27   25 1
    27   28   25 1
    28   29    9 1
    29   30   12 1
    30   31   11 ar
    31   32   31 1
    32   33   15 ar
    33   34   33 1
    34   35   30 ar
    35   36   35 1
    36   37   35 ar
    37   38   37 1
    38   39   37 ar
    39   40   39 1
    40   41   29 ar
    41   42   41 1
    42   17   19 ar
    43   22   24 ar
    44   29   30 ar
    45   31   33 ar
    46   39   41 ar
@<TRIPOS>SUBSTRUCTURE
     1 RES1 1

@<TRIPOS>CRYSIN
   8.9565    9.8582   19.6356  90.0000  99.2970  90.0000  14 1

