# MOL2 file generated by ConQuest
# Please check atom types

@<TRIPOS>MOLECULE
REBWEA
    42    48     1
SMALL
NO_CHARGES
****
Generated from CSD

@<TRIPOS>ATOM
      1 C1         1.9043    7.8325    1.1391 C.ar      1 RES1    0.0000
      2 H1         1.4945    8.2026    1.9125 H         1 RES1    0.0000
      3 C2         1.6383    8.3663   -0.1488 C.ar      1 RES1    0.0000
      4 H2         1.0407    9.1015   -0.2200 H         1 RES1    0.0000
      5 C3         2.2027    7.8710   -1.2916 C.ar      1 RES1    0.0000
      6 H3         1.9874    8.2548   -2.1335 H         1 RES1    0.0000
      7 C4         3.1121    6.7806   -1.2181 C.ar      1 RES1    0.0000
      8 C5         3.8627    6.1865   -2.2702 C.ar      1 RES1    0.0000
      9 H4         3.7430    6.4896   -3.1625 H         1 RES1    0.0000
     10 C6         4.7554    5.1837   -2.0103 C.ar      1 RES1    0.0000
     11 H5         5.2500    4.8159   -2.7328 H         1 RES1    0.0000
     12 C7         4.9715    4.6702   -0.7054 C.ar      1 RES1    0.0000
     13 H6         5.5883    3.9639   -0.5539 H         1 RES1    0.0000
     14 C8         4.2650    5.2221    0.3286 C.ar      1 RES1    0.0000
     15 C9         4.2292    5.0762    1.7840 C.2       1 RES1    0.0000
     16 C10        5.0264    4.2863    2.7962 C.3       1 RES1    0.0000
     17 H7         5.6531    3.6242    2.3858 H         1 RES1    0.0000
     18 C11        5.7279    5.3585    3.6418 C.ar      1 RES1    0.0000
     19 C12        7.0803    5.4794    3.8475 C.ar      1 RES1    0.0000
     20 H8         7.6821    4.8396    3.4853 H         1 RES1    0.0000
     21 C13        7.5583    6.5566    4.5966 C.ar      1 RES1    0.0000
     22 H9         8.4926    6.6535    4.7386 H         1 RES1    0.0000
     23 C14        6.6863    7.4813    5.1326 C.ar      1 RES1    0.0000
     24 H10        7.0238    8.2113    5.6384 H         1 RES1    0.0000
     25 C15        5.3190    7.3509    4.9370 C.ar      1 RES1    0.0000
     26 H11        4.7180    7.9840    5.3120 H         1 RES1    0.0000
     27 C16        4.8394    6.2922    4.1917 C.ar      1 RES1    0.0000
     28 C17        3.3772    6.0238    3.8365 C.3       1 RES1    0.0000
     29 H12        2.7405    6.6907    4.2241 H         1 RES1    0.0000
     30 C18        3.3648    5.9785    2.3158 C.2       1 RES1    0.0000
     31 C19        2.7646    6.7707    1.2417 C.ar      1 RES1    0.0000
     32 C20        3.3490    6.2639    0.0477 C.ar      1 RES1    0.0000
     33 C21        3.1229    4.5890    4.3021 C.ar      1 RES1    0.0000
     34 C22        3.9899    3.6571    3.7199 C.ar      1 RES1    0.0000
     35 C23        3.8569    2.3129    3.9900 C.ar      1 RES1    0.0000
     36 H13        4.4371    1.6798    3.5836 H         1 RES1    0.0000
     37 C24        2.8544    1.8938    4.8723 C.ar      1 RES1    0.0000
     38 H14        2.7389    0.9677    5.0496 H         1 RES1    0.0000
     39 C25        2.0315    2.8162    5.4868 C.ar      1 RES1    0.0000
     40 H15        1.3715    2.5225    6.1042 H         1 RES1    0.0000
     41 C26        2.1620    4.1772    5.2074 C.ar      1 RES1    0.0000
     42 H16        1.5984    4.8122    5.6333 H         1 RES1    0.0000
@<TRIPOS>BOND
     1    1    2 1
     2    3    1 ar
     3    4    3 1
     4    5    3 ar
     5    6    5 1
     6    7    5 ar
     7    8    7 ar
     8    9    8 1
     9   10    8 ar
    10   11   10 1
    11   12   10 ar
    12   13   12 1
    13   14   12 ar
    14   15   14 1
    15   16   15 1
    16   17   16 1
    17   18   16 1
    18   19   18 ar
    19   20   19 1
    20   21   19 ar
    21   22   21 1
    22   23   21 ar
    23   24   23 1
    24   25   23 ar
    25   26   25 1
    26   27   18 ar
    27   28   27 1
    28   29   28 1
    29   30   15 2
    30   31    1 ar
    31   32    7 ar
    32   33   28 1
    33   34   16 1
    34   35   34 ar
    35   36   35 1
    36   37   35 ar
    37   38   37 1
    38   39   37 ar
    39   40   39 1
    40   41   33 ar
    41   42   41 1
    42   14   32 ar
    43   25   27 ar
    44   28   30 1
    45   30   31 1
    46   31   32 ar
    47   33   34 ar
    48   39   41 ar
@<TRIPOS>SUBSTRUCTURE
     1 RES1 1

@<TRIPOS>CRYSIN
   8.3122   16.1120   25.0850  90.0000  90.0000  90.0000  61 1

