# MOL2 file generated by ConQuest
# Please check atom types

@<TRIPOS>MOLECULE
REGSAA
   146   153     1
SMALL
NO_CHARGES
****
Generated from CSD

@<TRIPOS>ATOM
      1 C1        -4.1926    4.2551   14.8618 C.ar      1 RES1    0.0000
      2 C2        -3.2085    3.4653   15.5036 C.ar      1 RES1    0.0000
      3 C3        -1.8496    3.4426   15.0504 C.ar      1 RES1    0.0000
      4 H1        -1.5972    3.9764   14.3057 H         1 RES1    0.0000
      5 C4        -0.9141    2.6722   15.6647 C.ar      1 RES1    0.0000
      6 H2        -0.0222    2.6782   15.3381 H         1 RES1    0.0000
      7 C5        -1.2425    1.8472   16.7983 C.ar      1 RES1    0.0000
      8 C6        -0.2729    1.0649   17.4459 C.ar      1 RES1    0.0000
      9 C7        -0.6380    0.3138   18.5627 C.ar      1 RES1    0.0000
     10 H3         0.0241   -0.2085   18.9997 H         1 RES1    0.0000
     11 C8        -1.9377    0.3001   19.0623 C.ar      1 RES1    0.0000
     12 C9        -2.9293    1.0631   18.4260 C.ar      1 RES1    0.0000
     13 C10       -4.3002    1.0979   18.8583 C.ar      1 RES1    0.0000
     14 H4        -4.5640    0.5639   19.5985 H         1 RES1    0.0000
     15 C11       -5.2224    1.8667   18.2436 C.ar      1 RES1    0.0000
     16 H5        -6.1144    1.8676   18.5730 H         1 RES1    0.0000
     17 C12       -4.8976    2.6800   17.1121 C.ar      1 RES1    0.0000
     18 C13       -5.8327    3.4869   16.4624 C.ar      1 RES1    0.0000
     19 H6        -6.7273    3.5122   16.7800 H         1 RES1    0.0000
     20 C14       -5.4844    4.2493   15.3674 C.ar      1 RES1    0.0000
     21 H7        -6.1475    4.7851   14.9492 H         1 RES1    0.0000
     22 C15       -3.5565    2.6645   16.6303 C.ar      1 RES1    0.0000
     23 C16       -2.5774    1.8605   17.2794 C.ar      1 RES1    0.0000
     24 C17       -3.8779    5.0633   13.6322 C.3       1 RES1    0.0000
     25 H8        -3.0177    5.5340   13.7689 H         1 RES1    0.0000
     26 H9        -4.5806    5.7498   13.5108 H         1 RES1    0.0000
     27 C18       -3.7855    4.2124   12.3613 C.3       1 RES1    0.0000
     28 H10       -3.0562    3.5512   12.4646 H         1 RES1    0.0000
     29 H11       -4.6321    3.7135   12.2443 H         1 RES1    0.0000
     30 C19       -3.5236    5.0511   11.1211 C.3       1 RES1    0.0000
     31 H12       -2.6959    5.5766   11.2601 H         1 RES1    0.0000
     32 H13       -4.2703    5.6899   11.0020 H         1 RES1    0.0000
     33 C20       -3.3758    4.2269    9.8474 C.3       1 RES1    0.0000
     34 H14       -2.5999    3.6210    9.9455 H         1 RES1    0.0000
     35 H15       -4.1837    3.6664    9.7321 H         1 RES1    0.0000
     36 C21       -3.1840    5.0734    8.6044 C.3       1 RES1    0.0000
     37 H16       -2.3725    5.6292    8.7204 H         1 RES1    0.0000
     38 H17       -3.9578    5.6854    8.5139 H         1 RES1    0.0000
     39 C22       -3.0463    4.2611    7.3246 C.3       1 RES1    0.0000
     40 H18       -3.8431    3.6827    7.2268 H         1 RES1    0.0000
     41 H19       -2.2544    3.6718    7.4024 H         1 RES1    0.0000
     42 C23       -2.9006    5.1161    6.0733 C.3       1 RES1    0.0000
     43 H20       -3.6936    5.7035    5.9914 H         1 RES1    0.0000
     44 H21       -2.1040    5.6954    6.1703 H         1 RES1    0.0000
     45 C24       -2.7610    4.2956    4.7990 C.3       1 RES1    0.0000
     46 H22       -2.6619    4.8976    4.0333 H         1 RES1    0.0000
     47 H23       -3.5600    3.7407    4.6768 H         1 RES1    0.0000
     48 H24       -1.9710    3.7190    4.8661 H         1 RES1    0.0000
     49 C25       -2.2264   -0.5204   20.3078 C.3       1 RES1    0.0000
     50 H25       -1.5389   -1.2267   20.3969 H         1 RES1    0.0000
     51 H26       -3.1043   -0.9646   20.2042 H         1 RES1    0.0000
     52 C26       -2.2408    0.3238   21.5855 C.3       1 RES1    0.0000
     53 H27       -1.3914    0.8268   21.6496 H         1 RES1    0.0000
     54 H28       -2.9787    0.9819   21.5291 H         1 RES1    0.0000
     55 C27       -2.4178   -0.5123   22.8492 C.3       1 RES1    0.0000
     56 H29       -3.2338   -1.0644   22.7542 H         1 RES1    0.0000
     57 H30       -1.6466   -1.1269   22.9366 H         1 RES1    0.0000
     58 C28       -2.5304    0.3214   24.1208 C.3       1 RES1    0.0000
     59 H31       -1.7208    0.8840   24.2099 H         1 RES1    0.0000
     60 H32       -3.3110    0.9257   24.0413 H         1 RES1    0.0000
     61 C29       -2.6860   -0.5196   25.3790 C.3       1 RES1    0.0000
     62 H33       -1.8918   -1.1043   25.4695 H         1 RES1    0.0000
     63 H34       -3.4777   -1.1043   25.2733 H         1 RES1    0.0000
     64 C30       -2.8449    0.2922   26.6598 C.3       1 RES1    0.0000
     65 H35       -2.0519    0.8758   26.7703 H         1 RES1    0.0000
     66 H36       -3.6395    0.8758   26.5741 H         1 RES1    0.0000
     67 C31       -2.9993   -0.5739   27.9025 C.3       1 RES1    0.0000
     68 H37       -2.2027   -1.1541   27.9885 H         1 RES1    0.0000
     69 H38       -3.7871   -1.1614   27.7855 H         1 RES1    0.0000
     70 C32       -3.1669    0.2239   29.1892 C.3       1 RES1    0.0000
     71 H39       -3.9860    0.7616   29.1379 H         1 RES1    0.0000
     72 H40       -2.3950    0.8160   29.3100 H         1 RES1    0.0000
     73 H41       -3.2286   -0.3908   29.9501 H         1 RES1    0.0000
     74 C1A        5.0576    4.2551   19.5517 C.ar      1 RES1    0.0000
     75 C2A        4.0735    3.4653   18.9099 C.ar      1 RES1    0.0000
     76 C3A        2.7146    3.4426   19.3631 C.ar      1 RES1    0.0000
     77 H1A        2.4623    3.9764   20.1078 H         1 RES1    0.0000
     78 C4A        1.7791    2.6722   18.7488 C.ar      1 RES1    0.0000
     79 H2A        0.8872    2.6782   19.0754 H         1 RES1    0.0000
     80 C5A        2.1075    1.8472   17.6153 C.ar      1 RES1    0.0000
     81 C6A        1.1379    1.0649   16.9676 C.ar      1 RES1    0.0000
     82 C7A        1.5031    0.3138   15.8509 C.ar      1 RES1    0.0000
     83 H3A        0.8409   -0.2085   15.4138 H         1 RES1    0.0000
     84 C8A        2.8027    0.3001   15.3512 C.ar      1 RES1    0.0000
     85 C9A        3.7943    1.0631   15.9875 C.ar      1 RES1    0.0000
     86 C10A       5.1652    1.0979   15.5553 C.ar      1 RES1    0.0000
     87 H4A        5.4291    0.5639   14.8150 H         1 RES1    0.0000
     88 C11A       6.0875    1.8667   16.1699 C.ar      1 RES1    0.0000
     89 H5A        6.9795    1.8676   15.8406 H         1 RES1    0.0000
     90 C12A       5.7626    2.6800   17.3014 C.ar      1 RES1    0.0000
     91 C13A       6.6978    3.4869   17.9511 C.ar      1 RES1    0.0000
     92 H6A        7.5924    3.5122   17.6335 H         1 RES1    0.0000
     93 C14A       6.3495    4.2493   19.0462 C.ar      1 RES1    0.0000
     94 H7A        7.0126    4.7851   19.4643 H         1 RES1    0.0000
     95 C15A       4.4215    2.6645   17.7832 C.ar      1 RES1    0.0000
     96 C16A       3.4424    1.8605   17.1342 C.ar      1 RES1    0.0000
     97 C17A       4.7430    5.0633   20.7813 C.3       1 RES1    0.0000
     98 H8A        3.8827    5.5340   20.6447 H         1 RES1    0.0000
     99 H9A        5.4457    5.7498   20.9028 H         1 RES1    0.0000
    100 C18A       4.6505    4.2124   22.0522 C.3       1 RES1    0.0000
    101 H10A       3.9212    3.5512   21.9490 H         1 RES1    0.0000
    102 H11A       5.4971    3.7135   22.1692 H         1 RES1    0.0000
    103 C19A       4.3887    5.0511   23.2925 C.3       1 RES1    0.0000
    104 H12A       3.5609    5.5766   23.1534 H         1 RES1    0.0000
    105 H13A       5.1353    5.6899   23.4115 H         1 RES1    0.0000
    106 C20A       4.2409    4.2269   24.5661 C.3       1 RES1    0.0000
    107 H14A       3.4649    3.6210   24.4680 H         1 RES1    0.0000
    108 H15A       5.0488    3.6664   24.6814 H         1 RES1    0.0000
    109 C21A       4.0491    5.0734   25.8091 C.3       1 RES1    0.0000
    110 H16A       3.2375    5.6292   25.6931 H         1 RES1    0.0000
    111 H17A       4.8229    5.6854   25.8996 H         1 RES1    0.0000
    112 C22A       3.9114    4.2611   27.0890 C.3       1 RES1    0.0000
    113 H18A       4.7081    3.6827   27.1867 H         1 RES1    0.0000
    114 H19A       3.1195    3.6718   27.0112 H         1 RES1    0.0000
    115 C23A       3.7657    5.1161   28.3402 C.3       1 RES1    0.0000
    116 H20A       4.5586    5.7035   28.4221 H         1 RES1    0.0000
    117 H21A       2.9691    5.6954   28.2432 H         1 RES1    0.0000
    118 C24A       3.6260    4.2956   29.6146 C.3       1 RES1    0.0000
    119 H22A       3.5269    4.8976   30.3803 H         1 RES1    0.0000
    120 H23A       4.4250    3.7407   29.7367 H         1 RES1    0.0000
    121 H24A       2.8360    3.7190   29.5475 H         1 RES1    0.0000
    122 C25A       3.0914   -0.5204   14.1058 C.3       1 RES1    0.0000
    123 H25A       2.4039   -1.2267   14.0166 H         1 RES1    0.0000
    124 H26A       3.9693   -0.9646   14.2093 H         1 RES1    0.0000
    125 C26A       3.1058    0.3238   12.8280 C.3       1 RES1    0.0000
    126 H27A       2.2564    0.8268   12.7640 H         1 RES1    0.0000
    127 H28A       3.8437    0.9819   12.8844 H         1 RES1    0.0000
    128 C27A       3.2829   -0.5123   11.5643 C.3       1 RES1    0.0000
    129 H29A       4.0989   -1.0644   11.6593 H         1 RES1    0.0000
    130 H30A       2.5117   -1.1269   11.4769 H         1 RES1    0.0000
    131 C28A       3.3954    0.3214   10.2927 C.3       1 RES1    0.0000
    132 H31A       2.5859    0.8840   10.2036 H         1 RES1    0.0000
    133 H32A       4.1760    0.9257   10.3722 H         1 RES1    0.0000
    134 C29A       3.5511   -0.5196    9.0346 C.3       1 RES1    0.0000
    135 H33A       2.7568   -1.1043    8.9441 H         1 RES1    0.0000
    136 H34A       4.3428   -1.1043    9.1402 H         1 RES1    0.0000
    137 C30A       3.7099    0.2922    7.7537 C.3       1 RES1    0.0000
    138 H35A       2.9170    0.8758    7.6432 H         1 RES1    0.0000
    139 H36A       4.5045    0.8758    7.8394 H         1 RES1    0.0000
    140 C31A       3.8644   -0.5739    6.5110 C.3       1 RES1    0.0000
    141 H37A       3.0677   -1.1541    6.4250 H         1 RES1    0.0000
    142 H38A       4.6522   -1.1614    6.6280 H         1 RES1    0.0000
    143 C32A       4.0320    0.2239    5.2243 C.3       1 RES1    0.0000
    144 H39A       4.8510    0.7616    5.2756 H         1 RES1    0.0000
    145 H40A       3.2600    0.8160    5.1035 H         1 RES1    0.0000
    146 H41A       4.0937   -0.3908    4.4634 H         1 RES1    0.0000
@<TRIPOS>BOND
     1    1    2 ar
     2    2    3 ar
     3    3    4 1
     4    5    3 ar
     5    6    5 1
     6    7    5 ar
     7    8    7 ar
     8    9    8 ar
     9   10    9 1
    10   11    9 ar
    11   12   11 ar
    12   13   12 ar
    13   14   13 1
    14   15   13 ar
    15   16   15 1
    16   17   15 ar
    17   18   17 ar
    18   19   18 1
    19   20    1 ar
    20   21   20 1
    21   22    2 ar
    22   23    7 ar
    23   24    1 1
    24   25   24 1
    25   26   24 1
    26   27   24 1
    27   28   27 1
    28   29   27 1
    29   30   27 1
    30   31   30 1
    31   32   30 1
    32   33   30 1
    33   34   33 1
    34   35   33 1
    35   36   33 1
    36   37   36 1
    37   38   36 1
    38   39   36 1
    39   40   39 1
    40   41   39 1
    41   42   39 1
    42   43   42 1
    43   44   42 1
    44   45   42 1
    45   46   45 1
    46   47   45 1
    47   48   45 1
    48   49   11 1
    49   50   49 1
    50   51   49 1
    51   52   49 1
    52   53   52 1
    53   54   52 1
    54   55   52 1
    55   56   55 1
    56   57   55 1
    57   58   55 1
    58   59   58 1
    59   60   58 1
    60   61   58 1
    61   62   61 1
    62   63   61 1
    63   64   61 1
    64   65   64 1
    65   66   64 1
    66   67   64 1
    67   68   67 1
    68   69   67 1
    69   70   67 1
    70   71   70 1
    71   72   70 1
    72   73   70 1
    73   74   75 ar
    74   75   76 ar
    75   76   77 1
    76   78   76 ar
    77   79   78 1
    78   80   78 ar
    79   81    8 1
    80   82   81 ar
    81   83   82 1
    82   84   82 ar
    83   85   84 ar
    84   86   85 ar
    85   87   86 1
    86   88   86 ar
    87   89   88 1
    88   90   88 ar
    89   91   90 ar
    90   92   91 1
    91   93   74 ar
    92   94   93 1
    93   95   75 ar
    94   96   80 ar
    95   97   74 1
    96   98   97 1
    97   99   97 1
    98  100   97 1
    99  101  100 1
   100  102  100 1
   101  103  100 1
   102  104  103 1
   103  105  103 1
   104  106  103 1
   105  107  106 1
   106  108  106 1
   107  109  106 1
   108  110  109 1
   109  111  109 1
   110  112  109 1
   111  113  112 1
   112  114  112 1
   113  115  112 1
   114  116  115 1
   115  117  115 1
   116  118  115 1
   117  119  118 1
   118  120  118 1
   119  121  118 1
   120  122   84 1
   121  123  122 1
   122  124  122 1
   123  125  122 1
   124  126  125 1
   125  127  125 1
   126  128  125 1
   127  129  128 1
   128  130  128 1
   129  131  128 1
   130  132  131 1
   131  133  131 1
   132  134  131 1
   133  135  134 1
   134  136  134 1
   135  137  134 1
   136  138  137 1
   137  139  137 1
   138  140  137 1
   139  141  140 1
   140  142  140 1
   141  143  140 1
   142  144  143 1
   143  145  143 1
   144  146  143 1
   145   12   23 ar
   146   17   22 ar
   147   18   20 ar
   148   22   23 ar
   149   80   81 ar
   150   85   96 ar
   151   90   95 ar
   152   91   93 ar
   153   95   96 ar
@<TRIPOS>SUBSTRUCTURE
     1 RES1 1

