# MOL2 file generated by ConQuest
# Please check atom types

@<TRIPOS>MOLECULE
REGXUY
    32    35     1
SMALL
NO_CHARGES
****
Generated from CSD

@<TRIPOS>ATOM
      1 C1         4.8196    5.9976    9.1714 C.ar      1 RES1    0.0000
      2 H1         5.1375    6.2323   10.0365 H         1 RES1    0.0000
      3 C2         5.5807    6.2768    8.0691 C.ar      1 RES1    0.0000
      4 H2         6.4263    6.6965    8.1752 H         1 RES1    0.0000
      5 C3         5.1193    5.9458    6.7628 C.ar      1 RES1    0.0000
      6 C4         5.8689    6.2342    5.6016 C.ar      1 RES1    0.0000
      7 H3         6.7133    6.6617    5.6841 H         1 RES1    0.0000
      8 C5         5.3981    5.9068    4.3563 C.ar      1 RES1    0.0000
      9 C6         6.1686    6.1910    3.0868 C.3       1 RES1    0.0000
     10 H4         6.8628    6.8731    3.2675 H         1 RES1    0.0000
     11 H5         6.6215    5.3644    2.7842 H         1 RES1    0.0000
     12 C7         5.2470    6.6870    1.9998 C.ar      1 RES1    0.0000
     13 C8         5.5941    7.7168    1.1291 C.ar      1 RES1    0.0000
     14 H6         6.4391    8.1425    1.2134 H         1 RES1    0.0000
     15 C9         4.7102    8.1245    0.1370 C.ar      1 RES1    0.0000
     16 H7         4.9533    8.8262   -0.4550 H         1 RES1    0.0000
     17 C10        3.4749    7.5085    0.0105 C.ar      1 RES1    0.0000
     18 H8         2.8694    7.7930   -0.6633 H         1 RES1    0.0000
     19 C11        3.1211    6.4732    0.8713 C.ar      1 RES1    0.0000
     20 H9         2.2754    6.0497    0.7790 H         1 RES1    0.0000
     21 C12        4.0025    6.0574    1.8657 C.ar      1 RES1    0.0000
     22 C13        3.5648    5.3634    9.0357 C.ar      1 RES1    0.0000
     23 H10        3.0475    5.1697    9.8077 H         1 RES1    0.0000
     24 C14        3.0913    5.0267    7.7978 C.ar      1 RES1    0.0000
     25 H11        2.2481    4.5961    7.7176 H         1 RES1    0.0000
     26 C15        3.8469    5.3147    6.6309 C.ar      1 RES1    0.0000
     27 C16        3.3794    4.9871    5.3304 C.ar      1 RES1    0.0000
     28 H12        2.5332    4.5674    5.2291 H         1 RES1    0.0000
     29 C17        4.1323    5.2682    4.2210 C.ar      1 RES1    0.0000
     30 C18        3.6846    4.9264    2.8161 C.3       1 RES1    0.0000
     31 H13        4.1424    4.1018    2.5143 H         1 RES1    0.0000
     32 H14        2.7095    4.7554    2.8125 H         1 RES1    0.0000
@<TRIPOS>BOND
     1    1    2 1
     2    3    1 ar
     3    4    3 1
     4    5    3 ar
     5    6    5 ar
     6    7    6 1
     7    8    6 ar
     8    9    8 1
     9   10    9 1
    10   11    9 1
    11   12    9 1
    12   13   12 ar
    13   14   13 1
    14   15   13 ar
    15   16   15 1
    16   17   15 ar
    17   18   17 1
    18   19   17 ar
    19   20   19 1
    20   21   12 ar
    21   22    1 ar
    22   23   22 1
    23   24   22 ar
    24   25   24 1
    25   26    5 ar
    26   27   26 ar
    27   28   27 1
    28   29    8 ar
    29   30   21 1
    30   31   30 1
    31   32   30 1
    32   19   21 ar
    33   24   26 ar
    34   27   29 ar
    35   29   30 1
@<TRIPOS>SUBSTRUCTURE
     1 RES1 1

@<TRIPOS>CRYSIN
   6.0792    7.5470   25.7083  90.0000  90.0000  90.0000  19 1

