# MOL2 file generated by ConQuest
# Please check atom types

@<TRIPOS>MOLECULE
REGXUY01
    32    35     1
SMALL
NO_CHARGES
****
Generated from CSD

@<TRIPOS>ATOM
      1 C1         2.2019    0.8617   10.8530 C.ar      1 RES1    0.0000
      2 C2         2.5505   -0.1702   11.7237 C.ar      1 RES1    0.0000
      3 H1         3.3957   -0.5952   11.6376 H         1 RES1    0.0000
      4 C3         1.6662   -0.5823   12.7208 C.ar      1 RES1    0.0000
      5 H2         1.9114   -1.2827   13.3148 H         1 RES1    0.0000
      6 C4         0.4243    0.0341   12.8456 C.ar      1 RES1    0.0000
      7 H3        -0.1811   -0.2495   13.5203 H         1 RES1    0.0000
      8 C5         0.0682    1.0705   11.9785 C.ar      1 RES1    0.0000
      9 H4        -0.7797    1.4901   12.0640 H         1 RES1    0.0000
     10 C6         0.9541    1.4908   10.9868 C.ar      1 RES1    0.0000
     11 C7         0.6359    2.6191   10.0339 C.3       1 RES1    0.0000
     12 H5         1.0917    3.4447   10.3354 H         1 RES1    0.0000
     13 H6        -0.3393    2.7887   10.0349 H         1 RES1    0.0000
     14 C8         1.0858    2.2768    8.6323 C.ar      1 RES1    0.0000
     15 C9         0.3325    2.5585    7.5189 C.ar      1 RES1    0.0000
     16 H7        -0.5137    2.9780    7.6180 H         1 RES1    0.0000
     17 C10        0.8034    2.2298    6.2180 C.ar      1 RES1    0.0000
     18 C11        0.0448    2.5162    5.0501 C.ar      1 RES1    0.0000
     19 H8        -0.7997    2.9442    5.1318 H         1 RES1    0.0000
     20 C12        0.5220    2.1798    3.8034 C.ar      1 RES1    0.0000
     21 H9         0.0055    2.3716    3.0282 H         1 RES1    0.0000
     22 C13        1.7817    1.5485    3.6742 C.ar      1 RES1    0.0000
     23 H10        2.1040    1.3158    2.8125 H         1 RES1    0.0000
     24 C14        2.5441    1.2685    4.7835 C.ar      1 RES1    0.0000
     25 H11        3.3908    0.8499    4.6797 H         1 RES1    0.0000
     26 C15        2.0753    1.6009    6.0844 C.ar      1 RES1    0.0000
     27 C16        2.8312    1.3107    7.2502 C.ar      1 RES1    0.0000
     28 H12        3.6762    0.8837    7.1685 H         1 RES1    0.0000
     29 C17        2.3531    1.6410    8.4967 C.ar      1 RES1    0.0000
     30 C18        3.1218    1.3604    9.7673 C.3       1 RES1    0.0000
     31 H13        3.8192    0.6808    9.5880 H         1 RES1    0.0000
     32 H14        3.5714    2.1890   10.0709 H         1 RES1    0.0000
@<TRIPOS>BOND
     1    1    2 ar
     2    2    3 1
     3    4    2 ar
     4    5    4 1
     5    6    4 ar
     6    7    6 1
     7    8    6 ar
     8    9    8 1
     9   10    1 ar
    10   11   10 1
    11   12   11 1
    12   13   11 1
    13   14   11 1
    14   15   14 ar
    15   16   15 1
    16   17   15 ar
    17   18   17 ar
    18   19   18 1
    19   20   18 ar
    20   21   20 1
    21   22   20 ar
    22   23   22 1
    23   24   22 ar
    24   25   24 1
    25   26   17 ar
    26   27   26 ar
    27   28   27 1
    28   29   14 ar
    29   30    1 1
    30   31   30 1
    31   32   30 1
    32    8   10 ar
    33   24   26 ar
    34   27   29 ar
    35   29   30 1
@<TRIPOS>SUBSTRUCTURE
     1 RES1 1

@<TRIPOS>CRYSIN
   6.0583    7.5146   25.6845  90.0000  90.0000  90.0000  19 1

