# MOL2 file generated by ConQuest
# Please check atom types

@<TRIPOS>MOLECULE
RELGUN
   122   134     2
SMALL
NO_CHARGES
****
Generated from CSD

@<TRIPOS>ATOM
      1 C1        15.5021   -0.8989   19.7037 C.3       1 RES1    0.0000
      2 H1        15.2903   -1.5474   18.9741 H         1 RES1    0.0000
      3 C2        15.7995   -1.6127   21.0199 C.3       1 RES1    0.0000
      4 H2        15.6785   -2.6023   21.0953 H         1 RES1    0.0000
      5 C3        15.7256   -0.7513   22.2296 C.ar      1 RES1    0.0000
      6 C4        14.8297   -0.8801   23.3244 C.ar      1 RES1    0.0000
      7 C5        13.9165   -1.9569   23.4622 C.ar      1 RES1    0.0000
      8 H3        13.8888   -2.6386   22.8019 H         1 RES1    0.0000
      9 C6        13.0744   -2.0222   24.5410 C.ar      1 RES1    0.0000
     10 H4        12.4767   -2.7554   24.6249 H         1 RES1    0.0000
     11 C7        13.0857   -1.0156   25.5227 C.ar      1 RES1    0.0000
     12 H5        12.4959   -1.0737   26.2663 H         1 RES1    0.0000
     13 C8        13.9447    0.0514   25.4138 C.ar      1 RES1    0.0000
     14 H6        13.9379    0.7301   26.0779 H         1 RES1    0.0000
     15 C9        14.8449    0.1488   24.3148 C.ar      1 RES1    0.0000
     16 C10       15.7171    1.2558   24.1609 C.ar      1 RES1    0.0000
     17 H7        15.7041    1.9526   24.8065 H         1 RES1    0.0000
     18 C11       16.5778    1.3393   23.0983 C.ar      1 RES1    0.0000
     19 H8        17.1525    2.0906   23.0075 H         1 RES1    0.0000
     20 C12       16.6058    0.3037   22.1415 C.ar      1 RES1    0.0000
     21 C13       17.5354    0.1615   20.9432 C.3       1 RES1    0.0000
     22 H9        17.4810    0.9836   20.3757 H         1 RES1    0.0000
     23 C14       16.9358   -1.0374   20.1749 C.3       1 RES1    0.0000
     24 C15       17.8236   -1.9321   19.3398 C.3       1 RES1    0.0000
     25 H10       17.2805   -2.6320   18.9193 H         1 RES1    0.0000
     26 H11       18.5028   -2.3452   19.9131 H         1 RES1    0.0000
     27 H12       18.2639   -1.3998   18.6452 H         1 RES1    0.0000
     28 C16       14.7465    0.3763   19.5416 C.ar      1 RES1    0.0000
     29 C17       15.0125    1.1735   18.3775 C.ar      1 RES1    0.0000
     30 C18       16.0478    0.8547   17.4513 C.ar      1 RES1    0.0000
     31 H13       16.5979    0.0962   17.6068 H         1 RES1    0.0000
     32 C19       16.2594    1.6296   16.3389 C.ar      1 RES1    0.0000
     33 H14       16.9605    1.4082   15.7358 H         1 RES1    0.0000
     34 C20       15.4494    2.7475   16.0833 C.ar      1 RES1    0.0000
     35 H15       15.5996    3.2750   15.3075 H         1 RES1    0.0000
     36 C21       14.4464    3.0790   16.9462 C.ar      1 RES1    0.0000
     37 H16       13.8973    3.8315   16.7570 H         1 RES1    0.0000
     38 C22       14.2094    2.3204   18.1144 C.ar      1 RES1    0.0000
     39 C23       13.1874    2.6798   19.0320 C.ar      1 RES1    0.0000
     40 H17       12.6559    3.4498   18.8713 H         1 RES1    0.0000
     41 C24       12.9692    1.9194   20.1454 C.ar      1 RES1    0.0000
     42 H18       12.2954    2.1734   20.7629 H         1 RES1    0.0000
     43 C25       13.7393    0.7580   20.3846 C.ar      1 RES1    0.0000
     44 H19       13.5518    0.2287   21.1501 H         1 RES1    0.0000
     45 C26       19.0083   -0.0919   21.3506 C.3       1 RES1    0.0000
     46 H20       19.4733   -0.4325   20.5333 H         1 RES1    0.0000
     47 C27       19.1559   -1.1850   22.4181 C.3       1 RES1    0.0000
     48 H21       18.7801   -0.8668   23.2782 H         1 RES1    0.0000
     49 H22       18.6564   -1.9932   22.1405 H         1 RES1    0.0000
     50 C28       20.6406   -1.5292   22.5959 C.3       1 RES1    0.0000
     51 H23       20.7362   -2.2255   23.2919 H         1 RES1    0.0000
     52 H24       20.9985   -1.8940   21.7464 H         1 RES1    0.0000
     53 C29       21.4456   -0.2964   22.9972 C.3       1 RES1    0.0000
     54 H25       22.4064   -0.5323   23.0452 H         1 RES1    0.0000
     55 H26       21.1585    0.0048   23.8950 H         1 RES1    0.0000
     56 C30       21.2524    0.8420   21.9959 C.3       1 RES1    0.0000
     57 H27       21.6577    0.5880   21.1296 H         1 RES1    0.0000
     58 H28       21.7174    1.6508   22.3255 H         1 RES1    0.0000
     59 C31       19.7677    1.1596   21.7875 C.3       1 RES1    0.0000
     60 H29       19.3816    1.5038   22.6305 H         1 RES1    0.0000
     61 H30       19.6739    1.8625   21.0953 H         1 RES1    0.0000
     62 C32       10.3463    2.0827   14.5224 C.3       2 RES2    0.0000
     63 H31       10.5291    1.4536   15.2766 H         2 RES2    0.0000
     64 C33       10.0637    1.3326   13.2264 C.3       2 RES2    0.0000
     65 H32       10.1686    0.3387   13.1863 H         2 RES2    0.0000
     66 C34       10.1870    2.1480   11.9917 C.ar      2 RES2    0.0000
     67 C35       11.1002    1.9593   10.9287 C.ar      2 RES2    0.0000
     68 C36       11.9707    0.8396   10.8424 C.ar      2 RES2    0.0000
     69 H33       11.9669    0.1845   11.5311 H         2 RES2    0.0000
     70 C37       12.8180    0.6993    9.7722 C.ar      2 RES2    0.0000
     71 H34       13.3811   -0.0629    9.7115 H         2 RES2    0.0000
     72 C38       12.8532    1.6829    8.7657 C.ar      2 RES2    0.0000
     73 H35       13.4515    1.5849    8.0358 H         2 RES2    0.0000
     74 C39       12.0441    2.7675    8.8267 C.ar      2 RES2    0.0000
     75 H36       12.0884    3.4196    8.1386 H         2 RES2    0.0000
     76 C40       11.1279    2.9501    9.9010 C.ar      2 RES2    0.0000
     77 C41       10.2749    4.0674    9.9864 C.ar      2 RES2    0.0000
     78 H37       10.3137    4.7322    9.3072 H         2 RES2    0.0000
     79 C42        9.3868    4.2205   11.0274 C.ar      2 RES2    0.0000
     80 H38        8.8248    4.9851   11.0720 H         2 RES2    0.0000
     81 C43        9.3220    3.2254   12.0294 C.ar      2 RES2    0.0000
     82 C44        8.3610    3.1359   13.1959 C.3       2 RES2    0.0000
     83 H39        8.4067    3.9767   13.7346 H         2 RES2    0.0000
     84 C45        8.9173    1.9551   14.0259 C.3       2 RES2    0.0000
     85 C46        7.9956    1.0882   14.8572 C.3       2 RES2    0.0000
     86 H40        8.5197    0.3980   15.3143 H         2 RES2    0.0000
     87 H41        7.3337    0.6624   14.2726 H         2 RES2    0.0000
     88 H42        7.5363    1.6435   15.5234 H         2 RES2    0.0000
     89 C47       11.1302    3.3458   14.6602 C.ar      2 RES2    0.0000
     90 C48       10.8696    4.1860   15.7917 C.ar      2 RES2    0.0000
     91 C49        9.8205    3.9186   16.7155 C.ar      2 RES2    0.0000
     92 H43        9.2514    3.1715   16.5754 H         2 RES2    0.0000
     93 C50        9.6191    4.7262   17.8101 C.ar      2 RES2    0.0000
     94 H44        8.9080    4.5380   18.4121 H         2 RES2    0.0000
     95 C51       10.4615    5.8307   18.0465 C.ar      2 RES2    0.0000
     96 H45       10.3222    6.3782   18.8097 H         2 RES2    0.0000
     97 C52       11.4762    6.1162   17.1836 C.ar      2 RES2    0.0000
     98 H46       12.0394    6.8615   17.3533 H         2 RES2    0.0000
     99 C53       11.7045    5.3178   16.0333 C.ar      2 RES2    0.0000
    100 C54       12.7369    5.6305   15.1169 C.ar      2 RES2    0.0000
    101 H47       13.2787    6.3981   15.2561 H         2 RES2    0.0000
    102 C55       12.9528    4.8266   14.0320 C.ar      2 RES2    0.0000
    103 H48       13.6392    5.0468   13.4125 H         2 RES2    0.0000
    104 C56       12.1697    3.6779   13.8199 C.ar      2 RES2    0.0000
    105 H49       12.3636    3.1165   13.0766 H         2 RES2    0.0000
    106 C57        6.8994    2.8860   12.7456 C.3       2 RES2    0.0000
    107 H50        6.4122    2.5219   13.5392 H         2 RES2    0.0000
    108 C58        6.7908    1.8299   11.6408 C.3       2 RES2    0.0000
    109 H51        7.2249    2.1686   10.8184 H         2 RES2    0.0000
    110 H52        7.2676    1.0096   11.9218 H         2 RES2    0.0000
    111 C59        5.3313    1.4899   11.3420 C.3       2 RES2    0.0000
    112 H53        5.2923    0.8475   10.5888 H         2 RES2    0.0000
    113 H54        4.9254    1.0574   12.1343 H         2 RES2    0.0000
    114 C60        4.5338    2.7390   10.9835 C.3       2 RES2    0.0000
    115 H55        4.8465    3.0881   10.1125 H         2 RES2    0.0000
    116 H56        3.5773    2.5007   10.8903 H         2 RES2    0.0000
    117 C61        4.6809    3.8261   12.0414 C.3       2 RES2    0.0000
    118 H57        4.2492    3.5260   12.8813 H         2 RES2    0.0000
    119 H58        4.2172    4.6451   11.7368 H         2 RES2    0.0000
    120 C62        6.1532    4.1515   12.3162 C.3       2 RES2    0.0000
    121 H59        6.5700    4.5223   11.5003 H         2 RES2    0.0000
    122 H60        6.2159    4.8332   13.0321 H         2 RES2    0.0000
@<TRIPOS>BOND
     1    1    2 1
     2    3    1 1
     3    4    3 1
     4    5    3 1
     5    6    5 ar
     6    7    6 ar
     7    8    7 1
     8    9    7 ar
     9   10    9 1
    10   11    9 ar
    11   12   11 1
    12   13   11 ar
    13   14   13 1
    14   15    6 ar
    15   16   15 ar
    16   17   16 1
    17   18   16 ar
    18   19   18 1
    19   20    5 ar
    20   21   20 1
    21   22   21 1
    22   23    1 1
    23   24   23 1
    24   25   24 1
    25   26   24 1
    26   27   24 1
    27   28    1 1
    28   29   28 ar
    29   30   29 ar
    30   31   30 1
    31   32   30 ar
    32   33   32 1
    33   34   32 ar
    34   35   34 1
    35   36   34 ar
    36   37   36 1
    37   38   29 ar
    38   39   38 ar
    39   40   39 1
    40   41   39 ar
    41   42   41 1
    42   43   28 ar
    43   44   43 1
    44   45   21 1
    45   46   45 1
    46   47   45 1
    47   48   47 1
    48   49   47 1
    49   50   47 1
    50   51   50 1
    51   52   50 1
    52   53   50 1
    53   54   53 1
    54   55   53 1
    55   56   53 1
    56   57   56 1
    57   58   56 1
    58   59   45 1
    59   60   59 1
    60   61   59 1
    61   62   63 1
    62   64   62 1
    63   65   64 1
    64   66   64 1
    65   67   66 ar
    66   68   67 ar
    67   69   68 1
    68   70   68 ar
    69   71   70 1
    70   72   70 ar
    71   73   72 1
    72   74   72 ar
    73   75   74 1
    74   76   67 ar
    75   77   76 ar
    76   78   77 1
    77   79   77 ar
    78   80   79 1
    79   81   66 ar
    80   82   81 1
    81   83   82 1
    82   84   62 1
    83   85   84 1
    84   86   85 1
    85   87   85 1
    86   88   85 1
    87   89   62 1
    88   90   89 ar
    89   91   90 ar
    90   92   91 1
    91   93   91 ar
    92   94   93 1
    93   95   93 ar
    94   96   95 1
    95   97   95 ar
    96   98   97 1
    97   99   90 ar
    98  100   99 ar
    99  101  100 1
   100  102  100 ar
   101  103  102 1
   102  104   89 ar
   103  105  104 1
   104  106   82 1
   105  107  106 1
   106  108  106 1
   107  109  108 1
   108  110  108 1
   109  111  108 1
   110  112  111 1
   111  113  111 1
   112  114  111 1
   113  115  114 1
   114  116  114 1
   115  117  114 1
   116  118  117 1
   117  119  117 1
   118  120  106 1
   119  121  120 1
   120  122  120 1
   121    3   23 1
   122   13   15 ar
   123   18   20 ar
   124   21   23 1
   125   36   38 ar
   126   41   43 ar
   127   56   59 1
   128   64   84 1
   129   74   76 ar
   130   79   81 ar
   131   82   84 1
   132   97   99 ar
   133  102  104 ar
   134  117  120 1
@<TRIPOS>SUBSTRUCTURE
     1 RES1 1
     2 RES2 62

@<TRIPOS>CRYSIN
  21.3313    6.0491   34.2679  90.0000  90.0000  90.0000  29 1

