# MOL2 file generated by ConQuest
# Please check atom types

@<TRIPOS>MOLECULE
RELGIB
    76    82     2
SMALL
NO_CHARGES
****
Generated from CSD

@<TRIPOS>ATOM
      1 C1         3.3029    5.8196    4.5665 C.3       1 RES1    0.0000
      2 C2         2.6206    5.9814    5.9237 C.ar      1 RES1    0.0000
      3 C3         2.0713    4.9938    6.7982 C.ar      1 RES1    0.0000
      4 C4         2.1004    3.6073    6.5050 C.ar      1 RES1    0.0000
      5 H1         2.5173    3.3087    5.7055 H         1 RES1    0.0000
      6 C5         1.5343    2.6866    7.3560 C.ar      1 RES1    0.0000
      7 H2         1.5690    1.7604    7.1439 H         1 RES1    0.0000
      8 C6         0.9068    3.1112    8.5386 C.ar      1 RES1    0.0000
      9 H3         0.5035    2.4760    9.1173 H         1 RES1    0.0000
     10 C7         0.8765    4.4518    8.8589 C.ar      1 RES1    0.0000
     11 H4         0.4610    4.7272    9.6680 H         1 RES1    0.0000
     12 C8         1.4497    5.4270    8.0140 C.ar      1 RES1    0.0000
     13 C9         1.4186    6.8432    8.3536 C.ar      1 RES1    0.0000
     14 C10        0.8296    7.3350    9.5406 C.ar      1 RES1    0.0000
     15 H5         0.4185    6.7251   10.1411 H         1 RES1    0.0000
     16 C11        0.8383    8.6756    9.8469 C.ar      1 RES1    0.0000
     17 H6         0.4408    8.9763   10.6560 H         1 RES1    0.0000
     18 C12        1.4271    9.5982    8.9759 C.ar      1 RES1    0.0000
     19 H7         1.4376   10.5215    9.1976 H         1 RES1    0.0000
     20 C13        1.9910    9.1644    7.7967 C.ar      1 RES1    0.0000
     21 H8         2.3819    9.7932    7.2023 H         1 RES1    0.0000
     22 C14        1.9914    7.7880    7.4633 C.ar      1 RES1    0.0000
     23 C15        2.5561    7.3204    6.2370 C.ar      1 RES1    0.0000
     24 C16        3.1340    8.0990    5.1417 C.2       1 RES1    0.0000
     25 H9         3.1886    9.0460    5.1120 H         1 RES1    0.0000
     26 C17        3.5750    7.2678    4.1842 C.2       1 RES1    0.0000
     27 C18        4.2325    7.6342    2.8907 C.3       1 RES1    0.0000
     28 H10        3.6476    7.3869    2.1453 H         1 RES1    0.0000
     29 H11        5.0832    7.1557    2.8104 H         1 RES1    0.0000
     30 H12        4.3977    8.5996    2.8706 H         1 RES1    0.0000
     31 C19        4.6388    5.0502    4.6843 C.3       1 RES1    0.0000
     32 H13        5.0731    5.0154    3.8072 H         1 RES1    0.0000
     33 H14        4.4645    4.1383    5.0003 H         1 RES1    0.0000
     34 H15        5.2247    5.5093    5.3215 H         1 RES1    0.0000
     35 C20        2.3772    5.1835    3.5191 C.3       1 RES1    0.0000
     36 H16        1.5549    5.7119    3.4467 H         1 RES1    0.0000
     37 H17        2.1554    4.2681    3.7923 H         1 RES1    0.0000
     38 H18        2.8307    5.1642    2.6507 H         1 RES1    0.0000
     39 C21        5.7840    3.3730    0.3666 C.3       2 RES2    0.0000
     40 C22        5.8628    2.7394    1.7454 C.ar      2 RES2    0.0000
     41 C23        4.8436    2.0840    2.5172 C.ar      2 RES2    0.0000
     42 C24        3.4901    2.0188    2.0982 C.ar      2 RES2    0.0000
     43 H19        3.2412    2.3969    1.2629 H         2 RES2    0.0000
     44 C25        2.5274    1.4144    2.8829 C.ar      2 RES2    0.0000
     45 H20        1.6256    1.3805    2.5861 H         2 RES2    0.0000
     46 C26        2.8811    0.8536    4.1179 C.ar      2 RES2    0.0000
     47 H21        2.2161    0.4464    4.6599 H         2 RES2    0.0000
     48 C27        4.1885    0.8919    4.5490 C.ar      2 RES2    0.0000
     49 H22        4.4139    0.5098    5.3887 H         2 RES2    0.0000
     50 C28        5.2059    1.4913    3.7638 C.ar      2 RES2    0.0000
     51 C29        6.5946    1.5151    4.2113 C.ar      2 RES2    0.0000
     52 C30        7.0303    0.8267    5.3625 C.ar      2 RES2    0.0000
     53 H23        6.4015    0.3293    5.8696 H         2 RES2    0.0000
     54 C31        8.3470    0.8596    5.7683 C.ar      2 RES2    0.0000
     55 H24        8.6155    0.3926    6.5512 H         2 RES2    0.0000
     56 C32        9.2943    1.5844    5.0230 C.ar      2 RES2    0.0000
     57 H25       10.2028    1.6053    5.3014 H         2 RES2    0.0000
     58 C33        8.9071    2.2588    3.8953 C.ar      2 RES2    0.0000
     59 H26        9.5517    2.7515    3.4013 H         2 RES2    0.0000
     60 C34        7.5595    2.2303    3.4537 C.ar      2 RES2    0.0000
     61 C35        7.1490    2.8398    2.2283 C.ar      2 RES2    0.0000
     62 C36        7.9667    3.5535    1.2359 C.2       2 RES2    0.0000
     63 H27        8.8844    3.7742    1.3415 H         2 RES2    0.0000
     64 C37        7.2238    3.8426    0.1606 C.2       2 RES2    0.0000
     65 C38        7.6955    4.4746   -1.1093 C.3       2 RES2    0.0000
     66 H28        8.6115    4.8032   -0.9898 H         2 RES2    0.0000
     67 H29        7.1072    5.2243   -1.3406 H         2 RES2    0.0000
     68 H30        7.6794    3.8122   -1.8303 H         2 RES2    0.0000
     69 C39        5.4134    2.3389   -0.7113 C.3       2 RES2    0.0000
     70 H31        6.0335    1.5831   -0.6659 H         2 RES2    0.0000
     71 H32        5.4714    2.7546   -1.5972 H         2 RES2    0.0000
     72 H33        4.4988    2.0201   -0.5586 H         2 RES2    0.0000
     73 C40        4.8246    4.5803    0.3125 C.3       2 RES2    0.0000
     74 H34        3.9044    4.2745    0.4556 H         2 RES2    0.0000
     75 H35        4.8911    5.0122   -0.5647 H         2 RES2    0.0000
     76 H36        5.0670    5.2212    1.0124 H         2 RES2    0.0000
@<TRIPOS>BOND
     1    1    2 1
     2    2    3 ar
     3    3    4 ar
     4    4    5 1
     5    6    4 ar
     6    7    6 1
     7    8    6 ar
     8    9    8 1
     9   10    8 ar
    10   11   10 1
    11   12    3 ar
    12   13   12 ar
    13   14   13 ar
    14   15   14 1
    15   16   14 ar
    16   17   16 1
    17   18   16 ar
    18   19   18 1
    19   20   18 ar
    20   21   20 1
    21   22   13 ar
    22   23    2 ar
    23   24   23 1
    24   25   24 1
    25   26    1 1
    26   27   26 1
    27   28   27 1
    28   29   27 1
    29   30   27 1
    30   31    1 1
    31   32   31 1
    32   33   31 1
    33   34   31 1
    34   35    1 1
    35   36   35 1
    36   37   35 1
    37   38   35 1
    38   39   40 1
    39   40   41 ar
    40   41   42 ar
    41   42   43 1
    42   44   42 ar
    43   45   44 1
    44   46   44 ar
    45   47   46 1
    46   48   46 ar
    47   49   48 1
    48   50   41 ar
    49   51   50 ar
    50   52   51 ar
    51   53   52 1
    52   54   52 ar
    53   55   54 1
    54   56   54 ar
    55   57   56 1
    56   58   56 ar
    57   59   58 1
    58   60   51 ar
    59   61   40 ar
    60   62   61 1
    61   63   62 1
    62   64   39 1
    63   65   64 1
    64   66   65 1
    65   67   65 1
    66   68   65 1
    67   69   39 1
    68   70   69 1
    69   71   69 1
    70   72   69 1
    71   73   39 1
    72   74   73 1
    73   75   73 1
    74   76   73 1
    75   10   12 ar
    76   20   22 ar
    77   22   23 ar
    78   24   26 2
    79   48   50 ar
    80   58   60 ar
    81   60   61 ar
    82   62   64 2
@<TRIPOS>SUBSTRUCTURE
     1 RES1 1
     2 RES2 39

@<TRIPOS>CRYSIN
  20.2195   31.6626    8.7280  90.0000  90.0000  90.0000  45 1

