# MOL2 file generated by ConQuest
# Please check atom types

@<TRIPOS>MOLECULE
RELGUM
    34    36     1
SMALL
NO_CHARGES
****
Generated from CSD

@<TRIPOS>ATOM
      1 C1         3.9859    3.3227    3.9105 C.ar      1 RES1    0.0000
      2 C2         3.2610    3.8411    2.7816 C.ar      1 RES1    0.0000
      3 C3         1.8924    3.5307    2.4587 C.ar      1 RES1    0.0000
      4 C4         1.3408    4.0765    1.3191 C.ar      1 RES1    0.0000
      5 H1         0.4421    3.8637    1.1007 H         1 RES1    0.0000
      6 C5         2.0512    4.9306    0.4723 C.ar      1 RES1    0.0000
      7 H2         1.6360    5.2782   -0.3082 H         1 RES1    0.0000
      8 C6         3.3332    5.2641    0.7644 C.ar      1 RES1    0.0000
      9 H3         3.8094    5.8528    0.1909 H         1 RES1    0.0000
     10 C7         3.9632    4.7438    1.9107 C.ar      1 RES1    0.0000
     11 C8         5.3035    5.1112    2.1914 C.ar      1 RES1    0.0000
     12 H4         5.7506    5.7262    1.6219 H         1 RES1    0.0000
     13 C9         5.9513    4.5987    3.2566 C.ar      1 RES1    0.0000
     14 H5         6.8515    4.8473    3.4322 H         1 RES1    0.0000
     15 C10        5.2904    3.6933    4.1075 C.ar      1 RES1    0.0000
     16 H6         5.7660    3.3257    4.8437 H         1 RES1    0.0000
     17 C11        3.4367    2.3752    4.9369 C.ar      1 RES1    0.0000
     18 C12        3.6126    1.0121    4.8156 C.ar      1 RES1    0.0000
     19 H7         4.0313    0.6646    4.0378 H         1 RES1    0.0000
     20 C13        3.1883    0.1436    5.8058 C.ar      1 RES1    0.0000
     21 H8         3.3131   -0.7912    5.6885 H         1 RES1    0.0000
     22 C14        2.5910    0.6045    6.9581 C.ar      1 RES1    0.0000
     23 C15        2.4201    1.9611    7.0854 C.ar      1 RES1    0.0000
     24 H9         2.0051    2.3056    7.8672 H         1 RES1    0.0000
     25 C16        2.8386    2.8351    6.0986 C.ar      1 RES1    0.0000
     26 H10        2.7143    3.7688    6.2198 H         1 RES1    0.0000
     27 C17        2.1387   -0.3501    8.0381 C.3       1 RES1    0.0000
     28 H11        2.7351   -0.2751    8.8118 H         1 RES1    0.0000
     29 H12        2.1629   -1.2684    7.6950 H         1 RES1    0.0000
     30 H13        1.2230   -0.1266    8.3087 H         1 RES1    0.0000
     31 C18        1.0067    2.6547    3.2962 C.3       1 RES1    0.0000
     32 H14        0.1435    2.5369    2.8466 H         1 RES1    0.0000
     33 H15        0.8653    3.0749    4.1704 H         1 RES1    0.0000
     34 H16        1.4323    1.7797    3.4181 H         1 RES1    0.0000
@<TRIPOS>BOND
     1    1    2 ar
     2    2    3 ar
     3    3    4 ar
     4    4    5 1
     5    6    4 ar
     6    7    6 1
     7    8    6 ar
     8    9    8 1
     9   10    2 ar
    10   11   10 ar
    11   12   11 1
    12   13   11 ar
    13   14   13 1
    14   15    1 ar
    15   16   15 1
    16   17    1 1
    17   18   17 ar
    18   19   18 1
    19   20   18 ar
    20   21   20 1
    21   22   20 ar
    22   23   22 ar
    23   24   23 1
    24   25   17 ar
    25   26   25 1
    26   27   22 1
    27   28   27 1
    28   29   27 1
    29   30   27 1
    30   31    3 1
    31   32   31 1
    32   33   31 1
    33   34   31 1
    34    8   10 ar
    35   13   15 ar
    36   23   25 ar
@<TRIPOS>SUBSTRUCTURE
     1 RES1 1

@<TRIPOS>CRYSIN
   8.1895   24.3460    7.5266  90.0000 117.1130  90.0000  14 1

