# MOL2 file generated by ConQuest
# Please check atom types

@<TRIPOS>MOLECULE
RIFJAU
   117   126     3
SMALL
NO_CHARGES
****
Generated from CSD

@<TRIPOS>ATOM
      1 C1         3.5684    2.7936   11.9801 C.3       1 RES1    0.0000
      2 H1         3.1404    2.0996   12.5242 H         1 RES1    0.0000
      3 C2         4.8046    2.3250   11.2368 C.3       1 RES1    0.0000
      4 H2         4.7199    1.3717   11.0739 H         1 RES1    0.0000
      5 H3         5.5736    2.4535   11.8139 H         1 RES1    0.0000
      6 C3         5.0851    3.0212    9.8985 C.3       1 RES1    0.0000
      7 H4         5.5573    3.8529   10.0632 H         1 RES1    0.0000
      8 H5         5.6591    2.4556    9.3584 H         1 RES1    0.0000
      9 C4         3.8095    3.3164    9.1294 C.3       1 RES1    0.0000
     10 H6         3.3399    2.4862    8.9504 H         1 RES1    0.0000
     11 H7         4.0324    3.7258    8.2772 H         1 RES1    0.0000
     12 C5         2.9044    4.2523    9.9191 C.3       1 RES1    0.0000
     13 H8         3.3296    5.1216    9.9890 H         1 RES1    0.0000
     14 H9         2.0701    4.3681    9.4381 H         1 RES1    0.0000
     15 C6         2.6038    3.7340   11.3139 C.3       1 RES1    0.0000
     16 H10        1.6579    3.5485   11.4894 H         1 RES1    0.0000
     17 C7         3.4042    4.2002   12.5283 C.3       1 RES1    0.0000
     18 H11        2.8789    4.2429   13.3551 H         1 RES1    0.0000
     19 C8         4.4650    5.2146   12.4463 C.2       1 RES1    0.0000
     20 H12        5.0928    5.1352   11.7657 H         1 RES1    0.0000
     21 C9         4.5807    6.2410   13.2894 C.2       1 RES1    0.0000
     22 H13        3.9418    6.3001   13.9634 H         1 RES1    0.0000
     23 C10        5.6056    7.2849   13.2672 C.ar      1 RES1    0.0000
     24 C11        6.8144    7.1538   12.5222 C.ar      1 RES1    0.0000
     25 H14        6.9659    6.3791   12.0290 H         1 RES1    0.0000
     26 C12        7.7488    8.1395   12.5185 C.ar      1 RES1    0.0000
     27 H15        8.5272    8.0250   12.0216 H         1 RES1    0.0000
     28 C13        7.5668    9.3459   13.2572 C.ar      1 RES1    0.0000
     29 C14        8.5190   10.3830   13.2722 C.ar      1 RES1    0.0000
     30 H16        9.3068   10.2898   12.7857 H         1 RES1    0.0000
     31 C15        8.3034   11.5273   13.9907 C.ar      1 RES1    0.0000
     32 H17        8.9432   12.2023   13.9949 H         1 RES1    0.0000
     33 C16        7.1062   11.6820   14.7279 C.ar      1 RES1    0.0000
     34 H18        6.9631   12.4593   15.2171 H         1 RES1    0.0000
     35 C17        6.1612   10.6991   14.7264 C.ar      1 RES1    0.0000
     36 H19        5.3737   10.8190   15.2060 H         1 RES1    0.0000
     37 C18        6.3626    9.4955   14.0038 C.ar      1 RES1    0.0000
     38 C19        5.4135    8.4444   13.9944 C.ar      1 RES1    0.0000
     39 H20        4.6352    8.5372   14.4938 H         1 RES1    0.0000
     40 C20       -6.0236    8.9411   -2.6534 C.3       2 RES2    0.0000
     41 H21       -6.9762    8.9363   -2.8839 H         2 RES2    0.0000
     42 C21       -5.7192    8.5471   -1.2265 C.3       2 RES2    0.0000
     43 H22       -6.5532    8.4164   -0.7493 H         2 RES2    0.0000
     44 H23       -5.2392    9.2696   -0.7938 H         2 RES2    0.0000
     45 C22       -4.8875    7.2713   -1.1367 C.3       2 RES2    0.0000
     46 H24       -5.4039    6.5216   -1.4707 H         2 RES2    0.0000
     47 H25       -4.6629    7.0924   -0.2096 H         2 RES2    0.0000
     48 C23       -3.6066    7.4175   -1.9553 C.3       2 RES2    0.0000
     49 H26       -3.0634    6.6207   -1.8453 H         2 RES2    0.0000
     50 H27       -3.0988    8.1749   -1.6228 H         2 RES2    0.0000
     51 C24       -3.9082    7.6233   -3.4440 C.3       2 RES2    0.0000
     52 H28       -3.1251    8.0142   -3.8613 H         2 RES2    0.0000
     53 H29       -4.0487    6.7539   -3.8502 H         2 RES2    0.0000
     54 C25       -5.1034    8.4947   -3.7641 C.3       2 RES2    0.0000
     55 H30       -5.5644    8.2523   -4.5939 H         2 RES2    0.0000
     56 C26       -5.1841    9.9716   -3.4162 C.3       2 RES2    0.0000
     57 H31       -5.6983   10.5009   -4.0598 H         2 RES2    0.0000
     58 C27       -4.0690   10.7075   -2.8003 C.2       2 RES2    0.0000
     59 H32       -3.4623   10.2321   -2.2793 H         2 RES2    0.0000
     60 C28       -3.8816   12.0167   -2.9479 C.2       2 RES2    0.0000
     61 H33       -4.4904   12.4567   -3.4960 H         2 RES2    0.0000
     62 C29       -2.8325   12.8485   -2.3528 C.ar      2 RES2    0.0000
     63 C30       -2.9834   14.2208   -2.3344 C.ar      2 RES2    0.0000
     64 H34       -3.7381   14.5925   -2.7300 H         2 RES2    0.0000
     65 C31       -2.0372   15.0789   -1.7404 C.ar      2 RES2    0.0000
     66 C32       -2.2022   16.4885   -1.6970 C.ar      2 RES2    0.0000
     67 H35       -2.9617   16.8723   -2.0735 H         2 RES2    0.0000
     68 C33       -1.2666   17.2905   -1.1146 C.ar      2 RES2    0.0000
     69 H36       -1.3972   18.2111   -1.0868 H         2 RES2    0.0000
     70 C34       -0.0969   16.7258   -0.5508 C.ar      2 RES2    0.0000
     71 H37        0.5417   17.2777   -0.1595 H         2 RES2    0.0000
     72 C35        0.0965   15.3737   -0.5812 C.ar      2 RES2    0.0000
     73 H38        0.8705   15.0136   -0.2114 H         2 RES2    0.0000
     74 C36       -0.8581   14.5148   -1.1636 C.ar      2 RES2    0.0000
     75 C37       -0.7049   13.1015   -1.2098 C.ar      2 RES2    0.0000
     76 H39        0.0579   12.7149   -0.8439 H         2 RES2    0.0000
     77 C38       -1.6508   12.3029   -1.7777 C.ar      2 RES2    0.0000
     78 H40       -1.5218   11.3821   -1.7897 H         2 RES2    0.0000
     79 C39        6.7641   11.0229   10.0448 C.3       3 RES3    0.0000
     80 H41        7.1767   10.1657   10.2783 H         3 RES3    0.0000
     81 C40        5.5866   11.4027   10.9257 C.3       3 RES3    0.0000
     82 H42        5.7027   10.9790   11.7898 H         3 RES3    0.0000
     83 H43        4.7788   11.0401   10.5305 H         3 RES3    0.0000
     84 C41        5.3836   12.9076   11.1483 C.3       3 RES3    0.0000
     85 H44        4.8756   13.2732   10.4081 H         3 RES3    0.0000
     86 H45        4.8684   13.0439   11.9586 H         3 RES3    0.0000
     87 C42        6.7040   13.6494   11.2646 C.3       3 RES3    0.0000
     88 H46        7.2137   13.2871   12.0068 H         3 RES3    0.0000
     89 H47        6.5334   14.5858   11.4467 H         3 RES3    0.0000
     90 C43        7.5150   13.5203    9.9823 C.3       3 RES3    0.0000
     91 H48        7.0487   13.9738    9.2620 H         3 RES3    0.0000
     92 H49        8.3730   13.9571   10.1021 H         3 RES3    0.0000
     93 C44        7.7417   12.0688    9.5950 C.3       3 RES3    0.0000
     94 H50        8.6791   11.7841    9.5884 H         3 RES3    0.0000
     95 C45        6.8439   11.3652    8.5711 C.3       3 RES3    0.0000
     96 H51        7.3028   10.6945    8.0231 H         3 RES3    0.0000
     97 C46        5.7628   12.0812    7.8751 C.2       3 RES3    0.0000
     98 H52        5.1361   12.5266    8.3977 H         3 RES3    0.0000
     99 C47        5.6165   12.1376    6.5585 C.2       3 RES3    0.0000
    100 H53        6.2286   11.6646    6.0423 H         3 RES3    0.0000
    101 C48        4.5719   12.8833    5.8435 C.ar      3 RES3    0.0000
    102 C49        3.3487   13.2418    6.4747 C.ar      3 RES3    0.0000
    103 H54        3.1768   12.9432    7.3387 H         3 RES3    0.0000
    104 C50        2.4225   14.0138    5.8383 C.ar      3 RES3    0.0000
    105 H55        1.6330   14.2332    6.2779 H         3 RES3    0.0000
    106 C51        2.6360   14.4880    4.5271 C.ar      3 RES3    0.0000
    107 C52        1.6936   15.2955    3.8363 C.ar      3 RES3    0.0000
    108 H56        0.8956   15.5299    4.2526 H         3 RES3    0.0000
    109 C53        1.9437   15.7305    2.5724 C.ar      3 RES3    0.0000
    110 H57        1.3167   16.2600    2.1365 H         3 RES3    0.0000
    111 C54        3.1458   15.3845    1.9151 C.ar      3 RES3    0.0000
    112 H58        3.3120   15.6957    1.0553 H         3 RES3    0.0000
    113 C55        4.0657   14.5913    2.5458 C.ar      3 RES3    0.0000
    114 H59        4.8483   14.3558    2.1013 H         3 RES3    0.0000
    115 C56        3.8459   14.1238    3.8635 C.ar      3 RES3    0.0000
    116 C57        4.7801   13.3110    4.5481 C.ar      3 RES3    0.0000
    117 H60        5.5602   13.0565    4.1098 H         3 RES3    0.0000
@<TRIPOS>BOND
     1    1    2 1
     2    3    1 1
     3    4    3 1
     4    5    3 1
     5    6    3 1
     6    7    6 1
     7    8    6 1
     8    9    6 1
     9   10    9 1
    10   11    9 1
    11   12    9 1
    12   13   12 1
    13   14   12 1
    14   15    1 1
    15   16   15 1
    16   17    1 1
    17   18   17 1
    18   19   17 1
    19   20   19 1
    20   21   19 2
    21   22   21 1
    22   23   21 1
    23   24   23 ar
    24   25   24 1
    25   26   24 ar
    26   27   26 1
    27   28   26 ar
    28   29   28 ar
    29   30   29 1
    30   31   29 ar
    31   32   31 1
    32   33   31 ar
    33   34   33 1
    34   35   33 ar
    35   36   35 1
    36   37   28 ar
    37   38   23 ar
    38   39   38 1
    39   40   41 1
    40   42   40 1
    41   43   42 1
    42   44   42 1
    43   45   42 1
    44   46   45 1
    45   47   45 1
    46   48   45 1
    47   49   48 1
    48   50   48 1
    49   51   48 1
    50   52   51 1
    51   53   51 1
    52   54   40 1
    53   55   54 1
    54   56   40 1
    55   57   56 1
    56   58   56 1
    57   59   58 1
    58   60   58 2
    59   61   60 1
    60   62   60 1
    61   63   62 ar
    62   64   63 1
    63   65   63 ar
    64   66   65 ar
    65   67   66 1
    66   68   66 ar
    67   69   68 1
    68   70   68 ar
    69   71   70 1
    70   72   70 ar
    71   73   72 1
    72   74   65 ar
    73   75   74 ar
    74   76   75 1
    75   77   62 ar
    76   78   77 1
    77   79   80 1
    78   81   79 1
    79   82   81 1
    80   83   81 1
    81   84   81 1
    82   85   84 1
    83   86   84 1
    84   87   84 1
    85   88   87 1
    86   89   87 1
    87   90   87 1
    88   91   90 1
    89   92   90 1
    90   93   79 1
    91   94   93 1
    92   95   79 1
    93   96   95 1
    94   97   95 1
    95   98   97 1
    96   99   97 2
    97  100   99 1
    98  101   99 1
    99  102  101 ar
   100  103  102 1
   101  104  102 ar
   102  105  104 1
   103  106  104 ar
   104  107  106 ar
   105  108  107 1
   106  109  107 ar
   107  110  109 1
   108  111  109 ar
   109  112  111 1
   110  113  111 ar
   111  114  113 1
   112  115  106 ar
   113  116  101 ar
   114  117  116 1
   115   12   15 1
   116   15   17 1
   117   35   37 ar
   118   37   38 ar
   119   51   54 1
   120   54   56 1
   121   72   74 ar
   122   75   77 ar
   123   90   93 1
   124   93   95 1
   125  113  115 ar
   126  115  116 ar
@<TRIPOS>SUBSTRUCTURE
     1 RES1 1
     2 RES2 40
     3 RES3 79

@<TRIPOS>CRYSIN
   5.9984   18.7613   19.9913 111.1170  92.9030  97.3810   2 1

