# MOL2 file generated by ConQuest
# Please check atom types

@<TRIPOS>MOLECULE
RIJLUR
   122   135     1
SMALL
NO_CHARGES
****
Generated from CSD

@<TRIPOS>ATOM
      1 C1         0.7326   12.6650    4.4227 C.ar      1 RES1    0.0000
      2 C2         1.4427   13.8305    4.6776 C.ar      1 RES1    0.0000
      3 H1         0.9797   14.6183    4.8500 H         1 RES1    0.0000
      4 C3         2.8290   13.8426    4.6801 C.ar      1 RES1    0.0000
      5 H2         3.2901   14.6338    4.8422 H         1 RES1    0.0000
      6 C4         3.5208   12.6710    4.4400 C.ar      1 RES1    0.0000
      7 H3         4.4506   12.6796    4.4215 H         1 RES1    0.0000
      8 C5         2.8434   11.4899    4.2278 C.ar      1 RES1    0.0000
      9 H4         3.3217   10.7017    4.1057 H         1 RES1    0.0000
     10 C6         1.4363   11.4616    4.1932 C.ar      1 RES1    0.0000
     11 C7         0.6600   10.1904    4.1003 C.ar      1 RES1    0.0000
     12 C8         1.1324    9.0148    3.5594 C.ar      1 RES1    0.0000
     13 C9         0.4137    7.7751    3.8430 C.ar      1 RES1    0.0000
     14 C10        0.5162    6.5697    3.0912 C.ar      1 RES1    0.0000
     15 C11        0.0914    5.3772    3.7122 C.ar      1 RES1    0.0000
     16 C12       -0.1641    4.1412    3.0118 C.ar      1 RES1    0.0000
     17 C13       -0.1833    2.9718    3.6975 C.ar      1 RES1    0.0000
     18 C14        2.4092    8.9349    2.8031 C.ar      1 RES1    0.0000
     19 C15        3.4272    8.1212    3.3068 C.ar      1 RES1    0.0000
     20 H5         3.3010    7.6469    4.0967 H         1 RES1    0.0000
     21 C16        4.6305    8.0265    2.6168 C.ar      1 RES1    0.0000
     22 H6         5.3309    7.5272    2.9704 H         1 RES1    0.0000
     23 C17        4.7857    8.6704    1.4127 C.ar      1 RES1    0.0000
     24 H7         5.5795    8.5734    0.9381 H         1 RES1    0.0000
     25 C18        3.7893    9.4492    0.9067 C.ar      1 RES1    0.0000
     26 H8         3.9114    9.8944    0.0993 H         1 RES1    0.0000
     27 C19        2.6029    9.5770    1.5898 C.ar      1 RES1    0.0000
     28 H9         1.9219   10.1005    1.2334 H         1 RES1    0.0000
     29 C20        1.0666    6.5345    1.7136 C.ar      1 RES1    0.0000
     30 C21        2.2251    5.8109    1.4517 C.ar      1 RES1    0.0000
     31 H10        2.6591    5.3503    2.1331 H         1 RES1    0.0000
     32 C22        2.7286    5.7870    0.1401 C.ar      1 RES1    0.0000
     33 H11        3.5119    5.3186   -0.0392 H         1 RES1    0.0000
     34 C23        2.0951    6.4338   -0.8693 C.ar      1 RES1    0.0000
     35 H12        2.4429    6.4049   -1.7314 H         1 RES1    0.0000
     36 C24        0.9429    7.1289   -0.6181 C.ar      1 RES1    0.0000
     37 H13        0.4902    7.5505   -1.3127 H         1 RES1    0.0000
     38 C25        0.4533    7.2010    0.6799 C.ar      1 RES1    0.0000
     39 H14       -0.3049    7.7108    0.8529 H         1 RES1    0.0000
     40 C26       -0.7223    4.1967    1.6189 C.ar      1 RES1    0.0000
     41 C27       -0.0924    3.6415    0.5345 C.ar      1 RES1    0.0000
     42 H15        0.7047    3.1747    0.6425 H         1 RES1    0.0000
     43 C28       -0.6650    3.7849   -0.7436 C.ar      1 RES1    0.0000
     44 H16       -0.2407    3.4219   -1.4873 H         1 RES1    0.0000
     45 C29       -1.8392    4.4553   -0.8894 C.ar      1 RES1    0.0000
     46 H17       -2.2175    4.5263   -1.7362 H         1 RES1    0.0000
     47 C30       -2.4819    5.0303    0.1805 C.ar      1 RES1    0.0000
     48 H18       -3.2760    5.5009    0.0663 H         1 RES1    0.0000
     49 C31       -1.9116    4.8880    1.4316 C.ar      1 RES1    0.0000
     50 H19       -2.3363    5.2654    2.1679 H         1 RES1    0.0000
     51 C32       -0.6428    1.6850    3.0870 C.ar      1 RES1    0.0000
     52 C33        0.1893    0.7693    2.5660 C.ar      1 RES1    0.0000
     53 H20        1.1059    0.9249    2.5921 H         1 RES1    0.0000
     54 C34       -0.2769   -0.3954    1.9929 C.ar      1 RES1    0.0000
     55 H21        0.3307   -1.0082    1.6461 H         1 RES1    0.0000
     56 C35       -1.5792   -0.6597    1.9262 C.ar      1 RES1    0.0000
     57 H22       -1.8845   -1.4506    1.5439 H         1 RES1    0.0000
     58 C36       -2.4449    0.2413    2.4238 C.ar      1 RES1    0.0000
     59 H23       -3.3605    0.0828    2.3826 H         1 RES1    0.0000
     60 C37       -1.9703    1.3938    2.9919 C.ar      1 RES1    0.0000
     61 H24       -2.5832    2.0067    3.3286 H         1 RES1    0.0000
     62 C1C       -0.7326   12.6650    4.3977 C.ar      1 RES1    0.0000
     63 C2C       -1.4427   13.8305    4.1428 C.ar      1 RES1    0.0000
     64 H1C       -0.9797   14.6183    3.9704 H         1 RES1    0.0000
     65 C3C       -2.8290   13.8426    4.1403 C.ar      1 RES1    0.0000
     66 H2C       -3.2901   14.6338    3.9782 H         1 RES1    0.0000
     67 C4C       -3.5208   12.6710    4.3804 C.ar      1 RES1    0.0000
     68 H3C       -4.4506   12.6796    4.3989 H         1 RES1    0.0000
     69 C5C       -2.8434   11.4899    4.5926 C.ar      1 RES1    0.0000
     70 H4C       -3.3217   10.7017    4.7147 H         1 RES1    0.0000
     71 C6C       -1.4363   11.4616    4.6272 C.ar      1 RES1    0.0000
     72 C7C       -0.6600   10.1904    4.7201 C.ar      1 RES1    0.0000
     73 C9C       -0.4137    7.7751    4.9774 C.ar      1 RES1    0.0000
     74 C8C       -1.1324    9.0148    5.2610 C.ar      1 RES1    0.0000
     75 C14C      -2.4092    8.9349    6.0173 C.ar      1 RES1    0.0000
     76 C15C      -3.4272    8.1212    5.5136 C.ar      1 RES1    0.0000
     77 H5C       -3.3010    7.6469    4.7237 H         1 RES1    0.0000
     78 C16C      -4.6305    8.0265    6.2036 C.ar      1 RES1    0.0000
     79 H6C       -5.3309    7.5272    5.8500 H         1 RES1    0.0000
     80 C17C      -4.7857    8.6704    7.4077 C.ar      1 RES1    0.0000
     81 H7C       -5.5795    8.5734    7.8823 H         1 RES1    0.0000
     82 C18C      -3.7893    9.4492    7.9137 C.ar      1 RES1    0.0000
     83 H8C       -3.9114    9.8944    8.7211 H         1 RES1    0.0000
     84 C19C      -2.6029    9.5770    7.2306 C.ar      1 RES1    0.0000
     85 H9C       -1.9219   10.1005    7.5870 H         1 RES1    0.0000
     86 C10C      -0.5162    6.5697    5.7292 C.ar      1 RES1    0.0000
     87 C11C      -0.0914    5.3772    5.1082 C.ar      1 RES1    0.0000
     88 C13C       0.1833    2.9718    5.1229 C.ar      1 RES1    0.0000
     89 C12C       0.1641    4.1412    5.8086 C.ar      1 RES1    0.0000
     90 C26C       0.7223    4.1967    7.2015 C.ar      1 RES1    0.0000
     91 C27C       0.0924    3.6415    8.2859 C.ar      1 RES1    0.0000
     92 H15C      -0.7047    3.1747    8.1779 H         1 RES1    0.0000
     93 C28C       0.6650    3.7849    9.5640 C.ar      1 RES1    0.0000
     94 H16C       0.2407    3.4219   10.3077 H         1 RES1    0.0000
     95 C29C       1.8392    4.4553    9.7098 C.ar      1 RES1    0.0000
     96 H17C       2.2175    4.5263   10.5566 H         1 RES1    0.0000
     97 C30C       2.4819    5.0303    8.6399 C.ar      1 RES1    0.0000
     98 H18C       3.2760    5.5009    8.7541 H         1 RES1    0.0000
     99 C31C       1.9116    4.8880    7.3888 C.ar      1 RES1    0.0000
    100 H19C       2.3363    5.2654    6.6525 H         1 RES1    0.0000
    101 C32C       0.6428    1.6850    5.7334 C.ar      1 RES1    0.0000
    102 C33C      -0.1893    0.7693    6.2544 C.ar      1 RES1    0.0000
    103 H20C      -1.1059    0.9249    6.2283 H         1 RES1    0.0000
    104 C34C       0.2769   -0.3954    6.8275 C.ar      1 RES1    0.0000
    105 H21C      -0.3307   -1.0082    7.1743 H         1 RES1    0.0000
    106 C35C       1.5792   -0.6597    6.8942 C.ar      1 RES1    0.0000
    107 H22C       1.8845   -1.4506    7.2765 H         1 RES1    0.0000
    108 C36C       2.4449    0.2413    6.3966 C.ar      1 RES1    0.0000
    109 H23C       3.3605    0.0828    6.4378 H         1 RES1    0.0000
    110 C37C       1.9703    1.3938    5.8285 C.ar      1 RES1    0.0000
    111 H24C       2.5832    2.0067    5.4918 H         1 RES1    0.0000
    112 C20C      -1.0666    6.5345    7.1068 C.ar      1 RES1    0.0000
    113 C21C      -2.2251    5.8109    7.3687 C.ar      1 RES1    0.0000
    114 H10C      -2.6591    5.3503    6.6873 H         1 RES1    0.0000
    115 C22C      -2.7286    5.7870    8.6803 C.ar      1 RES1    0.0000
    116 H11C      -3.5119    5.3186    8.8596 H         1 RES1    0.0000
    117 C23C      -2.0951    6.4338    9.6897 C.ar      1 RES1    0.0000
    118 H12C      -2.4429    6.4049   10.5518 H         1 RES1    0.0000
    119 C24C      -0.9429    7.1289    9.4385 C.ar      1 RES1    0.0000
    120 H13C      -0.4902    7.5505   10.1331 H         1 RES1    0.0000
    121 C25C      -0.4533    7.2010    8.1405 C.ar      1 RES1    0.0000
    122 H14C       0.3049    7.7108    7.9675 H         1 RES1    0.0000
@<TRIPOS>BOND
     1    1    2 ar
     2    2    3 1
     3    4    2 ar
     4    5    4 1
     5    6    4 ar
     6    7    6 1
     7    8    6 ar
     8    9    8 1
     9   10    1 ar
    10   11   10 1
    11   12   11 ar
    12   13   12 ar
    13   14   13 ar
    14   15   14 ar
    15   16   15 ar
    16   17   16 ar
    17   18   12 1
    18   19   18 ar
    19   20   19 1
    20   21   19 ar
    21   22   21 1
    22   23   21 ar
    23   24   23 1
    24   25   23 ar
    25   26   25 1
    26   27   18 ar
    27   28   27 1
    28   29   14 1
    29   30   29 ar
    30   31   30 1
    31   32   30 ar
    32   33   32 1
    33   34   32 ar
    34   35   34 1
    35   36   34 ar
    36   37   36 1
    37   38   29 ar
    38   39   38 1
    39   40   16 1
    40   41   40 ar
    41   42   41 1
    42   43   41 ar
    43   44   43 1
    44   45   43 ar
    45   46   45 1
    46   47   45 ar
    47   48   47 1
    48   49   40 ar
    49   50   49 1
    50   51   17 1
    51   52   51 ar
    52   53   52 1
    53   54   52 ar
    54   55   54 1
    55   56   54 ar
    56   57   56 1
    57   58   56 ar
    58   59   58 1
    59   60   51 ar
    60   61   60 1
    61   62    1 1
    62   63   62 ar
    63   64   63 1
    64   65   63 ar
    65   66   65 1
    66   67   65 ar
    67   68   67 1
    68   69   67 ar
    69   70   69 1
    70   71   62 ar
    71   72   11 ar
    72   73   13 ar
    73   74   72 ar
    74   75   74 1
    75   76   75 ar
    76   77   76 1
    77   78   76 ar
    78   79   78 1
    79   80   78 ar
    80   81   80 1
    81   82   80 ar
    82   83   82 1
    83   84   75 ar
    84   85   84 1
    85   86   73 ar
    86   87   15 ar
    87   88   17 ar
    88   89   87 ar
    89   90   89 1
    90   91   90 ar
    91   92   91 1
    92   93   91 ar
    93   94   93 1
    94   95   93 ar
    95   96   95 1
    96   97   95 ar
    97   98   97 1
    98   99   90 ar
    99  100   99 1
   100  101   88 1
   101  102  101 ar
   102  103  102 1
   103  104  102 ar
   104  105  104 1
   105  106  104 ar
   106  107  106 1
   107  108  106 ar
   108  109  108 1
   109  110  101 ar
   110  111  110 1
   111  112   86 1
   112  113  112 ar
   113  114  113 1
   114  115  113 ar
   115  116  115 1
   116  117  115 ar
   117  118  117 1
   118  119  117 ar
   119  120  119 1
   120  121  112 ar
   121  122  121 1
   122    8   10 ar
   123   25   27 ar
   124   36   38 ar
   125   47   49 ar
   126   58   60 ar
   127   69   71 ar
   128   71   72 1
   129   73   74 ar
   130   82   84 ar
   131   86   87 ar
   132   88   89 ar
   133   97   99 ar
   134  108  110 ar
   135  119  121 ar
@<TRIPOS>SUBSTRUCTURE
     1 RES1 1

@<TRIPOS>CRYSIN
  16.5623   17.7964   17.6408  90.0000  90.0000  90.0000  60 1

