# MOL2 file generated by ConQuest
# Please check atom types

@<TRIPOS>MOLECULE
RIQMIN
   368   404     2
SMALL
NO_CHARGES
****
Generated from CSD

@<TRIPOS>ATOM
      1 C1         9.6746    0.6861    5.5468 C.ar      1 RES1    0.0000
      2 C2         8.9435    1.5400    6.3579 C.ar      1 RES1    0.0000
      3 H1         8.9300    2.4433    6.1372 H         1 RES1    0.0000
      4 C3         8.2214    1.1306    7.4926 C.ar      1 RES1    0.0000
      5 C4         8.2743   -0.2172    7.8007 C.ar      1 RES1    0.0000
      6 H2         7.8320   -0.5324    8.5548 H         1 RES1    0.0000
      7 C5         8.9771   -1.0972    7.0016 C.ar      1 RES1    0.0000
      8 H3         8.9880   -2.0005    7.2169 H         1 RES1    0.0000
      9 C6         9.6607   -0.6550    5.8896 C.ar      1 RES1    0.0000
     10 H4        10.1195   -1.2674    5.3613 H         1 RES1    0.0000
     11 C7        10.3789    1.3524    4.3820 C.ar      1 RES1    0.0000
     12 C8        10.0230    1.1703    3.0628 C.ar      1 RES1    0.0000
     13 C9        10.4370    2.1349    2.0758 C.ar      1 RES1    0.0000
     14 C10       11.0484    3.3179    2.4524 C.ar      1 RES1    0.0000
     15 C11       11.3243    3.5489    3.8387 C.ar      1 RES1    0.0000
     16 C12       11.6832    4.8300    4.3951 C.ar      1 RES1    0.0000
     17 C13       12.1407    4.9382    5.7071 C.ar      1 RES1    0.0000
     18 C14       12.3837    3.7422    6.4576 C.ar      1 RES1    0.0000
     19 C15       11.9236    2.5281    5.9858 C.ar      1 RES1    0.0000
     20 C16       11.2195    2.4744    4.7344 C.ar      1 RES1    0.0000
     21 C17        9.2202   -0.0115    2.6366 C.ar      1 RES1    0.0000
     22 C18        7.9087    0.1164    2.2228 C.ar      1 RES1    0.0000
     23 H5         7.5208    0.9630    2.1964 H         1 RES1    0.0000
     24 C19        7.1639   -0.9789    1.8497 C.ar      1 RES1    0.0000
     25 H6         6.2904   -0.8625    1.5513 H         1 RES1    0.0000
     26 C20        7.6931   -2.2223    1.9113 C.ar      1 RES1    0.0000
     27 H7         7.1699   -2.9627    1.7091 H         1 RES1    0.0000
     28 C21        8.9927   -2.3796    2.2689 C.ar      1 RES1    0.0000
     29 H8         9.3735   -3.2263    2.2689 H         1 RES1    0.0000
     30 C22        9.7596   -1.2662    2.6364 C.ar      1 RES1    0.0000
     31 H9        10.6479   -1.3821    2.8855 H         1 RES1    0.0000
     32 C23       10.2384    1.8537    0.6235 C.ar      1 RES1    0.0000
     33 C24        9.0640    2.2062   -0.0321 C.ar      1 RES1    0.0000
     34 H10        8.3554    2.5618    0.4538 H         1 RES1    0.0000
     35 C25        8.9350    2.0266   -1.4033 C.ar      1 RES1    0.0000
     36 H11        8.1509    2.2789   -1.8373 H         1 RES1    0.0000
     37 C26        9.9669    1.4870   -2.1136 C.ar      1 RES1    0.0000
     38 H12        9.8771    1.3507   -3.0285 H         1 RES1    0.0000
     39 C27       11.1110    1.1465   -1.4995 C.ar      1 RES1    0.0000
     40 H13       11.8120    0.7805   -1.9902 H         1 RES1    0.0000
     41 C28       11.2458    1.3411   -0.1332 C.ar      1 RES1    0.0000
     42 H14       12.0483    1.1159    0.2762 H         1 RES1    0.0000
     43 C29       11.6274    4.2140    1.3969 C.ar      1 RES1    0.0000
     44 C30       10.8616    4.8791    0.4563 C.ar      1 RES1    0.0000
     45 H15        9.9335    4.8405    0.5105 H         1 RES1    0.0000
     46 C31       11.4656    5.6053   -0.5722 C.ar      1 RES1    0.0000
     47 H16       10.9429    6.0379   -1.2084 H         1 RES1    0.0000
     48 C32       12.8168    5.6791   -0.6363 C.ar      1 RES1    0.0000
     49 H17       13.2244    6.1595   -1.3194 H         1 RES1    0.0000
     50 C33       13.5910    5.0375    0.3107 C.ar      1 RES1    0.0000
     51 H18       14.5184    5.0997    0.2713 H         1 RES1    0.0000
     52 C34       12.9917    4.3127    1.3096 C.ar      1 RES1    0.0000
     53 H19       13.5216    3.8773    1.9409 H         1 RES1    0.0000
     54 C35       11.3365    6.0543    3.6278 C.ar      1 RES1    0.0000
     55 C36       10.0135    6.2383    3.2677 C.ar      1 RES1    0.0000
     56 H20        9.3888    5.6027    3.5316 H         1 RES1    0.0000
     57 C37        9.5760    7.3385    2.5254 C.ar      1 RES1    0.0000
     58 H21        8.6864    7.4519    2.2763 H         1 RES1    0.0000
     59 C38       10.5769    8.2541    2.1875 C.ar      1 RES1    0.0000
     60 H22       10.3324    8.9958    1.6844 H         1 RES1    0.0000
     61 C39       11.8417    8.1371    2.5303 C.ar      1 RES1    0.0000
     62 H23       12.4585    8.7888    2.2862 H         1 RES1    0.0000
     63 C40       12.2501    7.0150    3.2702 C.ar      1 RES1    0.0000
     64 H24       13.1415    6.9209    3.5218 H         1 RES1    0.0000
     65 C41       12.4068    6.2778    6.3014 C.ar      1 RES1    0.0000
     66 C42       11.3669    7.1637    6.5034 C.ar      1 RES1    0.0000
     67 H25       10.4983    6.8979    6.3061 H         1 RES1    0.0000
     68 C43       11.5952    8.4636    7.0041 C.ar      1 RES1    0.0000
     69 H26       10.8889    9.0554    7.1274 H         1 RES1    0.0000
     70 C44       12.8576    8.8293    7.3025 C.ar      1 RES1    0.0000
     71 H27       13.0124    9.6986    7.5984 H         1 RES1    0.0000
     72 C45       13.9088    7.9853    7.1841 C.ar      1 RES1    0.0000
     73 H28       14.7610    8.2547    7.4381 H         1 RES1    0.0000
     74 C46       13.6915    6.6884    6.6662 C.ar      1 RES1    0.0000
     75 H29       14.4089    6.1028    6.5676 H         1 RES1    0.0000
     76 C47       13.0641    3.8187    7.7881 C.ar      1 RES1    0.0000
     77 C48       12.4423    4.4370    8.8587 C.ar      1 RES1    0.0000
     78 H30       11.6178    4.8514    8.7329 H         1 RES1    0.0000
     79 C49       13.0169    4.4540   10.0943 C.ar      1 RES1    0.0000
     80 H31       12.5997    4.9015   10.7947 H         1 RES1    0.0000
     81 C50       14.2068    3.8125   10.3063 C.ar      1 RES1    0.0000
     82 H32       14.5689    3.7882   11.1621 H         1 RES1    0.0000
     83 C51       14.8785    3.1978    9.2656 C.ar      1 RES1    0.0000
     84 H33       15.7007    2.7906    9.4086 H         1 RES1    0.0000
     85 C52       14.3002    3.2037    7.9980 C.ar      1 RES1    0.0000
     86 H34       14.7401    2.7966    7.2877 H         1 RES1    0.0000
     87 C53       12.2925    1.2342    6.6472 C.ar      1 RES1    0.0000
     88 C54       11.9579    0.9073    7.9462 C.ar      1 RES1    0.0000
     89 H35       11.4544    1.4986    8.4567 H         1 RES1    0.0000
     90 C55       12.3704   -0.3006    8.4912 C.ar      1 RES1    0.0000
     91 H36       12.1293   -0.5091    9.3642 H         1 RES1    0.0000
     92 C56       13.1266   -1.1964    7.7735 C.ar      1 RES1    0.0000
     93 H37       13.4123   -1.9929    8.1558 H         1 RES1    0.0000
     94 C57       13.4528   -0.8812    6.4615 C.ar      1 RES1    0.0000
     95 H38       13.9519   -1.4765    5.9485 H         1 RES1    0.0000
     96 C58       13.0301    0.3232    5.9239 C.ar      1 RES1    0.0000
     97 H39       13.2517    0.5225    5.0434 H         1 RES1    0.0000
     98 C59        7.5039    2.2104    8.2310 C.ar      1 RES1    0.0000
     99 C60        7.8375    2.6242    9.5066 C.ar      1 RES1    0.0000
    100 C61        7.4003    3.8880    9.9919 C.ar      1 RES1    0.0000
    101 C62        6.7401    4.7875    9.1623 C.ar      1 RES1    0.0000
    102 C63        6.4465    4.4064    7.8100 C.ar      1 RES1    0.0000
    103 C64        5.9973    5.3219    6.8028 C.ar      1 RES1    0.0000
    104 C65        5.5348    4.8336    5.5848 C.ar      1 RES1    0.0000
    105 C66        5.4052    3.4453    5.3761 C.ar      1 RES1    0.0000
    106 C67        5.9464    2.5509    6.2896 C.ar      1 RES1    0.0000
    107 C68        6.6261    3.0618    7.4473 C.ar      1 RES1    0.0000
    108 C69        8.6024    1.7292   10.4265 C.ar      1 RES1    0.0000
    109 C70        9.9416    1.8627   10.6467 C.ar      1 RES1    0.0000
    110 H40       10.4279    2.5169   10.1988 H         1 RES1    0.0000
    111 C71       10.5826    1.0016   11.5567 C.ar      1 RES1    0.0000
    112 H41       11.4971    1.0768   11.7096 H         1 RES1    0.0000
    113 C72        9.8493    0.0508   12.2152 C.ar      1 RES1    0.0000
    114 H42       10.2789   -0.5320   12.7972 H         1 RES1    0.0000
    115 C73        8.5324   -0.0560   12.0376 C.ar      1 RES1    0.0000
    116 H43        8.0434   -0.6865   12.5161 H         1 RES1    0.0000
    117 C74        7.9090    0.7681   11.1466 C.ar      1 RES1    0.0000
    118 H44        6.9922    0.6838   11.0181 H         1 RES1    0.0000
    119 C75        7.6850    4.3058   11.3984 C.ar      1 RES1    0.0000
    120 C76        8.9074    4.8616   11.7316 C.ar      1 RES1    0.0000
    121 H45        9.5851    4.8939   11.0950 H         1 RES1    0.0000
    122 C77        9.1373    5.3684   13.0044 C.ar      1 RES1    0.0000
    123 H46        9.9598    5.7422   13.2214 H         1 RES1    0.0000
    124 C78        8.1518    5.3088   13.9292 C.ar      1 RES1    0.0000
    125 H47        8.3000    5.6604   14.7776 H         1 RES1    0.0000
    126 C79        6.9590    4.7548   13.6407 C.ar      1 RES1    0.0000
    127 H48        6.2954    4.7093   14.2942 H         1 RES1    0.0000
    128 C80        6.7191    4.2475   12.3740 C.ar      1 RES1    0.0000
    129 H49        5.8943    3.8649   12.1809 H         1 RES1    0.0000
    130 C81        6.1327    6.0133    9.7598 C.ar      1 RES1    0.0000
    131 C82        6.8414    7.0452   10.2718 C.ar      1 RES1    0.0000
    132 H50        7.7682    7.0458   10.1954 H         1 RES1    0.0000
    133 C83        6.1950    8.1231   10.9229 C.ar      1 RES1    0.0000
    134 H51        6.6810    8.8457   11.2484 H         1 RES1    0.0000
    135 C84        4.8624    8.0711   11.0536 C.ar      1 RES1    0.0000
    136 H52        4.4400    8.7573   11.5148 H         1 RES1    0.0000
    137 C85        4.0853    7.0576   10.5406 C.ar      1 RES1    0.0000
    138 H53        3.1604    7.0678   10.6319 H         1 RES1    0.0000
    139 C86        4.7305    6.0268    9.8871 C.ar      1 RES1    0.0000
    140 H54        4.2310    5.3331    9.5221 H         1 RES1    0.0000
    141 C87        6.1945    6.7852    6.9991 C.ar      1 RES1    0.0000
    142 C88        7.4745    7.2793    7.1668 C.ar      1 RES1    0.0000
    143 H55        8.2008    6.7003    7.1348 H         1 RES1    0.0000
    144 C89        7.6843    8.6364    7.3863 C.ar      1 RES1    0.0000
    145 H56        8.5431    8.9727    7.4998 H         1 RES1    0.0000
    146 C90        6.6008    9.4670    7.4258 C.ar      1 RES1    0.0000
    147 H57        6.7390   10.3735    7.5738 H         1 RES1    0.0000
    148 C91        5.3239    9.0213    7.2581 C.ar      1 RES1    0.0000
    149 H58        4.5962    9.5994    7.2976 H         1 RES1    0.0000
    150 C92        5.1585    7.6612    7.0287 C.ar      1 RES1    0.0000
    151 H59        4.2989    7.3353    6.8882 H         1 RES1    0.0000
    152 C93        5.1622    5.7931    4.4668 C.ar      1 RES1    0.0000
    153 C94        6.1431    6.5726    3.8843 C.ar      1 RES1    0.0000
    154 H60        7.0161    6.5220    4.2000 H         1 RES1    0.0000
    155 C95        5.8381    7.4499    2.8115 C.ar      1 RES1    0.0000
    156 H61        6.4955    7.9821    2.4218 H         1 RES1    0.0000
    157 C96        4.5771    7.4868    2.3799 C.ar      1 RES1    0.0000
    158 H62        4.3777    8.0593    1.6746 H         1 RES1    0.0000
    159 C97        3.5683    6.7469    2.8953 C.ar      1 RES1    0.0000
    160 H63        2.7057    6.8028    2.5525 H         1 RES1    0.0000
    161 C98        3.8788    5.8692    3.9903 C.ar      1 RES1    0.0000
    162 H64        3.2086    5.3522    4.3751 H         1 RES1    0.0000
    163 C99        4.7667    2.9255    4.1198 C.ar      1 RES1    0.0000
    164 C100       5.4496    2.9896    2.9203 C.ar      1 RES1    0.0000
    165 H65        6.2962    3.3729    2.8882 H         1 RES1    0.0000
    166 C101       4.8763    2.4840    1.7653 C.ar      1 RES1    0.0000
    167 H66        5.3495    2.5149    0.9655 H         1 RES1    0.0000
    168 C102       3.6366    1.9478    1.7880 C.ar      1 RES1    0.0000
    169 H67        3.2601    1.6168    1.0038 H         1 RES1    0.0000
    170 C103       2.9305    1.8898    2.9669 C.ar      1 RES1    0.0000
    171 H68        2.0742    1.5271    2.9841 H         1 RES1    0.0000
    172 C104       3.5010    2.3750    4.1243 C.ar      1 RES1    0.0000
    173 H69        3.0259    2.3298    4.9221 H         1 RES1    0.0000
    174 C105       5.6486    1.0995    6.2277 C.ar      1 RES1    0.0000
    175 C106       5.9976    0.2778    5.1771 C.ar      1 RES1    0.0000
    176 H70        6.4693    0.6341    4.4599 H         1 RES1    0.0000
    177 C107       5.6673   -1.0655    5.1593 C.ar      1 RES1    0.0000
    178 H71        5.9169   -1.6029    4.4441 H         1 RES1    0.0000
    179 C108       4.9645   -1.5941    6.2173 C.ar      1 RES1    0.0000
    180 H72        4.7337   -2.4948    6.2075 H         1 RES1    0.0000
    181 C109       4.6004   -0.8179    7.2778 C.ar      1 RES1    0.0000
    182 H73        4.1309   -1.1848    7.9906 H         1 RES1    0.0000
    183 C110       4.9412    0.5304    7.2798 C.ar      1 RES1    0.0000
    184 H74        4.6895    1.0630    7.9997 H         1 RES1    0.0000
    185 C111       1.0783   -5.2744   17.8204 C.ar      2 RES2    0.0000
    186 C112       0.4293   -4.3974   18.6794 C.ar      2 RES2    0.0000
    187 H75        0.4687   -3.4890   18.4856 H         2 RES2    0.0000
    188 C113      -0.2808   -4.7954   19.8223 C.ar      2 RES2    0.0000
    189 C114      -0.3149   -6.1485   20.0933 C.ar      2 RES2    0.0000
    190 H76       -0.7590   -6.4570   20.8494 H         2 RES2    0.0000
    191 C115       0.3040   -7.0403   19.2545 C.ar      2 RES2    0.0000
    192 H77        0.2587   -7.9505   19.4469 H         2 RES2    0.0000
    193 C116       0.9954   -6.6212   18.1238 C.ar      2 RES2    0.0000
    194 H78        1.4046   -7.2471   17.5706 H         2 RES2    0.0000
    195 C117       1.7749   -4.6324   16.6332 C.ar      2 RES2    0.0000
    196 C118       1.3709   -4.8135   15.3308 C.ar      2 RES2    0.0000
    197 C119       1.7648   -3.8625   14.3396 C.ar      2 RES2    0.0000
    198 C120       2.4418   -2.7035   14.6693 C.ar      2 RES2    0.0000
    199 C121       2.8707   -2.4895   16.0255 C.ar      2 RES2    0.0000
    200 C122       3.4817   -1.2818   16.5318 C.ar      2 RES2    0.0000
    201 C123       3.9200   -1.2172   17.8493 C.ar      2 RES2    0.0000
    202 C124       3.9525   -2.3911   18.6617 C.ar      2 RES2    0.0000
    203 C125       3.4053   -3.5617   18.1943 C.ar      2 RES2    0.0000
    204 C126       2.6911   -3.5669   16.9471 C.ar      2 RES2    0.0000
    205 C127       0.5151   -5.9714   14.9197 C.ar      2 RES2    0.0000
    206 C128      -0.7639   -5.7738   14.4397 C.ar      2 RES2    0.0000
    207 H79       -1.0953   -4.9079   14.3727 H         2 RES2    0.0000
    208 C129      -1.5583   -6.8318   14.0577 C.ar      2 RES2    0.0000
    209 H80       -2.4143   -6.6768   13.7265 H         2 RES2    0.0000
    210 C130      -1.0847   -8.1010   14.1685 C.ar      2 RES2    0.0000
    211 H81       -1.6358   -8.8179   13.9490 H         2 RES2    0.0000
    212 C131       0.1938   -8.3382   14.5976 C.ar      2 RES2    0.0000
    213 H82        0.5231   -9.2073   14.6444 H         2 RES2    0.0000
    214 C132       0.9949   -7.2573   14.9636 C.ar      2 RES2    0.0000
    215 H83        1.8689   -7.4105   15.2427 H         2 RES2    0.0000
    216 C133       1.4281   -4.1339   12.9057 C.ar      2 RES2    0.0000
    217 C134       0.4567   -3.4499   12.2127 C.ar      2 RES2    0.0000
    218 H84       -0.0578   -2.8093   12.6517 H         2 RES2    0.0000
    219 C135       0.2337   -3.7069   10.8489 C.ar      2 RES2    0.0000
    220 H85       -0.4180   -3.2300   10.3877 H         2 RES2    0.0000
    221 C136       0.9658   -4.6504   10.2102 C.ar      2 RES2    0.0000
    222 H86        0.8153   -4.8130    9.3075 H         2 RES2    0.0000
    223 C137       1.9138   -5.3577   10.8662 C.ar      2 RES2    0.0000
    224 H87        2.4186   -5.9973   10.4198 H         2 RES2    0.0000
    225 C138       2.1224   -5.1072   12.2275 C.ar      2 RES2    0.0000
    226 H88        2.7514   -5.6135   12.6863 H         2 RES2    0.0000
    227 C139       2.8257   -1.7998   13.5272 C.ar      2 RES2    0.0000
    228 C140       2.0189   -0.7926   13.0611 C.ar      2 RES2    0.0000
    229 H89        1.2248   -0.6032   13.5050 H         2 RES2    0.0000
    230 C141       2.3648   -0.0513   11.9365 C.ar      2 RES2    0.0000
    231 H90        1.8182    0.6431   11.6455 H         2 RES2    0.0000
    232 C142       3.4841   -0.3437   11.2854 C.ar      2 RES2    0.0000
    233 H91        3.7142    0.1595   10.5382 H         2 RES2    0.0000
    234 C143       4.3064   -1.3579   11.6751 C.ar      2 RES2    0.0000
    235 H92        5.0719   -1.5630   11.1893 H         2 RES2    0.0000
    236 C144       3.9675   -2.0864   12.8318 C.ar      2 RES2    0.0000
    237 H93        4.5260   -2.7692   13.1252 H         2 RES2    0.0000
    238 C145       3.6456   -0.0400   15.7160 C.ar      2 RES2    0.0000
    239 C146       2.6599    0.8994   15.6287 C.ar      2 RES2    0.0000
    240 H94        1.8432    0.7356   16.0428 H         2 RES2    0.0000
    241 C147       2.8354    2.0901   14.9428 C.ar      2 RES2    0.0000
    242 H95        2.1521    2.7188   14.9133 H         2 RES2    0.0000
    243 C148       4.0048    2.3206   14.3238 C.ar      2 RES2    0.0000
    244 H96        4.1275    3.1159   13.8528 H         2 RES2    0.0000
    245 C149       5.0104    1.4070   14.3731 C.ar      2 RES2    0.0000
    246 H97        5.8094    1.5722   13.9292 H         2 RES2    0.0000
    247 C150       4.8463    0.2282   15.0876 C.ar      2 RES2    0.0000
    248 H98        5.5466   -0.3822   15.1431 H         2 RES2    0.0000
    249 C151       4.4437    0.0533   18.4274 C.ar      2 RES2    0.0000
    250 C152       3.5893    1.1077   18.6935 C.ar      2 RES2    0.0000
    251 H99        2.6871    1.0278   18.4861 H         2 RES2    0.0000
    252 C153       4.0579    2.2816   19.2661 C.ar      2 RES2    0.0000
    253 H100       3.4651    2.9817   19.4190 H         2 RES2    0.0000
    254 C154       5.3493    2.4294   19.5991 C.ar      2 RES2    0.0000
    255 H101       5.6556    3.2170   19.9863 H         2 RES2    0.0000
    256 C155       6.2019    1.3928   19.3599 C.ar      2 RES2    0.0000
    257 H102       7.0953    1.4782   19.6040 H         2 RES2    0.0000
    258 C156       5.7736    0.2089   18.7601 C.ar      2 RES2    0.0000
    259 H103       6.3818   -0.4733   18.5855 H         2 RES2    0.0000
    260 C157       4.5639   -2.3270   20.0326 C.ar      2 RES2    0.0000
    261 C158       3.9527   -1.5716   21.0189 C.ar      2 RES2    0.0000
    262 H104       3.1692   -1.1066   20.8295 H         2 RES2    0.0000
    263 C159       4.5031   -1.5055   22.2799 C.ar      2 RES2    0.0000
    264 H105       4.0941   -0.9859   22.9359 H         2 RES2    0.0000
    265 C160       5.6305   -2.1894   22.5758 C.ar      2 RES2    0.0000
    266 H106       5.9772   -2.1498   23.4365 H         2 RES2    0.0000
    267 C161       6.2726   -2.9421   21.6214 C.ar      2 RES2    0.0000
    268 H107       7.0555   -3.3990   21.8261 H         2 RES2    0.0000
    269 C162       5.7289   -3.0055   20.3333 C.ar      2 RES2    0.0000
    270 H108       6.1541   -3.5067   19.6760 H         2 RES2    0.0000
    271 C163       3.7077   -4.8726   18.8474 C.ar      2 RES2    0.0000
    272 C164       3.3533   -5.1912   20.1451 C.ar      2 RES2    0.0000
    273 H109       2.8436   -4.5937   20.6428 H         2 RES2    0.0000
    274 C165       3.7429   -6.3751   20.7039 C.ar      2 RES2    0.0000
    275 H110       3.4893   -6.5810   21.5770 H         2 RES2    0.0000
    276 C166       4.5050   -7.2667   19.9937 C.ar      2 RES2    0.0000
    277 H111       4.7787   -8.0627   20.3858 H         2 RES2    0.0000
    278 C167       4.8676   -6.9778   18.6940 C.ar      2 RES2    0.0000
    279 H112       5.3796   -7.5785   18.2032 H         2 RES2    0.0000
    280 C168       4.4603   -5.7809   18.1292 C.ar      2 RES2    0.0000
    281 H113       4.6977   -5.5879   17.2512 H         2 RES2    0.0000
    282 C169      -0.9368   -3.7035   20.5996 C.ar      2 RES2    0.0000
    283 C170      -0.6124   -3.3502   21.9057 C.ar      2 RES2    0.0000
    284 C171      -1.0807   -2.1159   22.4481 C.ar      2 RES2    0.0000
    285 C172      -1.6635   -1.1650   21.6389 C.ar      2 RES2    0.0000
    286 C173      -1.8348   -1.4555   20.2366 C.ar      2 RES2    0.0000
    287 C174      -2.0533   -0.4429   19.2393 C.ar      2 RES2    0.0000
    288 C175      -2.4753   -0.8243   17.9751 C.ar      2 RES2    0.0000
    289 C176      -2.8076   -2.1955   17.7225 C.ar      2 RES2    0.0000
    290 C177      -2.4306   -3.1741   18.6165 C.ar      2 RES2    0.0000
    291 C178      -1.7463   -2.7830   19.8314 C.ar      2 RES2    0.0000
    292 C179       0.2262   -4.2577   22.7512 C.ar      2 RES2    0.0000
    293 C180       1.5692   -4.0230   22.9346 C.ar      2 RES2    0.0000
    294 H114       1.9793   -3.3081   22.5038 H         2 RES2    0.0000
    295 C181       2.3192   -4.8624   23.7719 C.ar      2 RES2    0.0000
    296 H115       3.2314   -4.7136   23.8829 H         2 RES2    0.0000
    297 C182       1.7185   -5.8888   24.4181 C.ar      2 RES2    0.0000
    298 H116       2.2219   -6.4476   24.9656 H         2 RES2    0.0000
    299 C183       0.3913   -6.1104   24.2726 C.ar      2 RES2    0.0000
    300 H117      -0.0187   -6.8039   24.7387 H         2 RES2    0.0000
    301 C184      -0.3543   -5.3087   23.4341 C.ar      2 RES2    0.0000
    302 H118      -1.2633   -5.4771   23.3268 H         2 RES2    0.0000
    303 C185      -0.9464   -1.7895   23.9024 C.ar      2 RES2    0.0000
    304 C186       0.2342   -1.2963   24.4149 C.ar      2 RES2    0.0000
    305 H119       1.0046   -1.3169   23.8950 H         2 RES2    0.0000
    306 C187       0.2831   -0.7730   25.6906 C.ar      2 RES2    0.0000
    307 H120       1.0821   -0.4351   26.0261 H         2 RES2    0.0000
    308 C188      -0.8397   -0.7562   26.4601 C.ar      2 RES2    0.0000
    309 H121      -0.8066   -0.3803   27.3110 H         2 RES2    0.0000
    310 C189      -2.0048   -1.2727   26.0014 C.ar      2 RES2    0.0000
    311 H122      -2.7620   -1.2807   26.5440 H         2 RES2    0.0000
    312 C190      -2.0582   -1.7922   24.7229 C.ar      2 RES2    0.0000
    313 H123      -2.8561   -2.1501   24.4082 H         2 RES2    0.0000
    314 C191      -2.3421    0.0349   22.2212 C.ar      2 RES2    0.0000
    315 C192      -1.6880    1.0341   22.9253 C.ar      2 RES2    0.0000
    316 H124      -0.7605    1.0382   22.9864 H         2 RES2    0.0000
    317 C193      -2.4407    2.0323   23.5401 C.ar      2 RES2    0.0000
    318 H125      -2.0096    2.7062   24.0111 H         2 RES2    0.0000
    319 C194      -3.8122    2.0291   23.4612 C.ar      2 RES2    0.0000
    320 H126      -4.3048    2.6899   23.8952 H         2 RES2    0.0000
    321 C195      -4.4412    1.0750   22.7534 C.ar      2 RES2    0.0000
    322 H127      -5.3690    1.0837   22.6868 H         2 RES2    0.0000
    323 C196      -3.7259    0.0875   22.1321 C.ar      2 RES2    0.0000
    324 H128      -4.1766   -0.5610   21.6399 H         2 RES2    0.0000
    325 C197      -1.5843    0.9417   19.5468 C.ar      2 RES2    0.0000
    326 C198      -0.2644    1.1269   19.9029 C.ar      2 RES2    0.0000
    327 H129       0.3155    0.4006   19.9017 H         2 RES2    0.0000
    328 C199       0.2073    2.3677   20.2598 C.ar      2 RES2    0.0000
    329 H130       1.0997    2.4745   20.5020 H         2 RES2    0.0000
    330 C200      -0.6196    3.4286   20.2600 C.ar      2 RES2    0.0000
    331 H131      -0.2972    4.2667   20.5091 H         2 RES2    0.0000
    332 C201      -1.9159    3.2936   19.8950 C.ar      2 RES2    0.0000
    333 H132      -2.4807    4.0307   19.8950 H         2 RES2    0.0000
    334 C202      -2.4009    2.0440   19.5243 C.ar      2 RES2    0.0000
    335 H133      -3.2873    1.9566   19.2577 H         2 RES2    0.0000
    336 C203      -2.5016    0.1938   16.8815 C.ar      2 RES2    0.0000
    337 C204      -1.3281    0.6021   16.3128 C.ar      2 RES2    0.0000
    338 H134      -0.5319    0.2125   16.5960 H         2 RES2    0.0000
    339 C205      -1.2853    1.5609   15.3424 C.ar      2 RES2    0.0000
    340 H135      -0.4714    1.8157   14.9675 H         2 RES2    0.0000
    341 C206      -2.4288    2.1405   14.9280 C.ar      2 RES2    0.0000
    342 H136      -2.3984    2.8032   14.2745 H         2 RES2    0.0000
    343 C207      -3.6270    1.7720   15.4509 C.ar      2 RES2    0.0000
    344 H137      -4.4135    2.1745   15.1623 H         2 RES2    0.0000
    345 C208      -3.6614    0.7753   16.4315 C.ar      2 RES2    0.0000
    346 H138      -4.4778    0.5014   16.7822 H         2 RES2    0.0000
    347 C209      -3.5317   -2.5641   16.4758 C.ar      2 RES2    0.0000
    348 C210      -2.8799   -2.6478   15.2657 C.ar      2 RES2    0.0000
    349 H139      -1.9792   -2.4227   15.2144 H         2 RES2    0.0000
    350 C211      -3.5424   -3.0602   14.1290 C.ar      2 RES2    0.0000
    351 H140      -3.0797   -3.1321   13.3252 H         2 RES2    0.0000
    352 C212      -4.8666   -3.3605   14.1759 C.ar      2 RES2    0.0000
    353 H141      -5.3088   -3.6400   13.4064 H         2 RES2    0.0000
    354 C213      -5.5511   -3.2537   15.3621 C.ar      2 RES2    0.0000
    355 H142      -6.4611   -3.4461   15.3966 H         2 RES2    0.0000
    356 C214      -4.8802   -2.8591   16.5079 C.ar      2 RES2    0.0000
    357 H143      -5.3452   -2.7919   17.3107 H         2 RES2    0.0000
    358 C215      -2.8581   -4.6067   18.5065 C.ar      2 RES2    0.0000
    359 C216      -2.5668   -5.4109   17.4261 C.ar      2 RES2    0.0000
    360 H144      -2.0843   -5.0634   16.7114 H         2 RES2    0.0000
    361 C217      -2.9780   -6.7273   17.3893 C.ar      2 RES2    0.0000
    362 H145      -2.7603   -7.2602   16.6593 H         2 RES2    0.0000
    363 C218      -3.7062   -7.2555   18.4252 C.ar      2 RES2    0.0000
    364 H146      -3.9917   -8.1392   18.3956 H         2 RES2    0.0000
    365 C219      -4.0117   -6.4697   19.5029 C.ar      2 RES2    0.0000
    366 H147      -4.5039   -6.8241   20.2107 H         2 RES2    0.0000
    367 C220      -3.5938   -5.1503   19.5495 C.ar      2 RES2    0.0000
    368 H148      -3.8077   -4.6256   20.2859 H         2 RES2    0.0000
@<TRIPOS>BOND
     1    1    2 ar
     2    2    3 1
     3    4    2 ar
     4    5    4 ar
     5    6    5 1
     6    7    5 ar
     7    8    7 1
     8    9    1 ar
     9   10    9 1
    10   11    1 1
    11   12   11 ar
    12   13   12 ar
    13   14   13 ar
    14   15   14 ar
    15   16   15 ar
    16   17   16 ar
    17   18   17 ar
    18   19   18 ar
    19   20   11 ar
    20   21   12 1
    21   22   21 ar
    22   23   22 1
    23   24   22 ar
    24   25   24 1
    25   26   24 ar
    26   27   26 1
    27   28   26 ar
    28   29   28 1
    29   30   21 ar
    30   31   30 1
    31   32   13 1
    32   33   32 ar
    33   34   33 1
    34   35   33 ar
    35   36   35 1
    36   37   35 ar
    37   38   37 1
    38   39   37 ar
    39   40   39 1
    40   41   32 ar
    41   42   41 1
    42   43   14 1
    43   44   43 ar
    44   45   44 1
    45   46   44 ar
    46   47   46 1
    47   48   46 ar
    48   49   48 1
    49   50   48 ar
    50   51   50 1
    51   52   43 ar
    52   53   52 1
    53   54   16 1
    54   55   54 ar
    55   56   55 1
    56   57   55 ar
    57   58   57 1
    58   59   57 ar
    59   60   59 1
    60   61   59 ar
    61   62   61 1
    62   63   54 ar
    63   64   63 1
    64   65   17 1
    65   66   65 ar
    66   67   66 1
    67   68   66 ar
    68   69   68 1
    69   70   68 ar
    70   71   70 1
    71   72   70 ar
    72   73   72 1
    73   74   65 ar
    74   75   74 1
    75   76   18 1
    76   77   76 ar
    77   78   77 1
    78   79   77 ar
    79   80   79 1
    80   81   79 ar
    81   82   81 1
    82   83   81 ar
    83   84   83 1
    84   85   76 ar
    85   86   85 1
    86   87   19 1
    87   88   87 ar
    88   89   88 1
    89   90   88 ar
    90   91   90 1
    91   92   90 ar
    92   93   92 1
    93   94   92 ar
    94   95   94 1
    95   96   87 ar
    96   97   96 1
    97   98    4 1
    98   99   98 ar
    99  100   99 ar
   100  101  100 ar
   101  102  101 ar
   102  103  102 ar
   103  104  103 ar
   104  105  104 ar
   105  106  105 ar
   106  107   98 ar
   107  108   99 1
   108  109  108 ar
   109  110  109 1
   110  111  109 ar
   111  112  111 1
   112  113  111 ar
   113  114  113 1
   114  115  113 ar
   115  116  115 1
   116  117  108 ar
   117  118  117 1
   118  119  100 1
   119  120  119 ar
   120  121  120 1
   121  122  120 ar
   122  123  122 1
   123  124  122 ar
   124  125  124 1
   125  126  124 ar
   126  127  126 1
   127  128  119 ar
   128  129  128 1
   129  130  101 1
   130  131  130 ar
   131  132  131 1
   132  133  131 ar
   133  134  133 1
   134  135  133 ar
   135  136  135 1
   136  137  135 ar
   137  138  137 1
   138  139  130 ar
   139  140  139 1
   140  141  103 1
   141  142  141 ar
   142  143  142 1
   143  144  142 ar
   144  145  144 1
   145  146  144 ar
   146  147  146 1
   147  148  146 ar
   148  149  148 1
   149  150  141 ar
   150  151  150 1
   151  152  104 1
   152  153  152 ar
   153  154  153 1
   154  155  153 ar
   155  156  155 1
   156  157  155 ar
   157  158  157 1
   158  159  157 ar
   159  160  159 1
   160  161  152 ar
   161  162  161 1
   162  163  105 1
   163  164  163 ar
   164  165  164 1
   165  166  164 ar
   166  167  166 1
   167  168  166 ar
   168  169  168 1
   169  170  168 ar
   170  171  170 1
   171  172  163 ar
   172  173  172 1
   173  174  106 1
   174  175  174 ar
   175  176  175 1
   176  177  175 ar
   177  178  177 1
   178  179  177 ar
   179  180  179 1
   180  181  179 ar
   181  182  181 1
   182  183  174 ar
   183  184  183 1
   184  185  186 ar
   185  186  187 1
   186  188  186 ar
   187  189  188 ar
   188  190  189 1
   189  191  189 ar
   190  192  191 1
   191  193  185 ar
   192  194  193 1
   193  195  185 1
   194  196  195 ar
   195  197  196 ar
   196  198  197 ar
   197  199  198 ar
   198  200  199 ar
   199  201  200 ar
   200  202  201 ar
   201  203  202 ar
   202  204  195 ar
   203  205  196 1
   204  206  205 ar
   205  207  206 1
   206  208  206 ar
   207  209  208 1
   208  210  208 ar
   209  211  210 1
   210  212  210 ar
   211  213  212 1
   212  214  205 ar
   213  215  214 1
   214  216  197 1
   215  217  216 ar
   216  218  217 1
   217  219  217 ar
   218  220  219 1
   219  221  219 ar
   220  222  221 1
   221  223  221 ar
   222  224  223 1
   223  225  216 ar
   224  226  225 1
   225  227  198 1
   226  228  227 ar
   227  229  228 1
   228  230  228 ar
   229  231  230 1
   230  232  230 ar
   231  233  232 1
   232  234  232 ar
   233  235  234 1
   234  236  227 ar
   235  237  236 1
   236  238  200 1
   237  239  238 ar
   238  240  239 1
   239  241  239 ar
   240  242  241 1
   241  243  241 ar
   242  244  243 1
   243  245  243 ar
   244  246  245 1
   245  247  238 ar
   246  248  247 1
   247  249  201 1
   248  250  249 ar
   249  251  250 1
   250  252  250 ar
   251  253  252 1
   252  254  252 ar
   253  255  254 1
   254  256  254 ar
   255  257  256 1
   256  258  249 ar
   257  259  258 1
   258  260  202 1
   259  261  260 ar
   260  262  261 1
   261  263  261 ar
   262  264  263 1
   263  265  263 ar
   264  266  265 1
   265  267  265 ar
   266  268  267 1
   267  269  260 ar
   268  270  269 1
   269  271  203 1
   270  272  271 ar
   271  273  272 1
   272  274  272 ar
   273  275  274 1
   274  276  274 ar
   275  277  276 1
   276  278  276 ar
   277  279  278 1
   278  280  271 ar
   279  281  280 1
   280  282  188 1
   281  283  282 ar
   282  284  283 ar
   283  285  284 ar
   284  286  285 ar
   285  287  286 ar
   286  288  287 ar
   287  289  288 ar
   288  290  289 ar
   289  291  282 ar
   290  292  283 1
   291  293  292 ar
   292  294  293 1
   293  295  293 ar
   294  296  295 1
   295  297  295 ar
   296  298  297 1
   297  299  297 ar
   298  300  299 1
   299  301  292 ar
   300  302  301 1
   301  303  284 1
   302  304  303 ar
   303  305  304 1
   304  306  304 ar
   305  307  306 1
   306  308  306 ar
   307  309  308 1
   308  310  308 ar
   309  311  310 1
   310  312  303 ar
   311  313  312 1
   312  314  285 1
   313  315  314 ar
   314  316  315 1
   315  317  315 ar
   316  318  317 1
   317  319  317 ar
   318  320  319 1
   319  321  319 ar
   320  322  321 1
   321  323  314 ar
   322  324  323 1
   323  325  287 1
   324  326  325 ar
   325  327  326 1
   326  328  326 ar
   327  329  328 1
   328  330  328 ar
   329  331  330 1
   330  332  330 ar
   331  333  332 1
   332  334  325 ar
   333  335  334 1
   334  336  288 1
   335  337  336 ar
   336  338  337 1
   337  339  337 ar
   338  340  339 1
   339  341  339 ar
   340  342  341 1
   341  343  341 ar
   342  344  343 1
   343  345  336 ar
   344  346  345 1
   345  347  289 1
   346  348  347 ar
   347  349  348 1
   348  350  348 ar
   349  351  350 1
   350  352  350 ar
   351  353  352 1
   352  354  352 ar
   353  355  354 1
   354  356  347 ar
   355  357  356 1
   356  358  290 1
   357  359  358 ar
   358  360  359 1
   359  361  359 ar
   360  362  361 1
   361  363  361 ar
   362  364  363 1
   363  365  363 ar
   364  366  365 1
   365  367  358 ar
   366  368  367 1
   367    7    9 ar
   368   15   20 ar
   369   19   20 ar
   370   28   30 ar
   371   39   41 ar
   372   50   52 ar
   373   61   63 ar
   374   72   74 ar
   375   83   85 ar
   376   94   96 ar
   377  102  107 ar
   378  106  107 ar
   379  115  117 ar
   380  126  128 ar
   381  137  139 ar
   382  148  150 ar
   383  159  161 ar
   384  170  172 ar
   385  181  183 ar
   386  191  193 ar
   387  199  204 ar
   388  203  204 ar
   389  212  214 ar
   390  223  225 ar
   391  234  236 ar
   392  245  247 ar
   393  256  258 ar
   394  267  269 ar
   395  278  280 ar
   396  286  291 ar
   397  290  291 ar
   398  299  301 ar
   399  310  312 ar
   400  321  323 ar
   401  332  334 ar
   402  343  345 ar
   403  354  356 ar
   404  365  367 ar
@<TRIPOS>SUBSTRUCTURE
     1 RES1 1
     2 RES2 185

@<TRIPOS>CRYSIN
  12.4330   25.5070   27.7360 114.8900 100.0800  90.6100   2 1

