# MOL2 file generated by ConQuest
# Please check atom types

@<TRIPOS>MOLECULE
ROKYEW
    38    41     1
SMALL
NO_CHARGES
****
Generated from CSD

@<TRIPOS>ATOM
      1 C1         1.7535    3.3563    5.1217 C.ar      1 RES1    0.0000
      2 C2         1.9037    3.6273    6.4566 C.ar      1 RES1    0.0000
      3 C3         1.9646    2.6127    7.4288 C.ar      1 RES1    0.0000
      4 C4         1.8623    1.2968    7.0518 C.ar      1 RES1    0.0000
      5 C5         1.6545   -0.3931    5.2690 C.ar      1 RES1    0.0000
      6 C6         1.5591   -0.7302    3.9531 C.ar      1 RES1    0.0000
      7 C7         1.5206    0.2733    2.9827 C.ar      1 RES1    0.0000
      8 C8         1.5712    1.5958    3.3307 C.ar      1 RES1    0.0000
      9 C9         1.6711    1.9878    4.7007 C.ar      1 RES1    0.0000
     10 C10        1.7257    0.9609    5.6847 C.ar      1 RES1    0.0000
     11 C11        1.6845    4.4818    4.1473 C.ar      1 RES1    0.0000
     12 C12        0.6010    4.6375    3.2861 C.ar      1 RES1    0.0000
     13 C13        0.5350    5.7081    2.4079 C.ar      1 RES1    0.0000
     14 C14        1.5439    6.6689    2.3608 C.ar      1 RES1    0.0000
     15 C15        2.6202    6.5110    3.2338 C.ar      1 RES1    0.0000
     16 C16        2.6924    5.4348    4.1093 C.ar      1 RES1    0.0000
     17 C17        1.4857    7.7866    1.3849 C.ar      1 RES1    0.0000
     18 C18        0.2659    8.2670    0.9061 C.ar      1 RES1    0.0000
     19 C19        0.2123    9.2593   -0.0559 C.ar      1 RES1    0.0000
     20 C20        1.3719    9.7901   -0.5747 C.ar      1 RES1    0.0000
     21 C21        2.5866    9.3544   -0.0903 C.ar      1 RES1    0.0000
     22 C22        2.6450    8.3667    0.8849 C.ar      1 RES1    0.0000
     23 H1         1.9700    4.5333    6.7358 H         1 RES1    0.0000
     24 H2         2.0764    2.8378    8.3453 H         1 RES1    0.0000
     25 H3         1.8826    0.6115    7.7091 H         1 RES1    0.0000
     26 H4         1.6735   -1.0818    5.9234 H         1 RES1    0.0000
     27 H5         1.5194   -1.6429    3.6958 H         1 RES1    0.0000
     28 H6         1.4574    0.0336    2.0654 H         1 RES1    0.0000
     29 H7         1.5392    2.2599    2.6527 H         1 RES1    0.0000
     30 H8        -0.1037    4.0002    3.3001 H         1 RES1    0.0000
     31 H9        -0.2129    5.7876    1.8276 H         1 RES1    0.0000
     32 H10        3.3198    7.1539    3.2302 H         1 RES1    0.0000
     33 H11        3.4406    5.3497    4.6886 H         1 RES1    0.0000
     34 H12       -0.5434    7.9064    1.2487 H         1 RES1    0.0000
     35 H13       -0.6289    9.5762   -0.3608 H         1 RES1    0.0000
     36 H14        1.3354   10.4475   -1.2585 H         1 RES1    0.0000
     37 H15        3.3908    9.7318   -0.4265 H         1 RES1    0.0000
     38 H16        3.4893    8.0834    1.2152 H         1 RES1    0.0000
@<TRIPOS>BOND
     1    1    2 ar
     2    2    3 ar
     3    3    4 ar
     4    4   10 ar
     5    5    6 ar
     6    6    7 ar
     7    7    8 ar
     8    8    9 ar
     9    9    1 ar
    10   10    5 ar
    11   11    1 1
    12   12   11 ar
    13   13   12 ar
    14   14   13 ar
    15   15   14 ar
    16   16   11 ar
    17   17   14 1
    18   18   17 ar
    19   19   18 ar
    20   20   19 ar
    21   21   20 ar
    22   22   17 ar
    23   23    2 1
    24   24    3 1
    25   25    4 1
    26   26    5 1
    27   27    6 1
    28   28    7 1
    29   29    8 1
    30   30   12 1
    31   31   13 1
    32   32   15 1
    33   33   16 1
    34   34   18 1
    35   35   19 1
    36   36   20 1
    37   37   21 1
    38   38   22 1
    39    9   10 ar
    40   15   16 ar
    41   21   22 ar
@<TRIPOS>SUBSTRUCTURE
     1 RES1 1

@<TRIPOS>CRYSIN
   9.4942   11.1989   14.3020  90.0000 102.1160  90.0000  14 1

