# MOL2 file generated by ConQuest
# Please check atom types

@<TRIPOS>MOLECULE
ROMDAZ
    46    49     1
SMALL
NO_CHARGES
****
Generated from CSD

@<TRIPOS>ATOM
      1 C1        -0.1557    2.0604    4.4977 C.ar      1 RES1    0.0000
      2 C2         0.4500    1.1581    5.4040 C.ar      1 RES1    0.0000
      3 H1         1.1103    0.5657    5.0945 H         1 RES1    0.0000
      4 C3         0.0903    1.1348    6.7251 C.ar      1 RES1    0.0000
      5 H2         0.5195    0.5414    7.3144 H         1 RES1    0.0000
      6 C4        -0.9110    1.9869    7.2051 C.ar      1 RES1    0.0000
      7 H3        -1.1527    1.9629    8.1131 H         1 RES1    0.0000
      8 C5        -1.5301    2.8446    6.3639 C.ar      1 RES1    0.0000
      9 H4        -2.2158    3.3966    6.6934 H         1 RES1    0.0000
     10 C6        -1.1670    2.9299    4.9946 C.ar      1 RES1    0.0000
     11 C7        -1.7745    3.8570    4.1214 C.ar      1 RES1    0.0000
     12 H5        -2.4467    4.4306    4.4431 H         1 RES1    0.0000
     13 C8        -1.3944    3.9263    2.8187 C.ar      1 RES1    0.0000
     14 H6        -1.7915    4.5612    2.2503 H         1 RES1    0.0000
     15 C9        -0.4127    3.0579    2.3131 C.ar      1 RES1    0.0000
     16 H7        -0.1692    3.1198    1.4069 H         1 RES1    0.0000
     17 C10        0.2002    2.1212    3.1089 C.ar      1 RES1    0.0000
     18 C11        1.2214    1.2078    2.5687 C.2       1 RES1    0.0000
     19 H8         2.0195    1.1292    3.0586 H         1 RES1    0.0000
     20 C12        1.1293    0.4776    1.4496 C.2       1 RES1    0.0000
     21 H9         1.8893   -0.0255    1.2180 H         1 RES1    0.0000
     22 C13        0.0021    0.3723    0.5589 C.2       1 RES1    0.0000
     23 H10       -0.7765    0.8536    0.7731 H         1 RES1    0.0000
     24 C1B        0.1557   -2.0604   -4.4977 C.ar      1 RES1    0.0000
     25 C2B       -0.4500   -1.1581   -5.4040 C.ar      1 RES1    0.0000
     26 H1B       -1.1103   -0.5657   -5.0945 H         1 RES1    0.0000
     27 C3B       -0.0903   -1.1348   -6.7251 C.ar      1 RES1    0.0000
     28 H2B       -0.5195   -0.5414   -7.3144 H         1 RES1    0.0000
     29 C4B        0.9110   -1.9869   -7.2051 C.ar      1 RES1    0.0000
     30 H3B        1.1527   -1.9629   -8.1131 H         1 RES1    0.0000
     31 C5B        1.5301   -2.8446   -6.3639 C.ar      1 RES1    0.0000
     32 H4B        2.2158   -3.3966   -6.6934 H         1 RES1    0.0000
     33 C6B        1.1670   -2.9299   -4.9946 C.ar      1 RES1    0.0000
     34 C7B        1.7745   -3.8570   -4.1214 C.ar      1 RES1    0.0000
     35 H5B        2.4467   -4.4306   -4.4431 H         1 RES1    0.0000
     36 C8B        1.3944   -3.9263   -2.8187 C.ar      1 RES1    0.0000
     37 H6B        1.7915   -4.5612   -2.2503 H         1 RES1    0.0000
     38 C9B        0.4127   -3.0579   -2.3131 C.ar      1 RES1    0.0000
     39 H7B        0.1692   -3.1198   -1.4069 H         1 RES1    0.0000
     40 C10B      -0.2002   -2.1212   -3.1089 C.ar      1 RES1    0.0000
     41 C11B      -1.2214   -1.2078   -2.5687 C.2       1 RES1    0.0000
     42 H8B       -2.0195   -1.1292   -3.0586 H         1 RES1    0.0000
     43 C12B      -1.1293   -0.4776   -1.4496 C.2       1 RES1    0.0000
     44 H9B       -1.8893    0.0255   -1.2180 H         1 RES1    0.0000
     45 C13B      -0.0021   -0.3723   -0.5589 C.2       1 RES1    0.0000
     46 H10B       0.7765   -0.8536   -0.7731 H         1 RES1    0.0000
@<TRIPOS>BOND
     1    1    2 ar
     2    2    3 1
     3    4    2 ar
     4    5    4 1
     5    6    4 ar
     6    7    6 1
     7    8    6 ar
     8    9    8 1
     9   10    1 ar
    10   11   10 ar
    11   12   11 1
    12   13   11 ar
    13   14   13 1
    14   15   13 ar
    15   16   15 1
    16   17    1 ar
    17   18   17 1
    18   19   18 1
    19   20   18 2
    20   21   20 1
    21   22   20 1
    22   23   22 1
    23   24   25 ar
    24   25   26 1
    25   27   25 ar
    26   28   27 1
    27   29   27 ar
    28   30   29 1
    29   31   29 ar
    30   32   31 1
    31   33   24 ar
    32   34   33 ar
    33   35   34 1
    34   36   34 ar
    35   37   36 1
    36   38   36 ar
    37   39   38 1
    38   40   24 ar
    39   41   40 1
    40   42   41 1
    41   43   41 2
    42   44   43 1
    43   45   22 2
    44   46   45 1
    45    8   10 ar
    46   15   17 ar
    47   31   33 ar
    48   38   40 ar
    49   43   45 1
@<TRIPOS>SUBSTRUCTURE
     1 RES1 1

@<TRIPOS>CRYSIN
   5.0071   11.0709   16.1100  90.0000  96.5350  90.0000 231 1

