# MOL2 file generated by ConQuest
# Please check atom types

@<TRIPOS>MOLECULE
ROPXIF
    50    57     1
SMALL
NO_CHARGES
****
Generated from CSD

@<TRIPOS>ATOM
      1 C1        -0.3267    4.3534    4.7360 C.ar      1 RES1    0.0000
      2 H1        -1.2521    4.1432    4.7546 H         1 RES1    0.0000
      3 C2         0.4069    4.2219    3.5415 C.ar      1 RES1    0.0000
      4 H2        -0.0235    3.8757    2.7681 H         1 RES1    0.0000
      5 C3         1.7158    4.5789    3.4683 C.ar      1 RES1    0.0000
      6 H3         2.1814    4.4971    2.6443 H         1 RES1    0.0000
      7 C4         2.4025    5.0796    4.6284 C.ar      1 RES1    0.0000
      8 C5         3.7817    5.4427    4.6344 C.ar      1 RES1    0.0000
      9 C6         4.5852    5.6522    3.4025 C.ar      1 RES1    0.0000
     10 C7         6.0292    5.5635    3.5029 C.ar      1 RES1    0.0000
     11 C8         6.8220    5.5910    2.2615 C.ar      1 RES1    0.0000
     12 C9         8.1703    5.1500    2.2034 C.ar      1 RES1    0.0000
     13 C10        8.9681    5.5100    1.0631 C.ar      1 RES1    0.0000
     14 C11       10.3513    5.1737    1.0595 C.ar      1 RES1    0.0000
     15 H4        10.9030    5.4817    0.3509 H         1 RES1    0.0000
     16 C12       10.8971    4.4230    2.0471 C.ar      1 RES1    0.0000
     17 H5        11.8245    4.2166    2.0277 H         1 RES1    0.0000
     18 C13        4.4254    5.6323    5.8827 C.ar      1 RES1    0.0000
     19 C14        3.6780    5.6690    7.1024 C.ar      1 RES1    0.0000
     20 C15        2.3164    5.4596    7.0545 C.ar      1 RES1    0.0000
     21 H6         1.8058    5.5436    7.8503 H         1 RES1    0.0000
     22 C16        1.6649    5.1255    5.8561 C.ar      1 RES1    0.0000
     23 C17        0.2954    4.7807    5.8577 C.ar      1 RES1    0.0000
     24 H7        -0.1996    4.8511    6.6662 H         1 RES1    0.0000
     25 C18        4.3726    5.9152    8.3335 C.ar      1 RES1    0.0000
     26 H8         3.8835    5.9572    9.1454 H         1 RES1    0.0000
     27 C19        5.7166    6.0887    8.3552 C.ar      1 RES1    0.0000
     28 H9         6.1568    6.2530    9.1815 H         1 RES1    0.0000
     29 C20        6.4639    6.0260    7.1615 C.ar      1 RES1    0.0000
     30 H10        7.4050    6.1453    7.1951 H         1 RES1    0.0000
     31 C21        5.8496    5.7944    5.9351 C.ar      1 RES1    0.0000
     32 C22        6.6126    5.6889    4.7347 C.ar      1 RES1    0.0000
     33 H11        7.5615    5.7057    4.7933 H         1 RES1    0.0000
     34 C23        4.0419    6.1154    2.2390 C.ar      1 RES1    0.0000
     35 H12        3.0989    6.2248    2.1851 H         1 RES1    0.0000
     36 C24        4.8499    6.4449    1.0910 C.ar      1 RES1    0.0000
     37 C25        6.2376    6.1644    1.1165 C.ar      1 RES1    0.0000
     38 C26       10.0931    3.9483    3.1027 C.ar      1 RES1    0.0000
     39 H13       10.4707    3.3803    3.7639 H         1 RES1    0.0000
     40 C27        8.7803    4.2984    3.1804 C.ar      1 RES1    0.0000
     41 H14        8.2560    3.9704    3.9007 H         1 RES1    0.0000
     42 C28        8.3910    6.1919   -0.0119 C.ar      1 RES1    0.0000
     43 H15        8.9388    6.4740   -0.7352 H         1 RES1    0.0000
     44 C29        7.0333    6.4617   -0.0356 C.ar      1 RES1    0.0000
     45 C30        6.3994    7.0733   -1.1607 C.ar      1 RES1    0.0000
     46 H16        6.9159    7.3026   -1.9245 H         1 RES1    0.0000
     47 C31        5.0651    7.3301   -1.1485 C.ar      1 RES1    0.0000
     48 H17        4.6523    7.7292   -1.9065 H         1 RES1    0.0000
     49 C32        4.2982    7.0098   -0.0281 C.ar      1 RES1    0.0000
     50 H18        3.3650    7.1887   -0.0413 H         1 RES1    0.0000
@<TRIPOS>BOND
     1    1    2 1
     2    3    1 ar
     3    4    3 1
     4    5    3 ar
     5    6    5 1
     6    7    5 ar
     7    8    7 ar
     8    9    8 ar
     9   10    9 ar
    10   11   10 ar
    11   12   11 ar
    12   13   12 ar
    13   14   13 ar
    14   15   14 1
    15   16   14 ar
    16   17   16 1
    17   18    8 ar
    18   19   18 ar
    19   20   19 ar
    20   21   20 1
    21   22    7 ar
    22   23    1 ar
    23   24   23 1
    24   25   19 ar
    25   26   25 1
    26   27   25 ar
    27   28   27 1
    28   29   27 ar
    29   30   29 1
    30   31   18 ar
    31   32   10 ar
    32   33   32 1
    33   34    9 ar
    34   35   34 1
    35   36   34 ar
    36   37   11 ar
    37   38   16 ar
    38   39   38 1
    39   40   12 ar
    40   41   40 1
    41   42   13 ar
    42   43   42 1
    43   44   37 ar
    44   45   44 ar
    45   46   45 1
    46   47   45 ar
    47   48   47 1
    48   49   36 ar
    49   50   49 1
    50   20   22 ar
    51   22   23 ar
    52   29   31 ar
    53   31   32 ar
    54   36   37 ar
    55   38   40 ar
    56   42   44 ar
    57   47   49 ar
@<TRIPOS>SUBSTRUCTURE
     1 RES1 1

@<TRIPOS>CRYSIN
  19.5640    7.6443   25.7980  90.0000  90.0000  90.0000  61 1

