# MOL2 file generated by ConQuest
# Please check atom types

@<TRIPOS>MOLECULE
RUNGOX
    78    85     1
SMALL
NO_CHARGES
****
Generated from CSD

@<TRIPOS>ATOM
      1 C1         7.0173    4.8253    3.6176 C.ar      1 RES1    0.0000
      2 C2         5.6434    4.9927    3.7392 C.ar      1 RES1    0.0000
      3 C3         4.9527    5.9230    2.8869 C.ar      1 RES1    0.0000
      4 C4         5.6034    6.6553    1.9531 C.ar      1 RES1    0.0000
      5 C5         6.9890    6.5089    1.8647 C.ar      1 RES1    0.0000
      6 C6         7.6378    7.2640    0.8799 C.ar      1 RES1    0.0000
      7 C7         8.9967    7.1117    0.7666 C.ar      1 RES1    0.0000
      8 C8         9.7079    6.2223    1.6396 C.ar      1 RES1    0.0000
      9 C9         9.0563    5.4850    2.6051 C.ar      1 RES1    0.0000
     10 C10        7.6689    5.6248    2.6866 C.ar      1 RES1    0.0000
     11 C11        5.2219    7.6496    0.8619 C.3       1 RES1    0.0000
     12 C12        6.5583    8.0458    0.1575 C.3       1 RES1    0.0000
     13 C13        8.0398    3.9273    4.3373 C.3       1 RES1    0.0000
     14 C14        7.9517    4.2829    5.8373 C.ar      1 RES1    0.0000
     15 C15        7.6735    3.3537    6.8291 C.ar      1 RES1    0.0000
     16 C16        7.5268    3.7463    8.1551 C.ar      1 RES1    0.0000
     17 C17        7.6716    5.0671    8.5516 C.ar      1 RES1    0.0000
     18 C18        7.9528    5.9913    7.5543 C.ar      1 RES1    0.0000
     19 C19        8.0691    5.6247    6.2255 C.ar      1 RES1    0.0000
     20 C20        7.5001    5.4973    9.9936 C.3       1 RES1    0.0000
     21 C21        7.7811    2.4315    4.1218 C.ar      1 RES1    0.0000
     22 C22        6.6318    1.9387    3.5030 C.ar      1 RES1    0.0000
     23 C23        6.4719    0.5855    3.2308 C.ar      1 RES1    0.0000
     24 C24        7.4536   -0.3383    3.5347 C.ar      1 RES1    0.0000
     25 C25        8.5839    0.1426    4.2019 C.ar      1 RES1    0.0000
     26 C26        8.7246    1.4810    4.4961 C.ar      1 RES1    0.0000
     27 C27        7.3430   -1.7936    3.1369 C.3       1 RES1    0.0000
     28 C28        9.5141    4.4186    3.6065 C.3       1 RES1    0.0000
     29 C29       10.5104    4.9423    4.6342 C.ar      1 RES1    0.0000
     30 C30       10.9252    6.2673    4.6549 C.ar      1 RES1    0.0000
     31 C31       11.8794    6.7227    5.5694 C.ar      1 RES1    0.0000
     32 C32       12.4678    5.8543    6.4796 C.ar      1 RES1    0.0000
     33 C33       12.0253    4.5336    6.4865 C.ar      1 RES1    0.0000
     34 C34       11.0692    4.0931    5.6039 C.ar      1 RES1    0.0000
     35 C35       13.5529    6.2821    7.3996 C.3       1 RES1    0.0000
     36 C36       10.1471    3.3175    2.7308 C.ar      1 RES1    0.0000
     37 C37       11.4892    2.9281    2.8261 C.ar      1 RES1    0.0000
     38 C38       12.0058    1.9601    1.9918 C.ar      1 RES1    0.0000
     39 C39       11.2410    1.3378    1.0152 C.ar      1 RES1    0.0000
     40 C40        9.9217    1.7671    0.8716 C.ar      1 RES1    0.0000
     41 C41        9.4029    2.7378    1.6948 C.ar      1 RES1    0.0000
     42 C42       11.8151    0.2756    0.1492 C.3       1 RES1    0.0000
     43 H1         5.1722    4.5005    4.4008 H         1 RES1    0.0000
     44 H2         4.0113    6.0189    2.9781 H         1 RES1    0.0000
     45 H3         9.4672    7.6114    0.1105 H         1 RES1    0.0000
     46 H4        10.6491    6.1326    1.5457 H         1 RES1    0.0000
     47 H5         4.6166    7.2525    0.2473 H         1 RES1    0.0000
     48 H6         4.8175    8.4133    1.2556 H         1 RES1    0.0000
     49 H7         6.7183    8.9790    0.2321 H         1 RES1    0.0000
     50 H8         6.5309    7.8026   -0.7611 H         1 RES1    0.0000
     51 H9         7.5744    2.4380    6.5943 H         1 RES1    0.0000
     52 H10        7.3374    3.0939    8.8195 H         1 RES1    0.0000
     53 H11        8.0638    6.9027    7.7946 H         1 RES1    0.0000
     54 H12        8.2295    6.2853    5.5611 H         1 RES1    0.0000
     55 H13        8.0417    6.2577   10.1663 H         1 RES1    0.0000
     56 H14        6.5887    5.7142   10.1539 H         1 RES1    0.0000
     57 H15        7.7610    4.7848   10.5655 H         1 RES1    0.0000
     58 H16        5.9437    2.5485    3.2640 H         1 RES1    0.0000
     59 H17        5.6675    0.2868    2.8234 H         1 RES1    0.0000
     60 H18        9.2624   -0.4731    4.4533 H         1 RES1    0.0000
     61 H19        9.4954    1.7698    4.9713 H         1 RES1    0.0000
     62 H20        6.9013   -2.2827    3.8220 H         1 RES1    0.0000
     63 H21        8.2137   -2.1497    3.0043 H         1 RES1    0.0000
     64 H22        6.8455   -1.8616    2.3302 H         1 RES1    0.0000
     65 H23       10.5558    6.8758    4.0251 H         1 RES1    0.0000
     66 H24       12.1330    7.6371    5.5652 H         1 RES1    0.0000
     67 H25       12.4023    3.9262    7.1123 H         1 RES1    0.0000
     68 H26       10.7872    3.1865    5.6440 H         1 RES1    0.0000
     69 H27       13.6592    5.6446    8.0957 H         1 RES1    0.0000
     70 H28       14.3609    6.3494    6.9051 H         1 RES1    0.0000
     71 H29       13.3378    7.1278    7.7739 H         1 RES1    0.0000
     72 H30       12.0445    3.3382    3.4781 H         1 RES1    0.0000
     73 H31       12.9172    1.7084    2.0830 H         1 RES1    0.0000
     74 H32        9.3787    1.3872    0.1906 H         1 RES1    0.0000
     75 H33        8.5071    3.0256    1.5664 H         1 RES1    0.0000
     76 H34       12.1899    0.6680   -0.6299 H         1 RES1    0.0000
     77 H35       11.1314   -0.3346   -0.1022 H         1 RES1    0.0000
     78 H36       12.4922   -0.1879    0.6285 H         1 RES1    0.0000
@<TRIPOS>BOND
     1    1    2 ar
     2    2    3 ar
     3    3    4 ar
     4    4    5 ar
     5    5    6 ar
     6    6    7 ar
     7    7    8 ar
     8    8    9 ar
     9    9   10 ar
    10   10    1 ar
    11   11    4 1
    12   12    6 1
    13   13    1 1
    14   14   13 1
    15   15   14 ar
    16   16   15 ar
    17   17   16 ar
    18   18   17 ar
    19   19   14 ar
    20   20   17 1
    21   21   13 1
    22   22   21 ar
    23   23   22 ar
    24   24   23 ar
    25   25   24 ar
    26   26   21 ar
    27   27   24 1
    28   28    9 1
    29   29   28 1
    30   30   29 ar
    31   31   30 ar
    32   32   31 ar
    33   33   32 ar
    34   34   29 ar
    35   35   32 1
    36   36   28 1
    37   37   36 ar
    38   38   37 ar
    39   39   38 ar
    40   40   39 ar
    41   41   36 ar
    42   42   39 1
    43   43    2 1
    44   44    3 1
    45   45    7 1
    46   46    8 1
    47   47   11 1
    48   48   11 1
    49   49   12 1
    50   50   12 1
    51   51   15 1
    52   52   16 1
    53   53   18 1
    54   54   19 1
    55   55   20 1
    56   56   20 1
    57   57   20 1
    58   58   22 1
    59   59   23 1
    60   60   25 1
    61   61   26 1
    62   62   27 1
    63   63   27 1
    64   64   27 1
    65   65   30 1
    66   66   31 1
    67   67   33 1
    68   68   34 1
    69   69   35 1
    70   70   35 1
    71   71   35 1
    72   72   37 1
    73   73   38 1
    74   74   40 1
    75   75   41 1
    76   76   42 1
    77   77   42 1
    78   78   42 1
    79    5   10 ar
    80   11   12 1
    81   13   28 1
    82   18   19 ar
    83   25   26 ar
    84   33   34 ar
    85   40   41 ar
@<TRIPOS>SUBSTRUCTURE
     1 RES1 1

@<TRIPOS>CRYSIN
   9.1550   12.0790   14.4140  73.4160  84.9570  74.9260   2 1

