# MOL2 file generated by ConQuest
# Please check atom types

@<TRIPOS>MOLECULE
RUNGUD
    66    73     1
SMALL
NO_CHARGES
****
Generated from CSD

@<TRIPOS>ATOM
      1 C1        12.0778    0.6970   10.2273 C.ar      1 RES1    0.0000
      2 C2        11.9793   -0.0187    9.0508 C.ar      1 RES1    0.0000
      3 C3        11.9965   -1.4542    9.0476 C.ar      1 RES1    0.0000
      4 C4        12.1139   -2.1580   10.2302 C.ar      1 RES1    0.0000
      5 C5        12.2229   -1.4155   11.4091 C.ar      1 RES1    0.0000
      6 C6        12.2229   -0.0258   11.4091 C.ar      1 RES1    0.0000
      7 C7        12.1932   -3.6165   10.6312 C.3       1 RES1    0.0000
      8 C8        12.0944    2.1921   10.5414 C.3       1 RES1    0.0000
      9 C9        10.7703    2.8798   10.1949 C.ar      1 RES1    0.0000
     10 C10        9.7196    2.2181    9.5672 C.ar      1 RES1    0.0000
     11 C11        8.5044    2.8613    9.3106 C.ar      1 RES1    0.0000
     12 C12        8.3175    4.1665    9.6897 C.ar      1 RES1    0.0000
     13 C13        9.3490    4.8498   10.3129 C.ar      1 RES1    0.0000
     14 C14       10.5508    4.2135   10.5511 C.ar      1 RES1    0.0000
     15 C15       13.2851    2.8186    9.7937 C.ar      1 RES1    0.0000
     16 C16       13.1871    3.9573    9.0071 C.ar      1 RES1    0.0000
     17 C17       14.3270    4.5292    8.4262 C.ar      1 RES1    0.0000
     18 C18       15.5612    3.9712    8.6084 C.ar      1 RES1    0.0000
     19 C19       15.6694    2.7944    9.3556 C.ar      1 RES1    0.0000
     20 C20       14.5512    2.2292    9.9174 C.ar      1 RES1    0.0000
     21 H1        11.8971    0.4524    8.2298 H         1 RES1    0.0000
     22 H2        11.9328   -1.9296    8.2267 H         1 RES1    0.0000
     23 H3         9.8367    1.3133    9.3022 H         1 RES1    0.0000
     24 H4         7.8022    2.3887    8.8808 H         1 RES1    0.0000
     25 H5         7.4893    4.5989    9.5182 H         1 RES1    0.0000
     26 H6         9.2272    5.7551   10.5755 H         1 RES1    0.0000
     27 H7        11.2560    4.6943   10.9679 H         1 RES1    0.0000
     28 H8        12.3324    4.3418    8.8519 H         1 RES1    0.0000
     29 H9        14.2455    5.3184    7.9042 H         1 RES1    0.0000
     30 H10       16.3384    4.3710    8.2343 H         1 RES1    0.0000
     31 H11       16.5160    2.3808    9.4741 H         1 RES1    0.0000
     32 H12       14.6342    1.4177   10.4051 H         1 RES1    0.0000
     33 H13       11.4270   -4.0859   10.3245 H         1 RES1    0.0000
     34 H14       12.9756   -4.0152   10.2682 H         1 RES1    0.0000
     35 C1A       12.3679    0.6970   12.5909 C.ar      1 RES1    0.0000
     36 C2A       12.4664   -0.0187   13.7674 C.ar      1 RES1    0.0000
     37 C3A       12.4492   -1.4542   13.7706 C.ar      1 RES1    0.0000
     38 C4A       12.3318   -2.1580   12.5880 C.ar      1 RES1    0.0000
     39 C7A       12.2525   -3.6165   12.1870 C.3       1 RES1    0.0000
     40 C8A       12.3513    2.1921   12.2768 C.3       1 RES1    0.0000
     41 C9A       13.6754    2.8798   12.6233 C.ar      1 RES1    0.0000
     42 C10A      14.7261    2.2181   13.2510 C.ar      1 RES1    0.0000
     43 C11A      15.9413    2.8613   13.5076 C.ar      1 RES1    0.0000
     44 C12A      16.1282    4.1665   13.1285 C.ar      1 RES1    0.0000
     45 C13A      15.0967    4.8498   12.5053 C.ar      1 RES1    0.0000
     46 C14A      13.8949    4.2135   12.2671 C.ar      1 RES1    0.0000
     47 C15A      11.1606    2.8186   13.0245 C.ar      1 RES1    0.0000
     48 C16A      11.2586    3.9573   13.8111 C.ar      1 RES1    0.0000
     49 C17A      10.1187    4.5292   14.3920 C.ar      1 RES1    0.0000
     50 C18A       8.8845    3.9712   14.2098 C.ar      1 RES1    0.0000
     51 C19A       8.7763    2.7944   13.4626 C.ar      1 RES1    0.0000
     52 C20A       9.8945    2.2292   12.9008 C.ar      1 RES1    0.0000
     53 H1A       12.5486    0.4524   14.5884 H         1 RES1    0.0000
     54 H2A       12.5129   -1.9296   14.5915 H         1 RES1    0.0000
     55 H3A       14.6090    1.3133   13.5160 H         1 RES1    0.0000
     56 H4A       16.6435    2.3887   13.9374 H         1 RES1    0.0000
     57 H5A       16.9564    4.5989   13.3000 H         1 RES1    0.0000
     58 H6A       15.2185    5.7551   12.2427 H         1 RES1    0.0000
     59 H7A       13.1897    4.6943   11.8503 H         1 RES1    0.0000
     60 H8A       12.1134    4.3418   13.9663 H         1 RES1    0.0000
     61 H9A       10.2002    5.3184   14.9140 H         1 RES1    0.0000
     62 H10A       8.1073    4.3710   14.5839 H         1 RES1    0.0000
     63 H11A       7.9297    2.3808   13.3441 H         1 RES1    0.0000
     64 H12A       9.8115    1.4177   12.4131 H         1 RES1    0.0000
     65 H13A      13.0187   -4.0859   12.4937 H         1 RES1    0.0000
     66 H14A      11.4701   -4.0152   12.5500 H         1 RES1    0.0000
@<TRIPOS>BOND
     1    1    2 ar
     2    2    3 ar
     3    3    4 ar
     4    4    5 ar
     5    5    6 ar
     6    6    1 ar
     7    7    4 1
     8    8    1 1
     9    9    8 1
    10   10    9 ar
    11   11   10 ar
    12   12   11 ar
    13   13   12 ar
    14   14    9 ar
    15   15    8 1
    16   16   15 ar
    17   17   16 ar
    18   18   17 ar
    19   19   18 ar
    20   20   15 ar
    21   21    2 1
    22   22    3 1
    23   23   10 1
    24   24   11 1
    25   25   12 1
    26   26   13 1
    27   27   14 1
    28   28   16 1
    29   29   17 1
    30   30   18 1
    31   31   19 1
    32   32   20 1
    33   33    7 1
    34   34    7 1
    35   35    6 ar
    36   36   35 ar
    37   37   36 ar
    38   38    5 ar
    39   39    7 1
    40   40    8 1
    41   41   40 1
    42   42   41 ar
    43   43   42 ar
    44   44   43 ar
    45   45   44 ar
    46   46   41 ar
    47   47   40 1
    48   48   47 ar
    49   49   48 ar
    50   50   49 ar
    51   51   50 ar
    52   52   47 ar
    53   53   36 1
    54   54   37 1
    55   55   42 1
    56   56   43 1
    57   57   44 1
    58   58   45 1
    59   59   46 1
    60   60   48 1
    61   61   49 1
    62   62   50 1
    63   63   51 1
    64   64   52 1
    65   65   39 1
    66   66   39 1
    67   13   14 ar
    68   19   20 ar
    69   35   40 1
    70   37   38 ar
    71   38   39 1
    72   45   46 ar
    73   51   52 ar
@<TRIPOS>SUBSTRUCTURE
     1 RES1 1

@<TRIPOS>CRYSIN
  14.6080   11.2250   15.5410  90.0000 101.8080  90.0000  15 1

