# MOL2 file generated by ConQuest
# Please check atom types

@<TRIPOS>MOLECULE
RUNHUE
    90    97     1
SMALL
NO_CHARGES
****
Generated from CSD

@<TRIPOS>ATOM
      1 C1        10.7468    3.4993    1.7793 C.ar      1 RES1    0.0000
      2 C2        11.6860    3.8059    0.8106 C.ar      1 RES1    0.0000
      3 C3        11.6518    3.1825   -0.4776 C.ar      1 RES1    0.0000
      4 C4        10.6792    2.2664   -0.7884 C.ar      1 RES1    0.0000
      5 C5         9.7336    1.9749    0.1877 C.ar      1 RES1    0.0000
      6 C6         8.7575    1.0343   -0.1467 C.ar      1 RES1    0.0000
      7 C7         7.8282    0.7046    0.8107 C.ar      1 RES1    0.0000
      8 C8         7.8435    1.3485    2.0929 C.ar      1 RES1    0.0000
      9 C9         8.7932    2.3074    2.3923 C.ar      1 RES1    0.0000
     10 C10        9.7578    2.5878    1.4384 C.ar      1 RES1    0.0000
     11 C11       10.3022    1.4349   -2.0094 C.3       1 RES1    0.0000
     12 C12        9.0401    0.6166   -1.5820 C.3       1 RES1    0.0000
     13 C13       10.5063    4.0123    3.2085 C.3       1 RES1    0.0000
     14 C14       11.6580    3.6730    4.1690 C.ar      1 RES1    0.0000
     15 C15       11.5688    3.9785    5.5306 C.ar      1 RES1    0.0000
     16 C16       12.5897    3.6462    6.4256 C.ar      1 RES1    0.0000
     17 C17       13.6974    2.9740    5.9458 C.ar      1 RES1    0.0000
     18 C18       13.8136    2.6217    4.6154 C.ar      1 RES1    0.0000
     19 C19       12.7870    2.9894    3.7334 C.ar      1 RES1    0.0000
     20 C20       12.4562    3.9836    7.8871 C.3       1 RES1    0.0000
     21 C21       14.9914    1.8253    4.1101 C.3       1 RES1    0.0000
     22 C22       10.2576    5.5327    3.1043 C.ar      1 RES1    0.0000
     23 C23        9.3825    6.0012    2.1131 C.ar      1 RES1    0.0000
     24 C24        9.0538    7.3365    1.9946 C.ar      1 RES1    0.0000
     25 C25        9.6326    8.2499    2.8715 C.ar      1 RES1    0.0000
     26 C26       10.5471    7.8456    3.8319 C.ar      1 RES1    0.0000
     27 C27       10.8530    6.4836    3.9313 C.ar      1 RES1    0.0000
     28 C28        8.0713    7.7899    0.9451 C.3       1 RES1    0.0000
     29 C29       11.1918    8.8415    4.7611 C.3       1 RES1    0.0000
     30 C30        9.0539    3.1542    3.6461 C.3       1 RES1    0.0000
     31 C31        9.2633    2.1507    4.7941 C.ar      1 RES1    0.0000
     32 C32       10.2743    1.1893    4.6444 C.ar      1 RES1    0.0000
     33 C33       10.5448    0.2500    5.6335 C.ar      1 RES1    0.0000
     34 C34        9.7472    0.2250    6.7677 C.ar      1 RES1    0.0000
     35 C35        8.6852    1.1093    6.9176 C.ar      1 RES1    0.0000
     36 C36        8.4626    2.0759    5.9264 C.ar      1 RES1    0.0000
     37 C37       11.6738   -0.7287    5.4473 C.3       1 RES1    0.0000
     38 C38        7.7872    1.0147    8.1194 C.3       1 RES1    0.0000
     39 C39        7.9173    4.1420    3.9156 C.ar      1 RES1    0.0000
     40 C40        6.8528    4.3051    3.0361 C.ar      1 RES1    0.0000
     41 C41        5.8521    5.2602    3.2508 C.ar      1 RES1    0.0000
     42 C42        5.9324    6.0512    4.3768 C.ar      1 RES1    0.0000
     43 C43        6.9848    5.9347    5.2739 C.ar      1 RES1    0.0000
     44 C44        7.9623    4.9751    5.0319 C.ar      1 RES1    0.0000
     45 C45        4.7245    5.4196    2.2622 C.3       1 RES1    0.0000
     46 C46        7.0746    6.8034    6.5001 C.3       1 RES1    0.0000
     47 H1        12.3628    4.4438    1.0057 H         1 RES1    0.0000
     48 H2        12.3083    3.4045   -1.1276 H         1 RES1    0.0000
     49 H3         7.1716    0.0450    0.6201 H         1 RES1    0.0000
     50 H4         7.1964    1.1110    2.7472 H         1 RES1    0.0000
     51 H5        10.0998    2.0003   -2.7456 H         1 RES1    0.0000
     52 H6        11.0145    0.8530   -2.2443 H         1 RES1    0.0000
     53 H7         9.2170   -0.3160   -1.6258 H         1 RES1    0.0000
     54 H8         8.3009    0.8256   -2.1410 H         1 RES1    0.0000
     55 H9        10.7970    4.4274    5.8553 H         1 RES1    0.0000
     56 H10       14.3979    2.7478    6.5479 H         1 RES1    0.0000
     57 H11       12.8687    2.7726    2.8120 H         1 RES1    0.0000
     58 H12        9.0037    5.3785    1.5039 H         1 RES1    0.0000
     59 H13        9.4023    9.1693    2.8104 H         1 RES1    0.0000
     60 H14       11.4870    6.1993    4.5797 H         1 RES1    0.0000
     61 H15       10.7833    1.1780    3.8423 H         1 RES1    0.0000
     62 H16        9.9288   -0.4056    7.4549 H         1 RES1    0.0000
     63 H17        7.7501    2.6958    6.0327 H         1 RES1    0.0000
     64 H18        6.8050    3.7491    2.2675 H         1 RES1    0.0000
     65 H19        5.2546    6.6958    4.5426 H         1 RES1    0.0000
     66 H20        8.6853    4.8892    5.6424 H         1 RES1    0.0000
     67 H21       12.0831    3.2719    8.3665 H         1 RES1    0.0000
     68 H22       13.3473    4.1425    8.3001 H         1 RES1    0.0000
     69 H23       11.9271    4.8025    8.0641 H         1 RES1    0.0000
     70 H24       15.1353    2.0369    3.1945 H         1 RES1    0.0000
     71 H25       15.7687    2.0413    4.6105 H         1 RES1    0.0000
     72 H26       14.8064    0.8971    4.1956 H         1 RES1    0.0000
     73 H27       12.0577   -1.0155    6.3458 H         1 RES1    0.0000
     74 H28       11.3577   -1.5440    4.9792 H         1 RES1    0.0000
     75 H29       12.3674   -0.3322    4.8943 H         1 RES1    0.0000
     76 H30        7.0841    1.6486    8.0364 H         1 RES1    0.0000
     77 H31        7.4194    0.1406    8.1783 H         1 RES1    0.0000
     78 H32        8.2893    1.2004    8.9033 H         1 RES1    0.0000
     79 H33        4.5660    4.6198    1.7045 H         1 RES1    0.0000
     80 H34        3.8659    5.6933    2.6685 H         1 RES1    0.0000
     81 H35        4.8762    6.1113    1.6320 H         1 RES1    0.0000
     82 H36        6.5515    7.5880    6.3875 H         1 RES1    0.0000
     83 H37        6.7478    6.3090    7.2435 H         1 RES1    0.0000
     84 H38        7.9800    7.0459    6.6559 H         1 RES1    0.0000
     85 H39       11.0087    8.5951    5.6594 H         1 RES1    0.0000
     86 H40       12.1317    8.8486    4.6198 H         1 RES1    0.0000
     87 H41       10.8398    9.7074    4.5920 H         1 RES1    0.0000
     88 H42        7.7192    7.0315    0.4936 H         1 RES1    0.0000
     89 H43        7.3626    8.2701    1.3574 H         1 RES1    0.0000
     90 H44        8.5144    8.3518    0.3208 H         1 RES1    0.0000
@<TRIPOS>BOND
     1    1    2 ar
     2    2    3 ar
     3    3    4 ar
     4    4    5 ar
     5    5    6 ar
     6    6    7 ar
     7    7    8 ar
     8    8    9 ar
     9    9   10 ar
    10   10    1 ar
    11   11    4 1
    12   12    6 1
    13   13    1 1
    14   14   13 1
    15   15   14 ar
    16   16   15 ar
    17   17   16 ar
    18   18   17 ar
    19   19   14 ar
    20   20   16 1
    21   21   18 1
    22   22   13 1
    23   23   22 ar
    24   24   23 ar
    25   25   24 ar
    26   26   25 ar
    27   27   22 ar
    28   28   24 1
    29   29   26 1
    30   30    9 1
    31   31   30 1
    32   32   31 ar
    33   33   32 ar
    34   34   33 ar
    35   35   34 ar
    36   36   31 ar
    37   37   33 1
    38   38   35 1
    39   39   30 1
    40   40   39 ar
    41   41   40 ar
    42   42   41 ar
    43   43   42 ar
    44   44   39 ar
    45   45   41 1
    46   46   43 1
    47   47    2 1
    48   48    3 1
    49   49    7 1
    50   50    8 1
    51   51   11 1
    52   52   11 1
    53   53   12 1
    54   54   12 1
    55   55   15 1
    56   56   17 1
    57   57   19 1
    58   58   23 1
    59   59   25 1
    60   60   27 1
    61   61   32 1
    62   62   34 1
    63   63   36 1
    64   64   40 1
    65   65   42 1
    66   66   44 1
    67   67   20 1
    68   68   20 1
    69   69   20 1
    70   70   21 1
    71   71   21 1
    72   72   21 1
    73   73   37 1
    74   74   37 1
    75   75   37 1
    76   76   38 1
    77   77   38 1
    78   78   38 1
    79   79   45 1
    80   80   45 1
    81   81   45 1
    82   82   46 1
    83   83   46 1
    84   84   46 1
    85   85   29 1
    86   86   29 1
    87   87   29 1
    88   88   28 1
    89   89   28 1
    90   90   28 1
    91    5   10 ar
    92   11   12 1
    93   13   30 1
    94   18   19 ar
    95   26   27 ar
    96   35   36 ar
    97   43   44 ar
@<TRIPOS>SUBSTRUCTURE
     1 RES1 1

@<TRIPOS>CRYSIN
  10.4116   11.2780   15.5590  86.3590  82.6190  72.2910   2 1

