# MOL2 file generated by ConQuest
# Please check atom types

@<TRIPOS>MOLECULE
RUNHIS
    74    80     1
SMALL
NO_CHARGES
****
Generated from CSD

@<TRIPOS>ATOM
      1 C1         9.1748    2.6007    3.6519 C.ar      1 RES1    0.0000
      2 C2        10.5129    2.3145    3.5397 C.ar      1 RES1    0.0000
      3 C3        11.1007    1.3864    4.4354 C.ar      1 RES1    0.0000
      4 C4        10.3611    0.7574    5.4059 C.ar      1 RES1    0.0000
      5 C5         8.9710    0.9916    5.5269 C.ar      1 RES1    0.0000
      6 C6         8.0703    0.4247    6.4657 C.ar      1 RES1    0.0000
      7 C7         6.7466    0.7756    6.4658 C.ar      1 RES1    0.0000
      8 C8         6.2190    1.6911    5.5300 C.ar      1 RES1    0.0000
      9 C9         7.0565    2.2498    4.5878 C.ar      1 RES1    0.0000
     10 C10        8.4182    1.9140    4.6112 C.ar      1 RES1    0.0000
     11 C11        8.3008    3.5785    2.8604 C.3       1 RES1    0.0000
     12 C12        8.7246    5.0439    3.0808 C.ar      1 RES1    0.0000
     13 C13        7.9934    6.0952    2.5311 C.ar      1 RES1    0.0000
     14 C14        8.2822    7.4210    2.8019 C.ar      1 RES1    0.0000
     15 C15        9.3334    7.7617    3.6409 C.ar      1 RES1    0.0000
     16 C16       10.0950    6.7333    4.1582 C.ar      1 RES1    0.0000
     17 C17        9.8064    5.3972    3.8867 C.ar      1 RES1    0.0000
     18 C18        9.6204    9.2102    3.9791 C.3       1 RES1    0.0000
     19 C19        8.4213    3.1737    1.3774 C.ar      1 RES1    0.0000
     20 C20        8.8655    4.0301    0.3701 C.ar      1 RES1    0.0000
     21 C21        9.0030    3.5925   -0.9395 C.ar      1 RES1    0.0000
     22 C22        8.7061    2.2895   -1.3045 C.ar      1 RES1    0.0000
     23 C23        8.2744    1.4310   -0.3035 C.ar      1 RES1    0.0000
     24 C24        8.1506    1.8535    1.0093 C.ar      1 RES1    0.0000
     25 C25        8.9031    1.7943   -2.7168 C.3       1 RES1    0.0000
     26 C26        6.7655    3.3031    3.5209 C.3       1 RES1    0.0000
     27 C27        6.2174    4.5289    4.2832 C.ar      1 RES1    0.0000
     28 C28        5.0253    5.1729    3.9650 C.ar      1 RES1    0.0000
     29 C29        4.6287    6.3190    4.6546 C.ar      1 RES1    0.0000
     30 C30        5.3725    6.8485    5.6820 C.ar      1 RES1    0.0000
     31 C31        6.5244    6.1571    6.0536 C.ar      1 RES1    0.0000
     32 C32        6.9278    5.0219    5.3858 C.ar      1 RES1    0.0000
     33 C33        4.9476    8.1173    6.3764 C.3       1 RES1    0.0000
     34 C34        5.7677    2.8281    2.4645 C.ar      1 RES1    0.0000
     35 C35        5.4390    3.6478    1.3798 C.ar      1 RES1    0.0000
     36 C36        4.5029    3.2717    0.4338 C.ar      1 RES1    0.0000
     37 C37        3.8631    2.0427    0.5052 C.ar      1 RES1    0.0000
     38 C38        4.2122    1.2042    1.5548 C.ar      1 RES1    0.0000
     39 C39        5.1333    1.5911    2.5158 C.ar      1 RES1    0.0000
     40 C40        2.8199    1.6674   -0.5039 C.3       1 RES1    0.0000
     41 H1        11.0363    2.7336    2.8669 H         1 RES1    0.0000
     42 H2        12.0289    1.1968    4.3630 H         1 RES1    0.0000
     43 H3        10.7856    0.1531    6.0025 H         1 RES1    0.0000
     44 H4         8.3908   -0.2106    7.0964 H         1 RES1    0.0000
     45 H5         6.1666    0.3986    7.1173 H         1 RES1    0.0000
     46 H6         5.2969    1.9183    5.5418 H         1 RES1    0.0000
     47 H7         7.2671    5.8889    1.9540 H         1 RES1    0.0000
     48 H8         7.7556    8.1073    2.4091 H         1 RES1    0.0000
     49 H9        10.8372    6.9412    4.7138 H         1 RES1    0.0000
     50 H10       10.3488    4.7096    4.2559 H         1 RES1    0.0000
     51 H11        9.0746    4.9307    0.5873 H         1 RES1    0.0000
     52 H12        9.3050    4.2003   -1.6047 H         1 RES1    0.0000
     53 H13        8.0646    0.5325   -0.5247 H         1 RES1    0.0000
     54 H14        7.8673    1.2372    1.6742 H         1 RES1    0.0000
     55 H15        4.4770    4.8203    3.2747 H         1 RES1    0.0000
     56 H16        3.8188    6.7498    4.4062 H         1 RES1    0.0000
     57 H17        7.0386    6.4748    6.7860 H         1 RES1    0.0000
     58 H18        7.7036    4.5564    5.6768 H         1 RES1    0.0000
     59 H19        5.8735    4.4882    1.2901 H         1 RES1    0.0000
     60 H20        4.2894    3.8650   -0.2770 H         1 RES1    0.0000
     61 H21        3.8029    0.3486    1.6130 H         1 RES1    0.0000
     62 H22        5.3444    0.9960    3.2246 H         1 RES1    0.0000
     63 H23        9.2713    9.4061    4.8404 H         1 RES1    0.0000
     64 H24       10.5586    9.3572    3.9761 H         1 RES1    0.0000
     65 H25        9.2093    9.7751    3.3360 H         1 RES1    0.0000
     66 H26        9.8329    1.6983   -2.8892 H         1 RES1    0.0000
     67 H27        8.4729    0.9530   -2.8196 H         1 RES1    0.0000
     68 H28        8.5303    2.4179   -3.3290 H         1 RES1    0.0000
     69 H29        5.5624    8.3190    7.0713 H         1 RES1    0.0000
     70 H30        4.9293    8.8332    5.7520 H         1 RES1    0.0000
     71 H31        4.0803    7.9980    6.7457 H         1 RES1    0.0000
     72 H32        2.9054    2.2230   -1.2692 H         1 RES1    0.0000
     73 H33        2.9350    0.7591   -0.7571 H         1 RES1    0.0000
     74 H34        1.9562    1.7828   -0.1239 H         1 RES1    0.0000
@<TRIPOS>BOND
     1    1    2 ar
     2    2    3 ar
     3    3    4 ar
     4    4    5 ar
     5    5    6 ar
     6    6    7 ar
     7    7    8 ar
     8    8    9 ar
     9    9   10 ar
    10   10    1 ar
    11   11    1 1
    12   12   11 1
    13   13   12 ar
    14   14   13 ar
    15   15   14 ar
    16   16   15 ar
    17   17   12 ar
    18   18   15 1
    19   19   11 1
    20   20   19 ar
    21   21   20 ar
    22   22   21 ar
    23   23   22 ar
    24   24   19 ar
    25   25   22 1
    26   26    9 1
    27   27   26 1
    28   28   27 ar
    29   29   28 ar
    30   30   29 ar
    31   31   30 ar
    32   32   27 ar
    33   33   30 1
    34   34   26 1
    35   35   34 ar
    36   36   35 ar
    37   37   36 ar
    38   38   37 ar
    39   39   34 ar
    40   40   37 1
    41   41    2 1
    42   42    3 1
    43   43    4 1
    44   44    6 1
    45   45    7 1
    46   46    8 1
    47   47   13 1
    48   48   14 1
    49   49   16 1
    50   50   17 1
    51   51   20 1
    52   52   21 1
    53   53   23 1
    54   54   24 1
    55   55   28 1
    56   56   29 1
    57   57   31 1
    58   58   32 1
    59   59   35 1
    60   60   36 1
    61   61   38 1
    62   62   39 1
    63   63   18 1
    64   64   18 1
    65   65   18 1
    66   66   25 1
    67   67   25 1
    68   68   25 1
    69   69   33 1
    70   70   33 1
    71   71   33 1
    72   72   40 1
    73   73   40 1
    74   74   40 1
    75    5   10 ar
    76   11   26 1
    77   16   17 ar
    78   23   24 ar
    79   31   32 ar
    80   38   39 ar
@<TRIPOS>SUBSTRUCTURE
     1 RES1 1

@<TRIPOS>CRYSIN
   9.2341   12.1584   14.7460  71.0190  85.8920  67.2300   2 1

