# MOL2 file generated by ConQuest
# Please check atom types

@<TRIPOS>MOLECULE
RUNJAM
    86    92     1
SMALL
NO_CHARGES
****
Generated from CSD

@<TRIPOS>ATOM
      1 C1         2.2045    0.9486    2.0376 C.ar      1 RES1    0.0000
      2 C2         1.5207    1.4537    0.9621 C.ar      1 RES1    0.0000
      3 C3         1.5275    0.7412   -0.2584 C.ar      1 RES1    0.0000
      4 C4         2.1995   -0.4453   -0.4103 C.ar      1 RES1    0.0000
      5 C5         2.9027   -1.0045    0.6890 C.ar      1 RES1    0.0000
      6 C6         3.6581   -2.2108    0.6973 C.ar      1 RES1    0.0000
      7 C7         4.2787   -2.6182    1.8466 C.ar      1 RES1    0.0000
      8 C8         4.1830   -1.8964    3.0584 C.ar      1 RES1    0.0000
      9 C9         3.4576   -0.7347    3.0786 C.ar      1 RES1    0.0000
     10 C10        2.8500   -0.2934    1.9024 C.ar      1 RES1    0.0000
     11 C11        2.3527    1.4944    3.4563 C.3       1 RES1    0.0000
     12 C12        3.1091    2.8308    3.4841 C.ar      1 RES1    0.0000
     13 C13        3.3658    3.4982    4.6850 C.ar      1 RES1    0.0000
     14 C14        4.1176    4.6653    4.7496 C.ar      1 RES1    0.0000
     15 C15        4.6696    5.1587    3.5690 C.ar      1 RES1    0.0000
     16 C16        4.4759    4.5181    2.3652 C.ar      1 RES1    0.0000
     17 C17        3.6706    3.3757    2.3304 C.ar      1 RES1    0.0000
     18 C18        4.3191    5.3609    6.0721 C.3       1 RES1    0.0000
     19 C19        5.1595    4.9914    1.1109 C.3       1 RES1    0.0000
     20 C20        0.9242    1.5797    4.0377 C.ar      1 RES1    0.0000
     21 C21        0.4120    2.6930    4.7034 C.ar      1 RES1    0.0000
     22 C22       -0.8723    2.6937    5.2552 C.ar      1 RES1    0.0000
     23 C23       -1.6615    1.5654    5.1081 C.ar      1 RES1    0.0000
     24 C24       -1.2048    0.4536    4.4005 C.ar      1 RES1    0.0000
     25 C25        0.0780    0.4842    3.8795 C.ar      1 RES1    0.0000
     26 C26       -1.3769    3.9086    5.9964 C.3       1 RES1    0.0000
     27 C27       -2.0819   -0.7536    4.2355 C.3       1 RES1    0.0000
     28 C28        3.2787    0.2806    4.2065 C.3       1 RES1    0.0000
     29 C29        2.5268   -0.2992    5.4140 C.ar      1 RES1    0.0000
     30 C30        2.0611   -1.6104    5.4337 C.ar      1 RES1    0.0000
     31 C31        1.2632   -2.0979    6.4704 C.ar      1 RES1    0.0000
     32 C32        0.9409   -1.2511    7.5195 C.ar      1 RES1    0.0000
     33 C33        1.3883    0.0640    7.5478 C.ar      1 RES1    0.0000
     34 C34        2.1771    0.5115    6.4959 C.ar      1 RES1    0.0000
     35 C35        0.6951   -3.4958    6.4145 C.3       1 RES1    0.0000
     36 C36        1.0236    0.9742    8.6822 C.3       1 RES1    0.0000
     37 C37        4.7080    0.7682    4.5348 C.ar      1 RES1    0.0000
     38 C38        5.2340    0.8455    5.8183 C.ar      1 RES1    0.0000
     39 C39        6.5494    1.2723    6.0431 C.ar      1 RES1    0.0000
     40 C40        7.3275    1.6386    4.9588 C.ar      1 RES1    0.0000
     41 C41        6.8483    1.5564    3.6709 C.ar      1 RES1    0.0000
     42 C42        5.5550    1.1098    3.4687 C.ar      1 RES1    0.0000
     43 C43        7.0999    1.3455    7.4351 C.3       1 RES1    0.0000
     44 C44        7.7138    1.9674    2.4993 C.3       1 RES1    0.0000
     45 H1         1.0456    2.2734    1.0378 H         1 RES1    0.0000
     46 H2         1.0430    1.0919   -0.9964 H         1 RES1    0.0000
     47 H3         2.2021   -0.8861   -1.2513 H         1 RES1    0.0000
     48 H4         3.7280   -2.7313   -0.0943 H         1 RES1    0.0000
     49 H5         4.8003   -3.4115    1.8289 H         1 RES1    0.0000
     50 H6         4.6095   -2.2107    3.8466 H         1 RES1    0.0000
     51 H7         3.0137    3.1400    5.4918 H         1 RES1    0.0000
     52 H8         5.1853    5.9564    3.5966 H         1 RES1    0.0000
     53 H9         3.4988    2.9580    1.4946 H         1 RES1    0.0000
     54 H10        0.9529    3.4697    4.7867 H         1 RES1    0.0000
     55 H11       -2.5281    1.5499    5.4967 H         1 RES1    0.0000
     56 H12        0.3885   -0.2655    3.3864 H         1 RES1    0.0000
     57 H13        2.2881   -2.1913    4.7172 H         1 RES1    0.0000
     58 H14        0.4041   -1.5767    8.2327 H         1 RES1    0.0000
     59 H15        2.4924    1.4082    6.5097 H         1 RES1    0.0000
     60 H16        4.6905    0.5952    6.5560 H         1 RES1    0.0000
     61 H17        8.2137    1.9467    5.1061 H         1 RES1    0.0000
     62 H18        5.2271    1.0352    2.5804 H         1 RES1    0.0000
     63 H19        4.9923    6.0235    5.9784 H         1 RES1    0.0000
     64 H20        3.5034    5.7729    6.3326 H         1 RES1    0.0000
     65 H21        4.5831    4.7332    6.7348 H         1 RES1    0.0000
     66 H22       -1.1491    4.6631    5.4719 H         1 RES1    0.0000
     67 H23       -2.3579    3.7561    6.3111 H         1 RES1    0.0000
     68 H24       -0.9269    3.9963    6.8374 H         1 RES1    0.0000
     69 H25       -1.7093   -1.4932    4.7817 H         1 RES1    0.0000
     70 H26       -3.0028   -0.5847    4.4854 H         1 RES1    0.0000
     71 H27       -2.0013   -1.1009    3.3318 H         1 RES1    0.0000
     72 H28        0.5284   -3.8173    7.2926 H         1 RES1    0.0000
     73 H29       -0.1177   -3.4786    5.9238 H         1 RES1    0.0000
     74 H30        1.3158   -4.0694    5.9800 H         1 RES1    0.0000
     75 H31        0.1858    0.7175    9.1562 H         1 RES1    0.0000
     76 H32        1.6515    0.9890    9.3582 H         1 RES1    0.0000
     77 H33        0.9386    2.0123    8.3585 H         1 RES1    0.0000
     78 H34        6.8862    2.3300    7.8470 H         1 RES1    0.0000
     79 H35        6.7850    0.7593    7.9778 H         1 RES1    0.0000
     80 H36        8.0841    1.4186    7.4829 H         1 RES1    0.0000
     81 H37        8.5642    1.5514    2.5804 H         1 RES1    0.0000
     82 H38        7.3047    1.6961    1.6866 H         1 RES1    0.0000
     83 H39        7.8221    2.9118    2.4993 H         1 RES1    0.0000
     84 H40        5.6890    4.2886    0.7531 H         1 RES1    0.0000
     85 H41        4.5010    5.2463    0.4750 H         1 RES1    0.0000
     86 H42        5.7143    5.7371    1.3092 H         1 RES1    0.0000
@<TRIPOS>BOND
     1    1    2 ar
     2    2    3 ar
     3    3    4 ar
     4    4    5 ar
     5    5    6 ar
     6    6    7 ar
     7    7    8 ar
     8    8    9 ar
     9    9   10 ar
    10   10    1 ar
    11   11    1 1
    12   12   11 1
    13   13   12 ar
    14   14   13 ar
    15   15   14 ar
    16   16   15 ar
    17   17   12 ar
    18   18   14 1
    19   19   16 1
    20   20   11 1
    21   21   20 ar
    22   22   21 ar
    23   23   22 ar
    24   24   23 ar
    25   25   20 ar
    26   26   22 1
    27   27   24 1
    28   28    9 1
    29   29   28 1
    30   30   29 ar
    31   31   30 ar
    32   32   31 ar
    33   33   32 ar
    34   34   29 ar
    35   35   31 1
    36   36   33 1
    37   37   28 1
    38   38   37 ar
    39   39   38 ar
    40   40   39 ar
    41   41   40 ar
    42   42   37 ar
    43   43   39 1
    44   44   41 1
    45   45    2 1
    46   46    3 1
    47   47    4 1
    48   48    6 1
    49   49    7 1
    50   50    8 1
    51   51   13 1
    52   52   15 1
    53   53   17 1
    54   54   21 1
    55   55   23 1
    56   56   25 1
    57   57   30 1
    58   58   32 1
    59   59   34 1
    60   60   38 1
    61   61   40 1
    62   62   42 1
    63   63   18 1
    64   64   18 1
    65   65   18 1
    66   66   26 1
    67   67   26 1
    68   68   26 1
    69   69   27 1
    70   70   27 1
    71   71   27 1
    72   72   35 1
    73   73   35 1
    74   74   35 1
    75   75   36 1
    76   76   36 1
    77   77   36 1
    78   78   43 1
    79   79   43 1
    80   80   43 1
    81   81   44 1
    82   82   44 1
    83   83   44 1
    84   84   19 1
    85   85   19 1
    86   86   19 1
    87    5   10 ar
    88   11   28 1
    89   16   17 ar
    90   24   25 ar
    91   33   34 ar
    92   41   42 ar
@<TRIPOS>SUBSTRUCTURE
     1 RES1 1

@<TRIPOS>CRYSIN
  13.0970   14.9170   16.6390  90.0000  95.8810  90.0000  14 1

