# MOL2 file generated by ConQuest
# Please check atom types

@<TRIPOS>MOLECULE
RUNZOR
    46    51     1
SMALL
NO_CHARGES
****
Generated from CSD

@<TRIPOS>ATOM
      1 C1         4.4142    0.8384   11.5689 C.ar      1 RES1    0.0000
      2 C2         4.4463   -0.2474   12.4755 C.ar      1 RES1    0.0000
      3 C3         3.5615   -1.4281   12.4359 C.ar      1 RES1    0.0000
      4 C4         2.8215   -1.8264   11.3012 C.ar      1 RES1    0.0000
      5 H1         2.8425   -1.2853   10.5206 H         1 RES1    0.0000
      6 C5         2.0641   -2.9887   11.2997 C.ar      1 RES1    0.0000
      7 H2         1.5894   -3.2392   10.5168 H         1 RES1    0.0000
      8 C6         1.9934   -3.7945   12.4397 C.ar      1 RES1    0.0000
      9 H3         1.4501   -4.5745   12.4450 H         1 RES1    0.0000
     10 C7         2.7172   -3.4460   13.5507 C.ar      1 RES1    0.0000
     11 H4         2.6696   -3.9897   14.3277 H         1 RES1    0.0000
     12 C8         3.5303   -2.2949   13.5614 C.ar      1 RES1    0.0000
     13 C9         4.4108   -2.0740   14.6767 C.ar      1 RES1    0.0000
     14 H5         4.3187   -2.6010   15.4615 H         1 RES1    0.0000
     15 C10        5.3662   -1.1251   14.6187 C.ar      1 RES1    0.0000
     16 H6         5.9983   -1.0536   15.3250 H         1 RES1    0.0000
     17 C11        5.4423   -0.2189   13.5035 C.ar      1 RES1    0.0000
     18 C12        6.4825    0.7026   13.4546 C.ar      1 RES1    0.0000
     19 H7         7.1633    0.6632   14.1172 H         1 RES1    0.0000
     20 C13        6.5604    1.6836   12.4664 C.ar      1 RES1    0.0000
     21 C14        7.6927    2.5956   12.3542 C.ar      1 RES1    0.0000
     22 C15        8.8623    2.4651   13.1332 C.ar      1 RES1    0.0000
     23 H8         8.9246    1.7613   13.7684 H         1 RES1    0.0000
     24 C16        9.9167    3.3440   12.9867 C.ar      1 RES1    0.0000
     25 H9        10.6952    3.2392   13.5200 H         1 RES1    0.0000
     26 C17        9.8466    4.3917   12.0548 C.ar      1 RES1    0.0000
     27 H10       10.5737    4.9952   11.9559 H         1 RES1    0.0000
     28 C18        8.7198    4.5363   11.2877 C.ar      1 RES1    0.0000
     29 H11        8.6721    5.2483   10.6609 H         1 RES1    0.0000
     30 C19        7.6329    3.6517   11.4115 C.ar      1 RES1    0.0000
     31 C20        6.4650    3.7972   10.5910 C.ar      1 RES1    0.0000
     32 H12        6.4121    4.5281    9.9860 H         1 RES1    0.0000
     33 C21        5.4392    2.9205   10.6583 C.ar      1 RES1    0.0000
     34 H13        4.6865    3.0449   10.0921 H         1 RES1    0.0000
     35 C22        5.4554    1.7998   11.5661 C.ar      1 RES1    0.0000
     36 C23        3.2724    1.0374   10.6188 C.ar      1 RES1    0.0000
     37 C24        3.4352    0.8707    9.2409 C.ar      1 RES1    0.0000
     38 H14        4.2946    0.6703    8.8901 H         1 RES1    0.0000
     39 C25        2.3561    0.9951    8.3795 C.ar      1 RES1    0.0000
     40 H15        2.4768    0.8611    7.4473 H         1 RES1    0.0000
     41 C26        1.1005    1.3140    8.8768 C.ar      1 RES1    0.0000
     42 H16        0.3583    1.3852    8.2872 H         1 RES1    0.0000
     43 C27        0.9321    1.5273   10.2374 C.ar      1 RES1    0.0000
     44 H17        0.0775    1.7649   10.5775 H         1 RES1    0.0000
     45 C28        2.0130    1.3936   11.1033 C.ar      1 RES1    0.0000
     46 H18        1.8922    1.5456   12.0336 H         1 RES1    0.0000
@<TRIPOS>BOND
     1    1    2 ar
     2    2    3 ar
     3    3    4 ar
     4    4    5 1
     5    6    4 ar
     6    7    6 1
     7    8    6 ar
     8    9    8 1
     9   10    8 ar
    10   11   10 1
    11   12    3 ar
    12   13   12 ar
    13   14   13 1
    14   15   13 ar
    15   16   15 1
    16   17    2 ar
    17   18   17 ar
    18   19   18 1
    19   20   18 ar
    20   21   20 ar
    21   22   21 ar
    22   23   22 1
    23   24   22 ar
    24   25   24 1
    25   26   24 ar
    26   27   26 1
    27   28   26 ar
    28   29   28 1
    29   30   21 ar
    30   31   30 ar
    31   32   31 1
    32   33   31 ar
    33   34   33 1
    34   35    1 ar
    35   36    1 1
    36   37   36 ar
    37   38   37 1
    38   39   37 ar
    39   40   39 1
    40   41   39 ar
    41   42   41 1
    42   43   41 ar
    43   44   43 1
    44   45   36 ar
    45   46   45 1
    46   10   12 ar
    47   15   17 ar
    48   20   35 ar
    49   28   30 ar
    50   33   35 ar
    51   43   45 ar
@<TRIPOS>SUBSTRUCTURE
     1 RES1 1

@<TRIPOS>CRYSIN
  10.4773   17.8272   18.9595  90.0000  90.0000  90.0000  61 1

