# MOL2 file generated by ConQuest
# Please check atom types

@<TRIPOS>MOLECULE
RUQROL
    90    98     1
SMALL
NO_CHARGES
****
Generated from CSD

@<TRIPOS>ATOM
      1 C1         5.3752    8.7782   10.5733 C.ar      1 RES1    0.0000
      2 C2         5.3583    7.8133   11.6598 C.ar      1 RES1    0.0000
      3 C3         4.9207    8.0897   12.9813 C.ar      1 RES1    0.0000
      4 C4         5.2146    7.1722   14.0219 C.ar      1 RES1    0.0000
      5 C5         4.6114    7.2260   15.3426 C.ar      1 RES1    0.0000
      6 C6         5.2565    6.5896   16.3708 C.ar      1 RES1    0.0000
      7 H1         4.8830    6.6241   17.2430 H         1 RES1    0.0000
      8 C7         6.4583    5.8857   16.1674 C.ar      1 RES1    0.0000
      9 H2         6.9573    5.5943   16.9218 H         1 RES1    0.0000
     10 C8         6.9271    5.6099   14.9125 C.ar      1 RES1    0.0000
     11 C9         6.1944    6.1445   13.7682 C.ar      1 RES1    0.0000
     12 C10        6.3301    5.6964   12.4277 C.ar      1 RES1    0.0000
     13 C11        5.7656    6.4641   11.3684 C.ar      1 RES1    0.0000
     14 C12        5.6053    5.9904    9.9959 C.ar      1 RES1    0.0000
     15 C13        5.4518    6.9242    9.0076 C.ar      1 RES1    0.0000
     16 H3         5.3446    6.6342    8.1099 H         1 RES1    0.0000
     17 C14        5.4481    8.3034    9.2868 C.ar      1 RES1    0.0000
     18 H4         5.4976    8.9222    8.5671 H         1 RES1    0.0000
     19 C15        5.4513   10.2573   10.7562 C.ar      1 RES1    0.0000
     20 C16        6.2819   10.8234   11.7268 C.ar      1 RES1    0.0000
     21 H5         6.7637   10.2586   12.3179 H         1 RES1    0.0000
     22 C17        6.4112   12.2004   11.8367 C.ar      1 RES1    0.0000
     23 H6         6.9821   12.5712   12.4997 H         1 RES1    0.0000
     24 C18        5.7096   13.0375   10.9812 C.ar      1 RES1    0.0000
     25 H7         5.7972   13.9799   11.0568 H         1 RES1    0.0000
     26 C19        4.8809   12.4900   10.0174 C.ar      1 RES1    0.0000
     27 H8         4.3983   13.0601    9.4304 H         1 RES1    0.0000
     28 C20        4.7499   11.1171    9.9019 C.ar      1 RES1    0.0000
     29 H9         4.1785   10.7547    9.2367 H         1 RES1    0.0000
     30 C21        4.1429    9.3239   13.2502 C.ar      1 RES1    0.0000
     31 C22        4.4537   10.1750   14.3075 C.ar      1 RES1    0.0000
     32 H10        5.1709    9.9621   14.8926 H         1 RES1    0.0000
     33 C23        3.7153   11.3335   14.5071 C.ar      1 RES1    0.0000
     34 H11        3.9281   11.9016   15.2376 H         1 RES1    0.0000
     35 C24        2.6671   11.6777   13.6543 C.ar      1 RES1    0.0000
     36 C25        1.8423   12.9241   13.8814 C.3       1 RES1    0.0000
     37 H12        2.1794   13.4000   14.6683 H         1 RES1    0.0000
     38 H13        0.9067   12.6754   14.0275 H         1 RES1    0.0000
     39 H14        1.9077   13.5070   13.0962 H         1 RES1    0.0000
     40 C26        2.3776   10.8425   12.5971 C.ar      1 RES1    0.0000
     41 H15        1.6793   11.0714   11.9950 H         1 RES1    0.0000
     42 C27        3.0892    9.6802   12.4047 C.ar      1 RES1    0.0000
     43 H16        2.8595    9.1088   11.6823 H         1 RES1    0.0000
     44 C28        3.2533    7.7720   15.6118 C.ar      1 RES1    0.0000
     45 C29        2.9957    8.4928   16.7773 C.ar      1 RES1    0.0000
     46 H17        3.7110    8.7183   17.3602 H         1 RES1    0.0000
     47 C30        1.7050    8.8829   17.0921 C.ar      1 RES1    0.0000
     48 H18        1.5411    9.3764   17.8871 H         1 RES1    0.0000
     49 C31        0.6499    8.5591   16.2544 C.ar      1 RES1    0.0000
     50 H19       -0.2347    8.8268   16.4731 H         1 RES1    0.0000
     51 C32        0.8933    7.8410   15.0943 C.ar      1 RES1    0.0000
     52 H20        0.1728    7.6148   14.5170 H         1 RES1    0.0000
     53 C33        2.1822    7.4513   14.7729 C.ar      1 RES1    0.0000
     54 H21        2.3400    6.9610   13.9749 H         1 RES1    0.0000
     55 C34        8.2158    4.8604   14.8202 C.ar      1 RES1    0.0000
     56 C35        9.2347    5.2423   13.9499 C.ar      1 RES1    0.0000
     57 H22        9.1061    5.9877   13.3749 H         1 RES1    0.0000
     58 C36       10.4327    4.5490   13.9125 C.ar      1 RES1    0.0000
     59 H23       11.1152    4.8220   13.3104 H         1 RES1    0.0000
     60 C37       10.6448    3.4620   14.7434 C.ar      1 RES1    0.0000
     61 H24       11.4631    2.9823   14.7056 H         1 RES1    0.0000
     62 C38        9.6531    3.0816   15.6297 C.ar      1 RES1    0.0000
     63 H25        9.7938    2.3445   16.2114 H         1 RES1    0.0000
     64 C39        8.4535    3.7751   15.6701 C.ar      1 RES1    0.0000
     65 H26        7.7802    3.5087   16.2862 H         1 RES1    0.0000
     66 C40        7.0463    4.4394   12.1098 C.ar      1 RES1    0.0000
     67 C41        8.0096    4.4144   11.1004 C.ar      1 RES1    0.0000
     68 H27        8.2482    5.2226   10.6626 H         1 RES1    0.0000
     69 C42        8.6197    3.2365   10.7285 C.ar      1 RES1    0.0000
     70 H28        9.2635    3.2441   10.0304 H         1 RES1    0.0000
     71 C43        8.3092    2.0378   11.3571 C.ar      1 RES1    0.0000
     72 C44        8.9482    0.7512   10.9119 C.3       1 RES1    0.0000
     73 H29        8.6148    0.0130   11.4630 H         1 RES1    0.0000
     74 H30        9.9210    0.8186   11.0110 H         1 RES1    0.0000
     75 H31        8.7254    0.5843    9.9726 H         1 RES1    0.0000
     76 C45        7.3765    2.0656   12.3911 C.ar      1 RES1    0.0000
     77 H32        7.1645    1.2626   12.8515 H         1 RES1    0.0000
     78 C46        6.7543    3.2413   12.7575 C.ar      1 RES1    0.0000
     79 H33        6.1170    3.2339   13.4616 H         1 RES1    0.0000
     80 C47        5.4539    4.5557    9.6295 C.ar      1 RES1    0.0000
     81 C48        6.0553    4.0376    8.4748 C.ar      1 RES1    0.0000
     82 H34        6.5913    4.6036    7.9315 H         1 RES1    0.0000
     83 C49        5.8781    2.7111    8.1150 C.ar      1 RES1    0.0000
     84 H35        6.3052    2.3705    7.3384 H         1 RES1    0.0000
     85 C50        5.0812    1.8816    8.8835 C.ar      1 RES1    0.0000
     86 H36        4.9610    0.9719    8.6368 H         1 RES1    0.0000
     87 C51        4.4591    2.3839   10.0161 C.ar      1 RES1    0.0000
     88 H37        3.9043    1.8194   10.5419 H         1 RES1    0.0000
     89 C52        4.6439    3.7067   10.3844 C.ar      1 RES1    0.0000
     90 H38        4.2124    4.0410   11.1622 H         1 RES1    0.0000
@<TRIPOS>BOND
     1    1    2 ar
     2    2    3 ar
     3    3    4 ar
     4    4    5 ar
     5    5    6 ar
     6    6    7 1
     7    8    6 ar
     8    9    8 1
     9   10    8 ar
    10   11    4 ar
    11   12   11 ar
    12   13    2 ar
    13   14   13 ar
    14   15   14 ar
    15   16   15 1
    16   17    1 ar
    17   18   17 1
    18   19    1 1
    19   20   19 ar
    20   21   20 1
    21   22   20 ar
    22   23   22 1
    23   24   22 ar
    24   25   24 1
    25   26   24 ar
    26   27   26 1
    27   28   19 ar
    28   29   28 1
    29   30    3 1
    30   31   30 ar
    31   32   31 1
    32   33   31 ar
    33   34   33 1
    34   35   33 ar
    35   36   35 1
    36   37   36 1
    37   38   36 1
    38   39   36 1
    39   40   35 ar
    40   41   40 1
    41   42   30 ar
    42   43   42 1
    43   44    5 1
    44   45   44 ar
    45   46   45 1
    46   47   45 ar
    47   48   47 1
    48   49   47 ar
    49   50   49 1
    50   51   49 ar
    51   52   51 1
    52   53   44 ar
    53   54   53 1
    54   55   10 1
    55   56   55 ar
    56   57   56 1
    57   58   56 ar
    58   59   58 1
    59   60   58 ar
    60   61   60 1
    61   62   60 ar
    62   63   62 1
    63   64   55 ar
    64   65   64 1
    65   66   12 1
    66   67   66 ar
    67   68   67 1
    68   69   67 ar
    69   70   69 1
    70   71   69 ar
    71   72   71 1
    72   73   72 1
    73   74   72 1
    74   75   72 1
    75   76   71 ar
    76   77   76 1
    77   78   66 ar
    78   79   78 1
    79   80   14 1
    80   81   80 ar
    81   82   81 1
    82   83   81 ar
    83   84   83 1
    84   85   83 ar
    85   86   85 1
    86   87   85 ar
    87   88   87 1
    88   89   80 ar
    89   90   89 1
    90   10   11 ar
    91   12   13 ar
    92   15   17 ar
    93   26   28 ar
    94   40   42 ar
    95   51   53 ar
    96   62   64 ar
    97   76   78 ar
    98   87   89 ar
@<TRIPOS>SUBSTRUCTURE
     1 RES1 1

@<TRIPOS>CRYSIN
  14.8000   14.4630   16.9960  90.0000  90.6671  90.0000  14 2

