# MOL2 file generated by ConQuest
# Please check atom types

@<TRIPOS>MOLECULE
RUTZOV
    56    60     1
SMALL
NO_CHARGES
****
Generated from CSD

@<TRIPOS>ATOM
      1 C1         3.2415    6.2438    1.7153 C.3       1 RES1    0.0000
      2 C2         4.6786    6.6806    2.1466 C.3       1 RES1    0.0000
      3 C3         4.7857    6.9610    3.6425 C.ar      1 RES1    0.0000
      4 C4         3.6958    9.2369    3.7279 C.ar      1 RES1    0.0000
      5 C5         4.0617    7.9973    4.3501 C.ar      1 RES1    0.0000
      6 C6         2.9509   10.1431    4.4391 C.ar      1 RES1    0.0000
      7 C7         2.5798    9.9144    5.7607 C.ar      1 RES1    0.0000
      8 C8         2.9390    8.7711    6.4334 C.ar      1 RES1    0.0000
      9 C9         2.4889    5.5289    2.8294 C.ar      1 RES1    0.0000
     10 C10        3.6873    7.7614    5.7377 C.ar      1 RES1    0.0000
     11 C11        1.5290    6.2835    3.4544 C.ar      1 RES1    0.0000
     12 C12        5.3810    5.9802    4.3859 C.ar      1 RES1    0.0000
     13 C13        4.1595    9.6605    2.3494 C.3       1 RES1    0.0000
     14 C14        2.6223    8.7254    7.9128 C.3       1 RES1    0.0000
     15 H1         2.6908    7.0886    1.5234 H         1 RES1    0.0000
     16 H2         3.3602    5.7407    0.8627 H         1 RES1    0.0000
     17 H3         4.9385    7.4376    1.5602 H         1 RES1    0.0000
     18 H4         5.3118    5.9333    1.9731 H         1 RES1    0.0000
     19 H5         2.7241   10.9880    4.0105 H         1 RES1    0.0000
     20 H6         2.0970   10.6028    6.2315 H         1 RES1    0.0000
     21 H7         1.2085    7.0766    3.0469 H         1 RES1    0.0000
     22 H8         5.9344    5.2713    3.9555 H         1 RES1    0.0000
     23 H9         3.6144    9.2068    1.5969 H         1 RES1    0.0000
     24 H10        5.1794    9.4836    2.2026 H         1 RES1    0.0000
     25 H11        4.0317   10.6269    2.2668 H         1 RES1    0.0000
     26 H12        3.4281    8.5569    8.4983 H         1 RES1    0.0000
     27 H13        2.2012    9.6400    8.1587 H         1 RES1    0.0000
     28 H14        1.9550    8.0033    8.1312 H         1 RES1    0.0000
     29 C9B        4.0638    6.5061    6.3480 C.ar      1 RES1    0.0000
     30 C1B        3.3112    5.7912    7.4621 C.3       1 RES1    0.0000
     31 C2B        1.8741    5.3544    7.0308 C.3       1 RES1    0.0000
     32 C3B        1.7670    5.0740    5.5349 C.ar      1 RES1    0.0000
     33 C5B        2.4910    4.0377    4.8273 C.ar      1 RES1    0.0000
     34 C4B        2.8569    2.7981    5.4495 C.ar      1 RES1    0.0000
     35 C6B        3.6018    1.8919    4.7383 C.ar      1 RES1    0.0000
     36 C7B        3.9729    2.1206    3.4167 C.ar      1 RES1    0.0000
     37 C8B        3.6137    3.2639    2.7440 C.ar      1 RES1    0.0000
     38 C10B       2.8654    4.2736    3.4397 C.ar      1 RES1    0.0000
     39 C12B       1.1717    6.0548    4.7915 C.ar      1 RES1    0.0000
     40 H8B        0.6183    6.7637    5.2219 H         1 RES1    0.0000
     41 C14B       3.9304    3.3096    1.2646 C.3       1 RES1    0.0000
     42 H12B       3.1246    3.4781    0.6791 H         1 RES1    0.0000
     43 H13B       4.3515    2.3950    1.0187 H         1 RES1    0.0000
     44 H14B       4.5977    4.0317    1.0462 H         1 RES1    0.0000
     45 H6B        4.4557    1.4322    2.9459 H         1 RES1    0.0000
     46 H5B        3.8286    1.0470    5.1669 H         1 RES1    0.0000
     47 C13B       2.3932    2.3745    6.8280 C.3       1 RES1    0.0000
     48 H9B        2.9383    2.8282    7.5805 H         1 RES1    0.0000
     49 H10B       1.3733    2.5514    6.9748 H         1 RES1    0.0000
     50 H11B       2.5210    1.4081    6.9106 H         1 RES1    0.0000
     51 H3B        1.6142    4.5974    7.6172 H         1 RES1    0.0000
     52 H4B        1.2409    6.1017    7.2043 H         1 RES1    0.0000
     53 H1B        3.8619    4.9464    7.6539 H         1 RES1    0.0000
     54 H2B        3.1925    6.2943    8.3147 H         1 RES1    0.0000
     55 C11B       5.0237    5.7515    5.7230 C.ar      1 RES1    0.0000
     56 H7B        5.3442    4.9584    6.1305 H         1 RES1    0.0000
@<TRIPOS>BOND
     1    1    2 1
     2    2    3 1
     3    3    5 ar
     4    4    5 ar
     5    5   10 ar
     6    6    4 ar
     7    7    6 ar
     8    8    7 ar
     9    9    1 1
    10   10    8 ar
    11   11    9 ar
    12   12    3 ar
    13   13    4 1
    14   14    8 1
    15   15    1 1
    16   16    1 1
    17   17    2 1
    18   18    2 1
    19   19    6 1
    20   20    7 1
    21   21   11 1
    22   22   12 1
    23   23   13 1
    24   24   13 1
    25   25   13 1
    26   26   14 1
    27   27   14 1
    28   28   14 1
    29   29   10 ar
    30   30   29 1
    31   31   30 1
    32   32   31 1
    33   33   32 ar
    34   34   33 ar
    35   35   34 ar
    36   36   35 ar
    37   37   36 ar
    38   38    9 ar
    39   39   11 ar
    40   40   39 1
    41   41   37 1
    42   42   41 1
    43   43   41 1
    44   44   41 1
    45   45   36 1
    46   46   35 1
    47   47   34 1
    48   48   47 1
    49   49   47 1
    50   50   47 1
    51   51   31 1
    52   52   31 1
    53   53   30 1
    54   54   30 1
    55   55   12 ar
    56   56   55 1
    57   29   55 ar
    58   32   39 ar
    59   33   38 ar
    60   37   38 ar
@<TRIPOS>SUBSTRUCTURE
     1 RES1 1

@<TRIPOS>CRYSIN
   8.7120   12.0350    9.4280  90.0000 103.2400  90.0000 231 1

