# MOL2 file generated by ConQuest
# Please check atom types

@<TRIPOS>MOLECULE
RUZHIF
    59    65     1
SMALL
NO_CHARGES
****
Generated from CSD

@<TRIPOS>ATOM
      1 C1         1.4771    3.4739    5.6249 C.ar      1 RES1    0.0000
      2 C2         0.2895    4.1848    5.3356 C.ar      1 RES1    0.0000
      3 C3         0.3781    5.3564    4.6135 C.ar      1 RES1    0.0000
      4 H1        -0.4017    5.8582    4.4070 H         1 RES1    0.0000
      5 C4         1.6645    5.7987    4.1817 C.ar      1 RES1    0.0000
      6 H2         1.7307    6.6025    3.6797 H         1 RES1    0.0000
      7 C5         2.8110    5.0949    4.4720 C.ar      1 RES1    0.0000
      8 H3         3.6515    5.4223    4.1691 H         1 RES1    0.0000
      9 C6         2.7561    3.8934    5.2130 C.ar      1 RES1    0.0000
     10 C7         3.8320    3.0408    5.5672 C.ar      1 RES1    0.0000
     11 H4         4.7194    3.2747    5.3220 H         1 RES1    0.0000
     12 C8         3.6041    1.8797    6.2621 C.ar      1 RES1    0.0000
     13 H5         4.3449    1.3290    6.4842 H         1 RES1    0.0000
     14 C9         2.2985    1.4672    6.6614 C.ar      1 RES1    0.0000
     15 H6         2.1691    0.6592    7.1435 H         1 RES1    0.0000
     16 C10        1.2336    2.2718    6.3312 C.ar      1 RES1    0.0000
     17 C11       -0.2476    2.2159    6.5146 C.ar      1 RES1    0.0000
     18 C12       -0.8061    3.3812    5.9183 C.ar      1 RES1    0.0000
     19 C13       -2.1825    3.6068    5.9414 C.ar      1 RES1    0.0000
     20 C14       -2.9824    2.6499    6.5712 C.ar      1 RES1    0.0000
     21 H7        -3.9207    2.7962    6.6121 H         1 RES1    0.0000
     22 C15       -2.4600    1.4885    7.1445 C.ar      1 RES1    0.0000
     23 C16       -1.0667    1.2563    7.1319 C.ar      1 RES1    0.0000
     24 C17       -0.5201    0.0598    7.8352 C.ar      1 RES1    0.0000
     25 C18        0.1321   -0.9707    7.1676 C.ar      1 RES1    0.0000
     26 H8         0.2712   -0.9101    6.2296 H         1 RES1    0.0000
     27 C19        0.5802   -2.0817    7.8582 C.ar      1 RES1    0.0000
     28 H9         1.0243   -2.7771    7.3866 H         1 RES1    0.0000
     29 C20        0.3913   -2.1987    9.2207 C.ar      1 RES1    0.0000
     30 H10        0.6946   -2.9685    9.6860 H         1 RES1    0.0000
     31 C21       -0.2398   -1.1859    9.8914 C.ar      1 RES1    0.0000
     32 H11       -0.3687   -1.2503   10.8305 H         1 RES1    0.0000
     33 C22       -0.6947   -0.0612    9.2092 C.ar      1 RES1    0.0000
     34 H12       -1.1292    0.6337    9.6881 H         1 RES1    0.0000
     35 C23       -2.8462    4.7706    5.2958 C.ar      1 RES1    0.0000
     36 C24       -3.1608    4.7504    3.9427 C.ar      1 RES1    0.0000
     37 H13       -2.8953    4.0061    3.4135 H         1 RES1    0.0000
     38 C25       -3.8543    5.7944    3.3537 C.ar      1 RES1    0.0000
     39 H14       -4.0595    5.7604    2.4262 H         1 RES1    0.0000
     40 C26       -4.2419    6.8670    4.0958 C.ar      1 RES1    0.0000
     41 H15       -4.7249    7.5785    3.6912 H         1 RES1    0.0000
     42 C27       -3.9347    6.9151    5.4236 C.ar      1 RES1    0.0000
     43 H16       -4.1892    7.6699    5.9424 H         1 RES1    0.0000
     44 C28       -3.2490    5.8646    6.0210 C.ar      1 RES1    0.0000
     45 H17       -3.0566    5.9029    6.9506 H         1 RES1    0.0000
     46 C29       -3.4436    0.4872    7.6664 C.ar      1 RES1    0.0000
     47 C30       -4.4239    0.8703    8.5919 C.ar      1 RES1    0.0000
     48 H18       -4.4245    1.7564    8.9325 H         1 RES1    0.0000
     49 C31       -5.3917   -0.0255    9.0153 C.ar      1 RES1    0.0000
     50 H19       -6.0472    0.2573    9.6410 H         1 RES1    0.0000
     51 C32       -5.4181   -1.3207    8.5416 C.ar      1 RES1    0.0000
     52 C33       -4.4526   -1.7026    7.6256 C.ar      1 RES1    0.0000
     53 H20       -4.4629   -2.5878    7.2829 H         1 RES1    0.0000
     54 C34       -3.4682   -0.8197    7.1959 C.ar      1 RES1    0.0000
     55 H21       -2.8094   -1.1121    6.5775 H         1 RES1    0.0000
     56 C35       -6.4747   -2.3008    9.0069 C.3       1 RES1    0.0000
     57 H22       -7.3617   -1.8967    8.9094 H         1 RES1    0.0000
     58 H23       -6.3194   -2.5262    9.9480 H         1 RES1    0.0000
     59 H24       -6.4273   -3.1152    8.4640 H         1 RES1    0.0000
@<TRIPOS>BOND
     1    1    2 ar
     2    2    3 ar
     3    3    4 1
     4    5    3 ar
     5    6    5 1
     6    7    5 ar
     7    8    7 1
     8    9    1 ar
     9   10    9 ar
    10   11   10 1
    11   12   10 ar
    12   13   12 1
    13   14   12 ar
    14   15   14 1
    15   16    1 ar
    16   17   16 1
    17   18    2 1
    18   19   18 ar
    19   20   19 ar
    20   21   20 1
    21   22   20 ar
    22   23   17 ar
    23   24   23 1
    24   25   24 ar
    25   26   25 1
    26   27   25 ar
    27   28   27 1
    28   29   27 ar
    29   30   29 1
    30   31   29 ar
    31   32   31 1
    32   33   24 ar
    33   34   33 1
    34   35   19 1
    35   36   35 ar
    36   37   36 1
    37   38   36 ar
    38   39   38 1
    39   40   38 ar
    40   41   40 1
    41   42   40 ar
    42   43   42 1
    43   44   35 ar
    44   45   44 1
    45   46   22 1
    46   47   46 ar
    47   48   47 1
    48   49   47 ar
    49   50   49 1
    50   51   49 ar
    51   52   51 ar
    52   53   52 1
    53   54   46 ar
    54   55   54 1
    55   56   51 1
    56   57   56 1
    57   58   56 1
    58   59   56 1
    59    7    9 ar
    60   14   16 ar
    61   17   18 ar
    62   22   23 ar
    63   31   33 ar
    64   42   44 ar
    65   52   54 ar
@<TRIPOS>SUBSTRUCTURE
     1 RES1 1

@<TRIPOS>CRYSIN
  10.7170   21.2640   11.4200  90.0000 113.4040  90.0000  14 1

