# MOL2 file generated by ConQuest
# Please check atom types

@<TRIPOS>MOLECULE
RUZHEB
    56    62     1
SMALL
NO_CHARGES
****
Generated from CSD

@<TRIPOS>ATOM
      1 C1         6.5859   -0.9020    6.4300 C.ar      1 RES1    0.0000
      2 C2         5.3438   -1.4087    6.8910 C.ar      1 RES1    0.0000
      3 C3         5.3144   -2.6949    7.3840 C.ar      1 RES1    0.0000
      4 H1         4.5100   -3.0584    7.7352 H         1 RES1    0.0000
      5 C4         6.5017   -3.4658    7.3581 C.ar      1 RES1    0.0000
      6 H2         6.4691   -4.3621    7.6745 H         1 RES1    0.0000
      7 C5         7.6952   -2.9759    6.8959 C.ar      1 RES1    0.0000
      8 H3         8.4679   -3.5291    6.8974 H         1 RES1    0.0000
      9 C6         7.7754   -1.6448    6.4164 C.ar      1 RES1    0.0000
     10 C7         8.9286   -0.9789    5.9145 C.ar      1 RES1    0.0000
     11 H4         9.7661   -1.4269    5.8958 H         1 RES1    0.0000
     12 C8         8.8267    0.3095    5.4582 C.ar      1 RES1    0.0000
     13 H5         9.6019    0.7295    5.1031 H         1 RES1    0.0000
     14 C9         7.6106    1.0452    5.4937 C.ar      1 RES1    0.0000
     15 H6         7.5749    1.9371    5.1681 H         1 RES1    0.0000
     16 C10        6.4840    0.4419    6.0085 C.ar      1 RES1    0.0000
     17 C11        5.0732    0.8421    6.2475 C.ar      1 RES1    0.0000
     18 C12        4.3680   -0.3026    6.7178 C.ar      1 RES1    0.0000
     19 C13        2.9880   -0.2366    6.9312 C.ar      1 RES1    0.0000
     20 C14        2.3657    0.9959    6.7312 C.ar      1 RES1    0.0000
     21 H7         1.4288    1.0548    6.8740 H         1 RES1    0.0000
     22 C15        3.0483    2.1463    6.3329 C.ar      1 RES1    0.0000
     23 C16        4.4396    2.0753    6.0863 C.ar      1 RES1    0.0000
     24 C17        5.2040    3.2842    5.6633 C.ar      1 RES1    0.0000
     25 C18        6.2440    3.7855    6.4513 C.ar      1 RES1    0.0000
     26 H8         6.4746    3.3492    7.2630 H         1 RES1    0.0000
     27 C19        6.9425    4.9179    6.0539 C.ar      1 RES1    0.0000
     28 H9         7.6510    5.2494    6.5924 H         1 RES1    0.0000
     29 C20        6.6099    5.5663    4.8725 C.ar      1 RES1    0.0000
     30 H10        7.0871    6.3436    4.6040 H         1 RES1    0.0000
     31 C21        5.5751    5.0736    4.0840 C.ar      1 RES1    0.0000
     32 H11        5.3475    5.5131    3.2732 H         1 RES1    0.0000
     33 C22        4.8766    3.9439    4.4795 C.ar      1 RES1    0.0000
     34 H12        4.1671    3.6154    3.9386 H         1 RES1    0.0000
     35 C23        2.1640   -1.4038    7.3510 C.ar      1 RES1    0.0000
     36 C24        2.1970   -2.6069    6.6371 C.ar      1 RES1    0.0000
     37 H13        2.7541   -2.6838    5.8716 H         1 RES1    0.0000
     38 C25        1.4245   -3.6856    7.0373 C.ar      1 RES1    0.0000
     39 H14        1.4547   -4.4977    6.5439 H         1 RES1    0.0000
     40 C26        0.6061   -3.5873    8.1555 C.ar      1 RES1    0.0000
     41 H15        0.0913   -4.3350    8.4387 H         1 RES1    0.0000
     42 C27        0.5465   -2.3947    8.8534 C.ar      1 RES1    0.0000
     43 H16       -0.0216   -2.3191    9.6109 H         1 RES1    0.0000
     44 C28        1.3132   -1.3057    8.4527 C.ar      1 RES1    0.0000
     45 H17        1.2572   -0.4880    8.9334 H         1 RES1    0.0000
     46 C29        2.2641    3.4126    6.2263 C.ar      1 RES1    0.0000
     47 C30        1.0470    3.4276    5.5381 C.ar      1 RES1    0.0000
     48 H18        0.7665    2.6543    5.0641 H         1 RES1    0.0000
     49 C31        0.2439    4.5598    5.5380 C.ar      1 RES1    0.0000
     50 H19       -0.5750    4.5618    5.0572 H         1 RES1    0.0000
     51 C32        0.6348    5.6888    6.2389 C.ar      1 RES1    0.0000
     52 H20        0.0710    6.4520    6.2658 H         1 RES1    0.0000
     53 C33        1.8535    5.6981    6.9030 C.ar      1 RES1    0.0000
     54 H21        2.1299    6.4767    7.3730 H         1 RES1    0.0000
     55 C34        2.6674    4.5775    6.8822 C.ar      1 RES1    0.0000
     56 H22        3.5105    4.6012    7.3193 H         1 RES1    0.0000
@<TRIPOS>BOND
     1    1    2 ar
     2    2    3 ar
     3    3    4 1
     4    5    3 ar
     5    6    5 1
     6    7    5 ar
     7    8    7 1
     8    9    1 ar
     9   10    9 ar
    10   11   10 1
    11   12   10 ar
    12   13   12 1
    13   14   12 ar
    14   15   14 1
    15   16    1 ar
    16   17   16 1
    17   18    2 1
    18   19   18 ar
    19   20   19 ar
    20   21   20 1
    21   22   20 ar
    22   23   17 ar
    23   24   23 1
    24   25   24 ar
    25   26   25 1
    26   27   25 ar
    27   28   27 1
    28   29   27 ar
    29   30   29 1
    30   31   29 ar
    31   32   31 1
    32   33   24 ar
    33   34   33 1
    34   35   19 1
    35   36   35 ar
    36   37   36 1
    37   38   36 ar
    38   39   38 1
    39   40   38 ar
    40   41   40 1
    41   42   40 ar
    42   43   42 1
    43   44   35 ar
    44   45   44 1
    45   46   22 1
    46   47   46 ar
    47   48   47 1
    48   49   47 ar
    49   50   49 1
    50   51   49 ar
    51   52   51 1
    52   53   51 ar
    53   54   53 1
    54   55   46 ar
    55   56   55 1
    56    7    9 ar
    57   14   16 ar
    58   17   18 ar
    59   22   23 ar
    60   31   33 ar
    61   42   44 ar
    62   53   55 ar
@<TRIPOS>SUBSTRUCTURE
     1 RES1 1

@<TRIPOS>CRYSIN
  10.4175   24.6449    8.6723  90.0000  92.5120  90.0000  14 1

