# MOL2 file generated by ConQuest
# Please check atom types

@<TRIPOS>MOLECULE
SAHKIY
    39    44     1
SMALL
NO_CHARGES
****
Generated from CSD

@<TRIPOS>ATOM
      1 C1         1.1381    3.7427    3.1537 C.ar      1 RES1    0.0000
      2 C2         0.1613    3.2241    2.3663 C.ar      1 RES1    0.0000
      3 H1        -0.5976    3.7279    2.1797 H         1 RES1    0.0000
      4 C3         0.2925    1.9233    1.8311 C.ar      1 RES1    0.0000
      5 C4        -0.6765    1.3655    0.9846 C.ar      1 RES1    0.0000
      6 H2        -1.4462    1.8496    0.7915 H         1 RES1    0.0000
      7 C5        -0.5110    0.1360    0.4460 C.ar      1 RES1    0.0000
      8 H3        -1.1676   -0.2154   -0.1131 H         1 RES1    0.0000
      9 C6         0.6350   -0.6103    0.7196 C.ar      1 RES1    0.0000
     10 H4         0.7427   -1.4556    0.3486 H         1 RES1    0.0000
     11 C7         1.5973   -0.0909    1.5368 C.ar      1 RES1    0.0000
     12 H5         2.3617   -0.5922    1.7086 H         1 RES1    0.0000
     13 C8         1.4661    1.1779    2.1232 C.ar      1 RES1    0.0000
     14 C9         2.4718    1.7521    2.9445 C.ar      1 RES1    0.0000
     15 H6         3.2452    1.2705    3.1314 H         1 RES1    0.0000
     16 C10        2.3159    2.9899    3.4539 C.ar      1 RES1    0.0000
     17 C11        3.2036    3.8835    4.2910 C.3       1 RES1    0.0000
     18 H7         4.1516    3.6394    4.3343 H         1 RES1    0.0000
     19 C12        2.5019    4.1039    5.6195 C.ar      1 RES1    0.0000
     20 C13        2.8275    3.7689    6.8906 C.ar      1 RES1    0.0000
     21 H8         3.6063    3.2921    7.0668 H         1 RES1    0.0000
     22 C14        1.9584    4.1563    7.9534 C.ar      1 RES1    0.0000
     23 C15        2.2377    3.8385    9.2996 C.ar      1 RES1    0.0000
     24 H9         3.0147    3.3732    9.5103 H         1 RES1    0.0000
     25 C16        1.3776    4.2063   10.2974 C.ar      1 RES1    0.0000
     26 H10        1.5793    3.9933   11.1812 H         1 RES1    0.0000
     27 C17        0.2076    4.8952   10.0078 C.ar      1 RES1    0.0000
     28 H11       -0.3719    5.1319   10.6944 H         1 RES1    0.0000
     29 C18       -0.0963    5.2253    8.7236 C.ar      1 RES1    0.0000
     30 H12       -0.8775    5.6963    8.5430 H         1 RES1    0.0000
     31 C19        0.7625    4.8600    7.6626 C.ar      1 RES1    0.0000
     32 C20        0.4640    5.2073    6.3149 C.ar      1 RES1    0.0000
     33 H13       -0.3118    5.6783    6.1120 H         1 RES1    0.0000
     34 C21        1.3235    4.8444    5.3271 C.ar      1 RES1    0.0000
     35 C22        1.3331    5.0918    3.8246 C.3       1 RES1    0.0000
     36 H14        0.7758    5.8290    3.4989 H         1 RES1    0.0000
     37 C23        2.8714    5.2318    3.6125 C.3       1 RES1    0.0000
     38 H15        3.1230    5.2548    2.6760 H         1 RES1    0.0000
     39 H16        3.2488    5.9928    4.0799 H         1 RES1    0.0000
@<TRIPOS>BOND
     1    1    2 ar
     2    2    3 1
     3    4    2 ar
     4    5    4 ar
     5    6    5 1
     6    7    5 ar
     7    8    7 1
     8    9    7 ar
     9   10    9 1
    10   11    9 ar
    11   12   11 1
    12   13    4 ar
    13   14   13 ar
    14   15   14 1
    15   16    1 ar
    16   17   16 1
    17   18   17 1
    18   19   17 1
    19   20   19 ar
    20   21   20 1
    21   22   20 ar
    22   23   22 ar
    23   24   23 1
    24   25   23 ar
    25   26   25 1
    26   27   25 ar
    27   28   27 1
    28   29   27 ar
    29   30   29 1
    30   31   22 ar
    31   32   31 ar
    32   33   32 1
    33   34   19 ar
    34   35    1 1
    35   36   35 1
    36   37   17 1
    37   38   37 1
    38   39   37 1
    39   11   13 ar
    40   14   16 ar
    41   29   31 ar
    42   32   34 ar
    43   34   35 1
    44   35   37 1
@<TRIPOS>SUBSTRUCTURE
     1 RES1 1

@<TRIPOS>CRYSIN
   6.0185    8.1914   31.4080  90.0000  90.0000  90.0000  19 1

