# MOL2 file generated by ConQuest
# Please check atom types

@<TRIPOS>MOLECULE
SALFUG
    68    74     2
SMALL
NO_CHARGES
****
Generated from CSD

@<TRIPOS>ATOM
      1 C1         2.9577   -1.0455    5.2780 C.ar      1 RES1    0.0000
      2 C2         3.1709   -0.3193    6.4249 C.ar      1 RES1    0.0000
      3 C3         3.8789    0.9095    6.3647 C.ar      1 RES1    0.0000
      4 C4         4.6186    1.2063    5.2432 C.ar      1 RES1    0.0000
      5 C5         4.7554    1.0804    2.7879 C.ar      1 RES1    0.0000
      6 C6         3.9797    0.8870    1.6823 C.ar      1 RES1    0.0000
      7 C7         2.8035    0.0821    1.7741 C.ar      1 RES1    0.0000
      8 C8         2.6413   -0.7420    2.8513 C.ar      1 RES1    0.0000
      9 C9         3.4046   -0.5317    4.0393 C.ar      1 RES1    0.0000
     10 C10        4.3713    0.5126    4.0361 C.ar      1 RES1    0.0000
     11 C11        0.8752    1.6537    5.3224 C.ar      1 RES1    0.0000
     12 C12        1.8511    2.6284    5.5030 C.ar      1 RES1    0.0000
     13 C13        2.2914    3.3096    4.3815 C.ar      1 RES1    0.0000
     14 C14        1.8665    2.9600    3.1079 C.ar      1 RES1    0.0000
     15 C15        0.9939    1.9010    2.9115 C.ar      1 RES1    0.0000
     16 C16        0.4552    1.2917    4.0457 C.ar      1 RES1    0.0000
     17 C17        0.7666    1.3434    1.5429 C.2       1 RES1    0.0000
     18 C18        1.6053    0.4913    0.9631 C.2       1 RES1    0.0000
     19 C19        2.5015    2.8296    6.8336 C.2       1 RES1    0.0000
     20 C20        3.4728    2.0179    7.2803 C.2       1 RES1    0.0000
     21 C21        0.8578   -4.3203    2.6865 C.ar      2 RES2    0.0000
     22 C22        0.0626   -4.0853    1.6126 C.ar      2 RES2    0.0000
     23 C23       -1.1145   -3.2973    1.7361 C.ar      2 RES2    0.0000
     24 C24       -1.2507   -2.5115    2.8481 C.ar      2 RES2    0.0000
     25 C25       -0.8942   -2.2911    5.2780 C.ar      2 RES2    0.0000
     26 C26       -0.6702   -3.0398    6.3837 C.ar      2 RES2    0.0000
     27 C27        0.0211   -4.2787    6.2887 C.ar      2 RES2    0.0000
     28 C28        0.7444   -4.5328    5.1386 C.ar      2 RES2    0.0000
     29 C29        0.4867   -3.8009    3.9569 C.ar      2 RES2    0.0000
     30 C30       -0.4734   -2.7599    4.0045 C.ar      2 RES2    0.0000
     31 C31       -2.0362   -6.2393    2.9717 C.ar      2 RES2    0.0000
     32 C32       -2.9096   -5.1601    2.8354 C.ar      2 RES2    0.0000
     33 C33       -3.4190   -4.5946    4.0013 C.ar      2 RES2    0.0000
     34 C34       -2.9754   -5.0038    5.2527 C.ar      2 RES2    0.0000
     35 C35       -1.9956   -5.9897    5.3731 C.ar      2 RES2    0.0000
     36 C36       -1.5687   -6.6451    4.2136 C.ar      2 RES2    0.0000
     37 C37       -1.3161   -6.2269    6.6973 C.2       2 RES2    0.0000
     38 C38       -0.3628   -5.4186    7.1567 C.2       2 RES2    0.0000
     39 C39       -3.1762   -4.5294    1.4953 C.2       2 RES2    0.0000
     40 C40       -2.3373   -3.6683    0.9536 C.2       2 RES2    0.0000
     41 H1         2.3386   -1.8909    5.3604 H         1 RES1    0.0000
     42 H2         2.5364   -0.5205    7.3024 H         1 RES1    0.0000
     43 H3         5.1634    2.0854    5.2844 H         1 RES1    0.0000
     44 H4         5.5725    1.7167    2.8703 H         1 RES1    0.0000
     45 H5         4.1558    1.5053    0.8395 H         1 RES1    0.0000
     46 H6         1.7741   -1.3715    2.8988 H         1 RES1    0.0000
     47 H7         0.5485    1.1613    6.1904 H         1 RES1    0.0000
     48 H8         2.7950    4.2056    4.4036 H         1 RES1    0.0000
     49 H9         2.1801    3.4861    2.2588 H         1 RES1    0.0000
     50 H10       -0.0897    0.3968    3.9760 H         1 RES1    0.0000
     51 H11       -0.0276    1.7493    0.9251 H         1 RES1    0.0000
     52 H12        1.4939    0.1956   -0.0570 H         1 RES1    0.0000
     53 H13        2.3365    3.6098    7.4989 H         1 RES1    0.0000
     54 H14        3.8824    2.1821    8.1737 H         1 RES1    0.0000
     55 H15        1.6955   -5.0938    2.7214 H         2 RES2    0.0000
     56 H16        0.1891   -4.5204    0.6590 H         2 RES2    0.0000
     57 H17       -2.0762   -1.8887    2.8861 H         2 RES2    0.0000
     58 H18       -1.4205   -1.3794    5.3192 H         2 RES2    0.0000
     59 H19       -1.2111   -2.8071    7.3120 H         2 RES2    0.0000
     60 H20        1.2601   -5.4749    5.1545 H         2 RES2    0.0000
     61 H21       -1.4679   -6.5687    2.1923 H         2 RES2    0.0000
     62 H22       -4.0382   -3.7706    3.8714 H         2 RES2    0.0000
     63 H23       -3.3590   -4.3934    6.1366 H         2 RES2    0.0000
     64 H24       -0.8924   -7.4602    4.3561 H         2 RES2    0.0000
     65 H25       -1.4992   -7.0892    7.2137 H         2 RES2    0.0000
     66 H26        0.0261   -5.6896    8.1388 H         2 RES2    0.0000
     67 H27       -3.8370   -5.1455    0.9346 H         2 RES2    0.0000
     68 H28       -2.4549   -3.2703   -0.0253 H         2 RES2    0.0000
@<TRIPOS>BOND
     1    1    2 ar
     2    2    3 ar
     3    3    4 ar
     4    4   10 ar
     5    5    6 ar
     6    6    7 ar
     7    7    8 ar
     8    8    9 ar
     9    9    1 ar
    10   10    5 ar
    11   11   12 ar
    12   12   13 ar
    13   13   14 ar
    14   14   15 ar
    15   15   16 ar
    16   16   11 ar
    17   17   15 1
    18   18    7 1
    19   19   12 1
    20   20    3 1
    21   21   22 ar
    22   22   23 ar
    23   23   24 ar
    24   24   30 ar
    25   25   26 ar
    26   26   27 ar
    27   27   28 ar
    28   28   29 ar
    29   29   21 ar
    30   30   25 ar
    31   31   32 ar
    32   32   33 ar
    33   33   34 ar
    34   34   35 ar
    35   35   36 ar
    36   36   31 ar
    37   37   35 1
    38   38   27 1
    39   39   32 1
    40   40   23 1
    41   41    1 1
    42   42    2 1
    43   43    4 1
    44   44    5 1
    45   45    6 1
    46   46    8 1
    47   47   11 1
    48   48   13 1
    49   49   14 1
    50   50   16 1
    51   51   17 1
    52   52   18 1
    53   53   19 1
    54   54   20 1
    55   55   21 1
    56   56   22 1
    57   57   24 1
    58   58   25 1
    59   59   26 1
    60   60   28 1
    61   61   31 1
    62   62   33 1
    63   63   34 1
    64   64   36 1
    65   65   37 1
    66   66   38 1
    67   67   39 1
    68   68   40 1
    69    9   10 ar
    70   17   18 2
    71   19   20 2
    72   29   30 ar
    73   37   38 2
    74   39   40 2
@<TRIPOS>SUBSTRUCTURE
     1 RES1 1
     2 RES2 21

@<TRIPOS>CRYSIN
   7.7380   11.2420   31.7720  90.0000  94.3400  90.0000  14 1

