# MOL2 file generated by ConQuest
# Please check atom types

@<TRIPOS>MOLECULE
SALFOA
    38    41     1
SMALL
NO_CHARGES
****
Generated from CSD

@<TRIPOS>ATOM
      1 C1         8.2213    2.9958    4.7854 C.ar      1 RES1    0.0000
      2 C2         7.4789    2.6645    5.8903 C.ar      1 RES1    0.0000
      3 C3         6.3304    1.8236    5.7550 C.ar      1 RES1    0.0000
      4 C4         6.1420    1.1345    4.5808 C.ar      1 RES1    0.0000
      5 C5         6.3716    1.1445    2.1229 C.ar      1 RES1    0.0000
      6 C6         6.5702    1.9953    1.0711 C.ar      1 RES1    0.0000
      7 C7         7.3016    3.1985    1.2274 C.ar      1 RES1    0.0000
      8 C8         8.0765    3.3514    2.3726 C.ar      1 RES1    0.0000
      9 C9         7.8097    2.5482    3.5210 C.ar      1 RES1    0.0000
     10 C10        6.8528    1.5178    3.4050 C.ar      1 RES1    0.0000
     11 C11        5.4479    4.9268    4.6968 C.ar      1 RES1    0.0000
     12 C12        4.5867    3.8788    4.9400 C.ar      1 RES1    0.0000
     13 C13        3.9353    3.3060    3.8399 C.ar      1 RES1    0.0000
     14 C14        4.2345    3.7148    2.5481 C.ar      1 RES1    0.0000
     15 C15        5.1772    4.6908    2.2824 C.ar      1 RES1    0.0000
     16 C16        5.7542    5.3057    3.3841 C.ar      1 RES1    0.0000
     17 C17        5.6038    5.0199    0.8666 C.3       1 RES1    0.0000
     18 C18        6.9731    4.4061    0.4027 C.3       1 RES1    0.0000
     19 C19        4.3928    3.3503    6.3655 C.3       1 RES1    0.0000
     20 C20        5.1859    2.0142    6.6973 C.3       1 RES1    0.0000
     21 H1         8.7223    3.8333    4.8321 H         1 RES1    0.0000
     22 H2         7.9546    2.8473    6.8777 H         1 RES1    0.0000
     23 H3         5.4059    0.5540    4.5905 H         1 RES1    0.0000
     24 H4         5.6830    0.3988    2.0134 H         1 RES1    0.0000
     25 H5         6.0312    1.8502    0.3060 H         1 RES1    0.0000
     26 H6         8.6194    4.1214    2.6254 H         1 RES1    0.0000
     27 H7         6.0154    5.3290    5.4925 H         1 RES1    0.0000
     28 H8         3.2689    2.5592    3.9140 H         1 RES1    0.0000
     29 H9         3.7675    3.3569    1.8523 H         1 RES1    0.0000
     30 H10        6.2212    5.8719    3.2375 H         1 RES1    0.0000
     31 H11        4.8915    4.4981    0.1289 H         1 RES1    0.0000
     32 H12        5.6513    6.0270    0.6443 H         1 RES1    0.0000
     33 H13        7.0839    4.2654   -0.5960 H         1 RES1    0.0000
     34 H14        7.7804    5.1185    0.5476 H         1 RES1    0.0000
     35 H15        3.4430    3.2794    6.9260 H         1 RES1    0.0000
     36 H16        4.7965    4.1214    7.0388 H         1 RES1    0.0000
     37 H17        5.7225    2.1936    7.7153 H         1 RES1    0.0000
     38 H18        4.4166    1.2519    6.4750 H         1 RES1    0.0000
@<TRIPOS>BOND
     1    1    2 ar
     2    2    3 ar
     3    3    4 ar
     4    4   10 ar
     5    5    6 ar
     6    6    7 ar
     7    7    8 ar
     8    8    9 ar
     9    9    1 ar
    10   10    5 ar
    11   11   12 ar
    12   12   13 ar
    13   13   14 ar
    14   14   15 ar
    15   15   16 ar
    16   16   11 ar
    17   17   15 1
    18   18    7 1
    19   19   12 1
    20   20    3 1
    21   21    1 1
    22   22    2 1
    23   23    4 1
    24   24    5 1
    25   25    6 1
    26   26    8 1
    27   27   11 1
    28   28   13 1
    29   29   14 1
    30   30   16 1
    31   31   17 1
    32   32   17 1
    33   33   18 1
    34   34   18 1
    35   35   19 1
    36   36   19 1
    37   37   20 1
    38   38   20 1
    39    9   10 ar
    40   17   18 1
    41   19   20 1
@<TRIPOS>SUBSTRUCTURE
     1 RES1 1

@<TRIPOS>CRYSIN
   7.9150   11.0790   16.1070  90.0000  90.0000  90.0000  19 1

