# MOL2 file generated by ConQuest
# Please check atom types

@<TRIPOS>MOLECULE
SANTOP10
   112   124     2
SMALL
NO_CHARGES
****
Generated from CSD

@<TRIPOS>ATOM
      1 C1         6.8884   10.7052    6.6330 C.3       1 RES1    0.0000
      2 C2         8.2916   10.1329    6.5490 C.ar      1 RES1    0.0000
      3 C3         9.0493    9.9886    7.6754 C.ar      1 RES1    0.0000
      4 C4        10.0607    8.9941    7.7764 C.ar      1 RES1    0.0000
      5 C5        10.3189    8.1528    6.7365 C.ar      1 RES1    0.0000
      6 C6        10.9167    6.7768    7.0274 C.3       1 RES1    0.0000
      7 C7         9.8132    8.4993    5.4265 C.ar      1 RES1    0.0000
      8 C8        10.2583    7.8814    4.2637 C.ar      1 RES1    0.0000
      9 C9         9.7389    8.2034    2.9986 C.ar      1 RES1    0.0000
     10 C10       10.2077    7.5952    1.8044 C.ar      1 RES1    0.0000
     11 C11        9.6973    7.9490    0.5986 C.ar      1 RES1    0.0000
     12 C12        8.6789    8.9240    0.5057 C.ar      1 RES1    0.0000
     13 C13        8.1937    9.5313    1.6230 C.ar      1 RES1    0.0000
     14 C14        8.7021    9.1987    2.9079 C.ar      1 RES1    0.0000
     15 C15        8.2552    9.8117    4.0835 C.ar      1 RES1    0.0000
     16 C16        8.7778    9.5003    5.3404 C.ar      1 RES1    0.0000
     17 C17        5.8177    9.6528    7.1497 C.3       1 RES1    0.0000
     18 C18        6.4078    8.2808    7.3600 C.ar      1 RES1    0.0000
     19 C19        6.9142    7.9368    8.5761 C.ar      1 RES1    0.0000
     20 C20        7.9112    6.9561    8.7057 C.ar      1 RES1    0.0000
     21 C21        8.4411    6.3072    7.6090 C.ar      1 RES1    0.0000
     22 C22        9.8484    5.7586    7.6398 C.3       1 RES1    0.0000
     23 C23        7.7232    6.4115    6.3763 C.ar      1 RES1    0.0000
     24 C24        8.0465    5.6322    5.2732 C.ar      1 RES1    0.0000
     25 C25        7.4239    5.7830    4.0250 C.ar      1 RES1    0.0000
     26 C26        7.7979    5.0290    2.8806 C.ar      1 RES1    0.0000
     27 C27        7.1732    5.2059    1.6859 C.ar      1 RES1    0.0000
     28 C28        6.1482    6.1792    1.5459 C.ar      1 RES1    0.0000
     29 C29        5.7755    6.9374    2.6184 C.ar      1 RES1    0.0000
     30 C30        6.3876    6.7792    3.8950 C.ar      1 RES1    0.0000
     31 C31        6.0330    7.5512    5.0020 C.ar      1 RES1    0.0000
     32 C32        6.6829    7.4167    6.2441 C.ar      1 RES1    0.0000
     33 H1         6.5342   11.0215    5.7467 H         1 RES1    0.0000
     34 H2         6.8251   11.4373    7.1873 H         1 RES1    0.0000
     35 H3         8.7540   10.4753    8.4737 H         1 RES1    0.0000
     36 H4        10.4552    8.7634    8.6951 H         1 RES1    0.0000
     37 H5        11.6704    6.8884    7.7189 H         1 RES1    0.0000
     38 H6        11.2730    6.3830    6.2486 H         1 RES1    0.0000
     39 H7        10.9730    7.1819    4.3238 H         1 RES1    0.0000
     40 H8        10.9407    6.9129    1.8853 H         1 RES1    0.0000
     41 H9        10.1242    7.4754   -0.1620 H         1 RES1    0.0000
     42 H10        8.3575    9.1710   -0.3952 H         1 RES1    0.0000
     43 H11        7.4169   10.0840    1.5276 H         1 RES1    0.0000
     44 H12        7.5338   10.4753    4.0274 H         1 RES1    0.0000
     45 H13        4.9980    9.7172    6.4976 H         1 RES1    0.0000
     46 H14        5.3929    9.9128    8.0212 H         1 RES1    0.0000
     47 H15        6.7284    8.5188    9.3551 H         1 RES1    0.0000
     48 H16        8.4000    6.8314    9.6081 H         1 RES1    0.0000
     49 H17       10.1828    5.5271    8.6121 H         1 RES1    0.0000
     50 H18        9.9460    4.8015    7.1339 H         1 RES1    0.0000
     51 H19        8.8245    5.0135    5.3040 H         1 RES1    0.0000
     52 H20        8.5419    4.3939    2.9721 H         1 RES1    0.0000
     53 H21        7.3886    4.6466    0.8616 H         1 RES1    0.0000
     54 H22        5.6747    6.3341    0.5691 H         1 RES1    0.0000
     55 H23        5.0272    7.6303    2.4583 H         1 RES1    0.0000
     56 H24        5.3243    8.2254    4.8732 H         1 RES1    0.0000
     57 C33        3.3652    6.6178    8.2386 C.3       2 RES2    0.0000
     58 C34        2.7677    5.2328    8.3269 C.ar      2 RES2    0.0000
     59 C35        2.0612    4.8749    9.4492 C.ar      2 RES2    0.0000
     60 C36        1.0340    3.9040    9.4019 C.ar      2 RES2    0.0000
     61 C37        0.6842    3.2820    8.2277 C.ar      2 RES2    0.0000
     62 C38       -0.7248    2.7627    8.0463 C.3       2 RES2    0.0000
     63 C39        1.6346    3.3651    7.1329 C.ar      2 RES2    0.0000
     64 C40        1.5397    2.5369    6.0073 C.ar      2 RES2    0.0000
     65 C41        2.4572    2.6021    4.9501 C.ar      2 RES2    0.0000
     66 C42        2.3450    1.7747    3.7954 C.ar      2 RES2    0.0000
     67 C43        3.2568    1.8676    2.7820 C.ar      2 RES2    0.0000
     68 C44        4.3433    2.7896    2.8654 C.ar      2 RES2    0.0000
     69 C45        4.4752    3.6048    3.9484 C.ar      2 RES2    0.0000
     70 C46        3.5281    3.5453    5.0252 C.ar      2 RES2    0.0000
     71 C47        3.6248    4.3988    6.1324 C.ar      2 RES2    0.0000
     72 C48        2.6952    4.3393    7.1918 C.ar      2 RES2    0.0000
     73 C49        2.2774    7.7697    8.2850 C.3       2 RES2    0.0000
     74 C50        0.8781    7.2545    8.0024 C.ar      2 RES2    0.0000
     75 C51       -0.0384    7.0939    8.9994 C.ar      2 RES2    0.0000
     76 C52       -1.0649    6.1222    8.9198 C.ar      2 RES2    0.0000
     77 C53       -1.1930    5.2996    7.8351 C.ar      2 RES2    0.0000
     78 C54       -1.8110    3.9309    7.9485 C.3       2 RES2    0.0000
     79 C55       -0.4600    5.6542    6.6314 C.ar      2 RES2    0.0000
     80 C56       -0.6725    4.9931    5.4216 C.ar      2 RES2    0.0000
     81 C57        0.1456    5.2238    4.3029 C.ar      2 RES2    0.0000
     82 C58       -0.0095    4.4836    3.0891 C.ar      2 RES2    0.0000
     83 C59        0.8541    4.6719    2.0522 C.ar      2 RES2    0.0000
     84 C60        1.9304    5.5996    2.1540 C.ar      2 RES2    0.0000
     85 C61        2.1074    6.3260    3.2873 C.ar      2 RES2    0.0000
     86 C62        1.2104    6.1784    4.4005 C.ar      2 RES2    0.0000
     87 C63        1.3963    6.8648    5.5998 C.ar      2 RES2    0.0000
     88 C64        0.5888    6.6317    6.7233 C.ar      2 RES2    0.0000
     89 H25        3.8745    6.7091    7.3414 H         2 RES2    0.0000
     90 H26        3.9722    6.7254    8.9658 H         2 RES2    0.0000
     91 H27        2.1466    5.3803   10.3155 H         2 RES2    0.0000
     92 H28        0.3884    3.7581   10.1416 H         2 RES2    0.0000
     93 H29       -1.0238    2.2010    8.7899 H         2 RES2    0.0000
     94 H30       -0.7631    2.1684    7.2248 H         2 RES2    0.0000
     95 H31        0.7757    1.8831    5.9403 H         2 RES2    0.0000
     96 H32        1.5214    1.1168    3.7448 H         2 RES2    0.0000
     97 H33        3.0687    1.3614    1.9860 H         2 RES2    0.0000
     98 H34        4.9651    2.9184    2.1323 H         2 RES2    0.0000
     99 H35        5.2501    4.2390    3.9938 H         2 RES2    0.0000
    100 H36        4.3681    5.0298    6.1300 H         2 RES2    0.0000
    101 H37        2.5924    8.4292    7.6438 H         2 RES2    0.0000
    102 H38        2.3454    8.1520    9.1970 H         2 RES2    0.0000
    103 H39        0.1466    7.3694    9.8986 H         2 RES2    0.0000
    104 H40       -1.5398    5.7716    9.7148 H         2 RES2    0.0000
    105 H41       -2.3751    3.9456    8.7820 H         2 RES2    0.0000
    106 H42       -2.3595    3.6929    7.2525 H         2 RES2    0.0000
    107 H43       -1.4269    4.3450    5.3218 H         2 RES2    0.0000
    108 H44       -0.7960    3.8967    3.0196 H         2 RES2    0.0000
    109 H45        0.6573    4.1820    1.2232 H         2 RES2    0.0000
    110 H46        2.4910    5.7227    1.4189 H         2 RES2    0.0000
    111 H47        2.8120    6.9455    3.3417 H         2 RES2    0.0000
    112 H48        2.1029    7.4917    5.7032 H         2 RES2    0.0000
@<TRIPOS>BOND
     1    1    2 1
     2    2    3 ar
     3    3    4 ar
     4    4    5 ar
     5    5    6 1
     6    6   22 1
     7    7    5 ar
     8    8    7 ar
     9    9    8 ar
    10   10    9 ar
    11   11   10 ar
    12   12   11 ar
    13   13   12 ar
    14   14    9 ar
    15   15   14 ar
    16   16    2 ar
    17   17    1 1
    18   18   17 1
    19   19   18 ar
    20   20   19 ar
    21   21   20 ar
    22   22   21 1
    23   23   21 ar
    24   24   23 ar
    25   25   24 ar
    26   26   25 ar
    27   27   26 ar
    28   28   27 ar
    29   29   28 ar
    30   30   25 ar
    31   31   30 ar
    32   32   18 ar
    33   33    1 1
    34   34    1 1
    35   35    3 1
    36   36    4 1
    37   37    6 1
    38   38    6 1
    39   39    8 1
    40   40   10 1
    41   41   11 1
    42   42   12 1
    43   43   13 1
    44   44   15 1
    45   45   17 1
    46   46   17 1
    47   47   19 1
    48   48   20 1
    49   49   22 1
    50   50   22 1
    51   51   24 1
    52   52   26 1
    53   53   27 1
    54   54   28 1
    55   55   29 1
    56   56   31 1
    57   57   58 1
    58   58   59 ar
    59   59   60 ar
    60   60   61 ar
    61   61   62 1
    62   62   78 1
    63   63   61 ar
    64   64   63 ar
    65   65   64 ar
    66   66   65 ar
    67   67   66 ar
    68   68   67 ar
    69   69   68 ar
    70   70   65 ar
    71   71   70 ar
    72   72   58 ar
    73   73   57 1
    74   74   73 1
    75   75   74 ar
    76   76   75 ar
    77   77   76 ar
    78   78   77 1
    79   79   77 ar
    80   80   79 ar
    81   81   80 ar
    82   82   81 ar
    83   83   82 ar
    84   84   83 ar
    85   85   84 ar
    86   86   81 ar
    87   87   86 ar
    88   88   74 ar
    89   89   57 1
    90   90   57 1
    91   91   59 1
    92   92   60 1
    93   93   62 1
    94   94   62 1
    95   95   64 1
    96   96   66 1
    97   97   67 1
    98   98   68 1
    99   99   69 1
   100  100   71 1
   101  101   73 1
   102  102   73 1
   103  103   75 1
   104  104   76 1
   105  105   78 1
   106  106   78 1
   107  107   80 1
   108  108   82 1
   109  109   83 1
   110  110   84 1
   111  111   85 1
   112  112   87 1
   113    7   16 ar
   114   13   14 ar
   115   15   16 ar
   116   23   32 ar
   117   29   30 ar
   118   31   32 ar
   119   63   72 ar
   120   69   70 ar
   121   71   72 ar
   122   79   88 ar
   123   85   86 ar
   124   87   88 ar
@<TRIPOS>SUBSTRUCTURE
     1 RES1 1
     2 RES2 57

@<TRIPOS>CRYSIN
  25.5390    8.1520   20.5610  90.0000 106.0300  90.0000   5 2

