# MOL2 file generated by ConQuest
# Please check atom types

@<TRIPOS>MOLECULE
SAXXUL
    70    75     1
SMALL
NO_CHARGES
****
Generated from CSD

@<TRIPOS>ATOM
      1 C1        -1.3298    3.1027    4.5029 C.2       1 RES1    0.0000
      2 C2        -1.0554    3.1733    3.0119 C.3       1 RES1    0.0000
      3 C3        -0.3185    4.4899    2.6691 C.3       1 RES1    0.0000
      4 C4         0.0831    5.2998    3.9126 C.3       1 RES1    0.0000
      5 C5         0.6520    4.3999    4.9720 C.ar      1 RES1    0.0000
      6 C6         1.8658    4.6839    5.6344 C.ar      1 RES1    0.0000
      7 C7         2.3393    3.8331    6.5958 C.ar      1 RES1    0.0000
      8 C8         1.6539    2.6386    6.9134 C.ar      1 RES1    0.0000
      9 C9         2.1514    1.7342    7.8889 C.ar      1 RES1    0.0000
     10 C10        1.5206    0.5624    8.1875 C.ar      1 RES1    0.0000
     11 C11        0.3295    0.2414    7.4810 C.ar      1 RES1    0.0000
     12 C12       -0.1899    1.0917    6.5441 C.ar      1 RES1    0.0000
     13 C13        0.4379    2.3281    6.2394 C.ar      1 RES1    0.0000
     14 C14       -0.0715    3.2593    5.2868 C.ar      1 RES1    0.0000
     15 C15       -0.2250    1.9345    2.6021 C.3       1 RES1    0.0000
     16 C16       -0.1907    1.6925    1.1075 C.3       1 RES1    0.0000
     17 C17        2.0598   -0.3767    9.2385 C.3       1 RES1    0.0000
     18 H1        -1.9171    3.1649    2.5317 H         1 RES1    0.0000
     19 H2        -0.9127    5.1068    2.1211 H         1 RES1    0.0000
     20 H3         0.5474    4.2547    2.1499 H         1 RES1    0.0000
     21 H4         0.7064    5.9868    3.6823 H         1 RES1    0.0000
     22 H5        -0.7505    5.7480    4.3197 H         1 RES1    0.0000
     23 H6         2.3552    5.5185    5.4412 H         1 RES1    0.0000
     24 H7         3.1597    4.0259    7.0825 H         1 RES1    0.0000
     25 H8         2.9862    2.0110    8.3445 H         1 RES1    0.0000
     26 H9        -0.1434   -0.6353    7.6770 H         1 RES1    0.0000
     27 H10       -0.9986    0.8520    6.0507 H         1 RES1    0.0000
     28 H11       -0.6063    1.1121    3.0117 H         1 RES1    0.0000
     29 H12        0.7270    2.0611    2.9545 H         1 RES1    0.0000
     30 H13       -1.1003    1.4784    0.7742 H         1 RES1    0.0000
     31 H14        0.1813    2.5346    0.6055 H         1 RES1    0.0000
     32 H15        0.4005    0.9084    0.9066 H         1 RES1    0.0000
     33 H16        2.9645   -0.0600    9.5310 H         1 RES1    0.0000
     34 H17        2.1094   -1.3216    8.9140 H         1 RES1    0.0000
     35 H18        1.4733   -0.3847   10.0316 H         1 RES1    0.0000
     36 C1B       -2.5606    3.1027    5.0363 C.2       1 RES1    0.0000
     37 C2B       -2.8350    3.1733    6.5273 C.3       1 RES1    0.0000
     38 C3B       -3.5719    4.4899    6.8701 C.3       1 RES1    0.0000
     39 C4B       -3.9734    5.2998    5.6266 C.3       1 RES1    0.0000
     40 C5B       -4.5424    4.3999    4.5672 C.ar      1 RES1    0.0000
     41 C6B       -5.7561    4.6839    3.9048 C.ar      1 RES1    0.0000
     42 C7B       -6.2296    3.8331    2.9434 C.ar      1 RES1    0.0000
     43 C8B       -5.5443    2.6386    2.6258 C.ar      1 RES1    0.0000
     44 C9B       -6.0418    1.7342    1.6503 C.ar      1 RES1    0.0000
     45 C10B      -5.4109    0.5624    1.3517 C.ar      1 RES1    0.0000
     46 C11B      -4.2198    0.2414    2.0582 C.ar      1 RES1    0.0000
     47 C12B      -3.7004    1.0917    2.9951 C.ar      1 RES1    0.0000
     48 C13B      -4.3283    2.3281    3.2998 C.ar      1 RES1    0.0000
     49 C14B      -3.8188    3.2593    4.2524 C.ar      1 RES1    0.0000
     50 C15B      -3.6653    1.9345    6.9371 C.3       1 RES1    0.0000
     51 C16B      -3.6996    1.6925    8.4317 C.3       1 RES1    0.0000
     52 C17B      -5.9501   -0.3767    0.3007 C.3       1 RES1    0.0000
     53 H1B       -1.9733    3.1649    7.0075 H         1 RES1    0.0000
     54 H2B       -2.9776    5.1068    7.4181 H         1 RES1    0.0000
     55 H3B       -4.4377    4.2547    7.3893 H         1 RES1    0.0000
     56 H4B       -4.5968    5.9868    5.8569 H         1 RES1    0.0000
     57 H5B       -3.1398    5.7480    5.2195 H         1 RES1    0.0000
     58 H6B       -6.2455    5.5185    4.0980 H         1 RES1    0.0000
     59 H7B       -7.0501    4.0259    2.4567 H         1 RES1    0.0000
     60 H8B       -6.8766    2.0110    1.1947 H         1 RES1    0.0000
     61 H9B       -3.7469   -0.6353    1.8622 H         1 RES1    0.0000
     62 H10B      -2.8917    0.8520    3.4885 H         1 RES1    0.0000
     63 H11B      -3.2840    1.1121    6.5275 H         1 RES1    0.0000
     64 H12B      -4.6174    2.0611    6.5847 H         1 RES1    0.0000
     65 H13B      -2.7901    1.4784    8.7650 H         1 RES1    0.0000
     66 H14B      -4.0716    2.5346    8.9337 H         1 RES1    0.0000
     67 H15B      -4.2908    0.9084    8.6326 H         1 RES1    0.0000
     68 H16B      -6.8549   -0.0600    0.0082 H         1 RES1    0.0000
     69 H17B      -5.9998   -1.3216    0.6252 H         1 RES1    0.0000
     70 H18B      -5.3637   -0.3847   -0.4924 H         1 RES1    0.0000
@<TRIPOS>BOND
     1    1    2 1
     2    2    3 1
     3    3    4 1
     4    4    5 1
     5    5    6 ar
     6    6    7 ar
     7    7    8 ar
     8    8    9 ar
     9    9   10 ar
    10   10   11 ar
    11   11   12 ar
    12   12   13 ar
    13   13    8 ar
    14   14    1 1
    15   15    2 1
    16   16   15 1
    17   17   10 1
    18   18    2 1
    19   19    3 1
    20   20    3 1
    21   21    4 1
    22   22    4 1
    23   23    6 1
    24   24    7 1
    25   25    9 1
    26   26   11 1
    27   27   12 1
    28   28   15 1
    29   29   15 1
    30   30   16 1
    31   31   16 1
    32   32   16 1
    33   33   17 1
    34   34   17 1
    35   35   17 1
    36   36    1 2
    37   37   36 1
    38   38   37 1
    39   39   38 1
    40   40   39 1
    41   41   40 ar
    42   42   41 ar
    43   43   42 ar
    44   44   43 ar
    45   45   44 ar
    46   46   45 ar
    47   47   46 ar
    48   48   43 ar
    49   49   36 1
    50   50   37 1
    51   51   50 1
    52   52   45 1
    53   53   37 1
    54   54   38 1
    55   55   38 1
    56   56   39 1
    57   57   39 1
    58   58   41 1
    59   59   42 1
    60   60   44 1
    61   61   46 1
    62   62   47 1
    63   63   50 1
    64   64   50 1
    65   65   51 1
    66   66   51 1
    67   67   51 1
    68   68   52 1
    69   69   52 1
    70   70   52 1
    71    5   14 ar
    72   13   14 ar
    73   40   49 ar
    74   47   48 ar
    75   48   49 ar
@<TRIPOS>SUBSTRUCTURE
     1 RES1 1

@<TRIPOS>CRYSIN
  18.8410    6.9763   20.6040  90.0000 112.1870  90.0000  15 1

