# MOL2 file generated by ConQuest
# Please check atom types

@<TRIPOS>MOLECULE
SAXXOF
    76    81     1
SMALL
NO_CHARGES
****
Generated from CSD

@<TRIPOS>ATOM
      1 C1         5.6427    4.2372    8.5315 C.2       1 RES1    0.0000
      2 C2         4.9657    2.8677    8.1858 C.3       1 RES1    0.0000
      3 C3         4.2496    2.9570    6.8190 C.3       1 RES1    0.0000
      4 C4         3.7362    4.3561    6.5041 C.3       1 RES1    0.0000
      5 C5         4.9372    5.2416    6.3766 C.ar      1 RES1    0.0000
      6 C6         5.1125    6.1329    5.3021 C.ar      1 RES1    0.0000
      7 C7         6.2672    6.8336    5.1470 C.ar      1 RES1    0.0000
      8 C8         7.3568    6.6235    6.0199 C.ar      1 RES1    0.0000
      9 C9         8.6134    7.2459    5.7925 C.ar      1 RES1    0.0000
     10 C10        9.7065    7.0008    6.5594 C.ar      1 RES1    0.0000
     11 C11        9.5599    6.1001    7.6384 C.ar      1 RES1    0.0000
     12 C12        8.3519    5.5190    7.9274 C.ar      1 RES1    0.0000
     13 C13        7.1998    5.7404    7.1321 C.ar      1 RES1    0.0000
     14 C14        5.9234    5.1002    7.3435 C.ar      1 RES1    0.0000
     15 C15        3.9989    2.2827    9.2567 C.3       1 RES1    0.0000
     16 C16        3.6851    0.8224    8.9646 C.3       1 RES1    0.0000
     17 C17        2.7230    3.0617    9.4683 C.3       1 RES1    0.0000
     18 C18       11.0473    7.6410    6.2709 C.3       1 RES1    0.0000
     19 C19        5.9483    4.6480    9.7981 C.2       1 RES1    0.0000
     20 C20        6.1413    6.1363   10.2274 C.3       1 RES1    0.0000
     21 C21        5.8581    6.2973   11.7486 C.3       1 RES1    0.0000
     22 C22        4.8785    5.2723   12.2966 C.3       1 RES1    0.0000
     23 C23        5.5011    3.9206   12.1246 C.ar      1 RES1    0.0000
     24 C24        5.5249    2.9684   13.1604 C.ar      1 RES1    0.0000
     25 C25        6.2002    1.7959   13.0106 C.ar      1 RES1    0.0000
     26 C26        6.9734    1.5464   11.8487 C.ar      1 RES1    0.0000
     27 C27        7.8041    0.4035   11.7473 C.ar      1 RES1    0.0000
     28 C28        8.6336    0.1911   10.6859 C.ar      1 RES1    0.0000
     29 C29        8.6424    1.1502    9.6606 C.ar      1 RES1    0.0000
     30 C30        7.8083    2.2378    9.6863 C.ar      1 RES1    0.0000
     31 C31        6.9475    2.4908   10.7812 C.ar      1 RES1    0.0000
     32 C32        6.1162    3.6684   10.9085 C.ar      1 RES1    0.0000
     33 C33        5.3300    7.1987    9.4327 C.3       1 RES1    0.0000
     34 C34        3.8250    7.1546    9.6702 C.3       1 RES1    0.0000
     35 C35        5.8583    8.6066    9.6930 C.3       1 RES1    0.0000
     36 C36        9.5525   -1.0136   10.6042 C.3       1 RES1    0.0000
     37 H1         5.7433    2.1921    8.0737 H         1 RES1    0.0000
     38 H2         3.5202    2.2940    6.7994 H         1 RES1    0.0000
     39 H3         4.8768    2.7077    6.0254 H         1 RES1    0.0000
     40 H4         3.2785    4.3871    5.6552 H         1 RES1    0.0000
     41 H5         3.1393    4.6555    7.2385 H         1 RES1    0.0000
     42 H6         4.3918    6.2158    4.6809 H         1 RES1    0.0000
     43 H7         6.2799    7.5392    4.4175 H         1 RES1    0.0000
     44 H8         8.6648    7.8073    5.0391 H         1 RES1    0.0000
     45 H9        10.3688    5.9255    8.2438 H         1 RES1    0.0000
     46 H10        8.2859    4.9006    8.6384 H         1 RES1    0.0000
     47 H11        4.5053    2.2376   10.1116 H         1 RES1    0.0000
     48 H12        4.5496    0.2341    8.8959 H         1 RES1    0.0000
     49 H13        3.0762    0.7384    8.1880 H         1 RES1    0.0000
     50 H14        3.2283    0.4104    9.7210 H         1 RES1    0.0000
     51 H15        2.2342    2.7090   10.2241 H         1 RES1    0.0000
     52 H16        2.9093    4.0071    9.5862 H         1 RES1    0.0000
     53 H17        2.1027    3.0886    8.7152 H         1 RES1    0.0000
     54 H18       11.8091    7.0448    6.2071 H         1 RES1    0.0000
     55 H19       10.9727    8.2610    5.5660 H         1 RES1    0.0000
     56 H20       11.2694    8.2959    7.0531 H         1 RES1    0.0000
     57 H21        7.1103    6.3976   10.0951 H         1 RES1    0.0000
     58 H22        5.5858    7.2103   11.9509 H         1 RES1    0.0000
     59 H23        6.7102    6.2047   12.2693 H         1 RES1    0.0000
     60 H24        4.7138    5.4150   13.2415 H         1 RES1    0.0000
     61 H25        4.0147    5.3459   11.8034 H         1 RES1    0.0000
     62 H26        5.0162    3.1846   14.0224 H         1 RES1    0.0000
     63 H27        6.1169    1.1080   13.7361 H         1 RES1    0.0000
     64 H28        7.7855   -0.2367   12.5276 H         1 RES1    0.0000
     65 H29        9.2860    1.0686    8.9313 H         1 RES1    0.0000
     66 H30        7.7969    2.8754    8.9725 H         1 RES1    0.0000
     67 H31        5.4958    7.0145    8.4717 H         1 RES1    0.0000
     68 H32        3.3644    7.8035    9.0718 H         1 RES1    0.0000
     69 H33        3.4979    6.2743    9.5584 H         1 RES1    0.0000
     70 H34        3.5654    7.4093   10.6385 H         1 RES1    0.0000
     71 H35        6.8452    8.6642    9.4737 H         1 RES1    0.0000
     72 H36        5.3803    9.2387    9.1089 H         1 RES1    0.0000
     73 H37        5.7332    8.8670   10.6798 H         1 RES1    0.0000
     74 H38       10.4925   -0.7966   10.4277 H         1 RES1    0.0000
     75 H39        9.2364   -1.6339    9.9919 H         1 RES1    0.0000
     76 H40        9.2802   -1.6034   11.3307 H         1 RES1    0.0000
@<TRIPOS>BOND
     1    1    2 1
     2    2    3 1
     3    3    4 1
     4    4    5 1
     5    5    6 ar
     6    6    7 ar
     7    7    8 ar
     8    8    9 ar
     9    9   10 ar
    10   10   11 ar
    11   11   12 ar
    12   12   13 ar
    13   13    8 ar
    14   14    1 1
    15   15    2 1
    16   16   15 1
    17   17   15 1
    18   18   10 1
    19   19    1 2
    20   20   19 1
    21   21   20 1
    22   22   21 1
    23   23   22 1
    24   24   23 ar
    25   25   24 ar
    26   26   25 ar
    27   27   26 ar
    28   28   27 ar
    29   29   28 ar
    30   30   29 ar
    31   31   26 ar
    32   32   19 1
    33   33   20 1
    34   34   33 1
    35   35   33 1
    36   36   28 1
    37   37    2 1
    38   38    3 1
    39   39    3 1
    40   40    4 1
    41   41    4 1
    42   42    6 1
    43   43    7 1
    44   44    9 1
    45   45   11 1
    46   46   12 1
    47   47   15 1
    48   48   16 1
    49   49   16 1
    50   50   16 1
    51   51   17 1
    52   52   17 1
    53   53   17 1
    54   54   18 1
    55   55   18 1
    56   56   18 1
    57   57   20 1
    58   58   21 1
    59   59   21 1
    60   60   22 1
    61   61   22 1
    62   62   24 1
    63   63   25 1
    64   64   27 1
    65   65   29 1
    66   66   30 1
    67   67   33 1
    68   68   34 1
    69   69   34 1
    70   70   34 1
    71   71   35 1
    72   72   35 1
    73   73   35 1
    74   74   36 1
    75   75   36 1
    76   76   36 1
    77    5   14 ar
    78   13   14 ar
    79   23   32 ar
    80   30   31 ar
    81   31   32 ar
@<TRIPOS>SUBSTRUCTURE
     1 RES1 1

@<TRIPOS>CRYSIN
   9.5230   12.3520   13.5590  63.2980  77.5960  76.1460   2 1

