# MOL2 file generated by ConQuest
# Please check atom types

@<TRIPOS>MOLECULE
SAZQUG
    64    69     1
SMALL
NO_CHARGES
****
Generated from CSD

@<TRIPOS>ATOM
      1 C1         2.8503    1.2107    2.0844 C.2       1 RES1    0.0000
      2 C2         1.8201    1.7726    2.9916 C.ar      1 RES1    0.0000
      3 C3         1.8612    1.6728    4.4102 C.ar      1 RES1    0.0000
      4 C4         2.9557    1.1308    5.1227 C.ar      1 RES1    0.0000
      5 C5         2.9563    1.0692    6.4796 C.ar      1 RES1    0.0000
      6 C6         1.8754    1.5345    7.2366 C.ar      1 RES1    0.0000
      7 C7         0.8145    2.0692    6.5745 C.ar      1 RES1    0.0000
      8 C8         0.7767    2.1770    5.1672 C.ar      1 RES1    0.0000
      9 C9        -0.2922    2.8065    4.4931 C.ar      1 RES1    0.0000
     10 C10       -0.2746    2.9578    3.1532 C.ar      1 RES1    0.0000
     11 C11        0.7836    2.4533    2.3845 C.ar      1 RES1    0.0000
     12 C12        0.8614    2.6374    0.9037 C.3       1 RES1    0.0000
     13 C13        2.2369    3.1421    0.5601 C.3       1 RES1    0.0000
     14 C14        3.3706    2.2304    1.0691 C.3       1 RES1    0.0000
     15 C15        1.9306    1.4660    8.7476 C.3       1 RES1    0.0000
     16 C16        4.4949    3.0461    1.6722 C.3       1 RES1    0.0000
     17 C17        3.2571   -0.0730    2.0892 C.2       1 RES1    0.0000
     18 C18        2.7386   -1.1185    3.0073 C.ar      1 RES1    0.0000
     19 C19        1.3556   -1.4339    3.1865 C.ar      1 RES1    0.0000
     20 C20        0.3240   -0.8788    2.4067 C.ar      1 RES1    0.0000
     21 C21       -0.9800   -1.2148    2.6146 C.ar      1 RES1    0.0000
     22 C22       -1.3567   -2.1227    3.6189 C.ar      1 RES1    0.0000
     23 C23       -0.3779   -2.6829    4.3580 C.ar      1 RES1    0.0000
     24 C24        0.9918   -2.3826    4.1753 C.ar      1 RES1    0.0000
     25 C25        2.0057   -3.0326    4.9049 C.ar      1 RES1    0.0000
     26 C26        3.3119   -2.7930    4.6483 C.ar      1 RES1    0.0000
     27 C27        3.6934   -1.8341    3.7054 C.ar      1 RES1    0.0000
     28 C28        5.1286   -1.5631    3.3853 C.3       1 RES1    0.0000
     29 C29        5.3023   -1.5659    1.8835 C.3       1 RES1    0.0000
     30 C30        4.3564   -0.5851    1.1658 C.3       1 RES1    0.0000
     31 C31       -2.8178   -2.4604    3.8425 C.3       1 RES1    0.0000
     32 C32        3.7426   -1.2128   -0.0665 C.3       1 RES1    0.0000
     33 H1         3.7291    0.8379    4.6353 H         1 RES1    0.0000
     34 H2         3.7230    0.7204    6.9138 H         1 RES1    0.0000
     35 H3         0.0636    2.4192    7.0945 H         1 RES1    0.0000
     36 H4        -1.0635    3.1452    5.0598 H         1 RES1    0.0000
     37 H5        -1.0024    3.4484    2.6758 H         1 RES1    0.0000
     38 H6         0.1471    3.2940    0.6221 H         1 RES1    0.0000
     39 H7         0.6902    1.7339    0.4307 H         1 RES1    0.0000
     40 H8         2.3930    4.0602    1.0116 H         1 RES1    0.0000
     41 H9         2.3737    3.2796   -0.3813 H         1 RES1    0.0000
     42 H10        3.7081    1.7615    0.2783 H         1 RES1    0.0000
     43 H11        2.5744    1.9724    9.2026 H         1 RES1    0.0000
     44 H12        1.8965    0.5017    9.0357 H         1 RES1    0.0000
     45 H13        1.1471    1.8078    9.2156 H         1 RES1    0.0000
     46 H14        5.3395    2.5018    1.9770 H         1 RES1    0.0000
     47 H15        4.7685    3.7364    0.9851 H         1 RES1    0.0000
     48 H16        4.0616    3.5660    2.3910 H         1 RES1    0.0000
     49 H17        0.5718   -0.2651    1.6749 H         1 RES1    0.0000
     50 H18       -1.7133   -0.8084    2.0584 H         1 RES1    0.0000
     51 H19       -0.5808   -3.3158    4.9916 H         1 RES1    0.0000
     52 H20        1.7326   -3.7159    5.5544 H         1 RES1    0.0000
     53 H21        4.0218   -3.2541    5.1622 H         1 RES1    0.0000
     54 H22        5.7370   -2.2183    3.8126 H         1 RES1    0.0000
     55 H23        5.3732   -0.6574    3.7671 H         1 RES1    0.0000
     56 H24        6.2798   -1.3821    1.6597 H         1 RES1    0.0000
     57 H25        5.0745   -2.5109    1.5690 H         1 RES1    0.0000
     58 H26        4.9336    0.1861    0.8912 H         1 RES1    0.0000
     59 H27       -2.8518   -3.2467    4.2683 H         1 RES1    0.0000
     60 H28       -3.2182   -2.4726    3.0166 H         1 RES1    0.0000
     61 H29       -3.3358   -1.7496    4.0479 H         1 RES1    0.0000
     62 H30        4.4031   -1.6505   -0.6301 H         1 RES1    0.0000
     63 H31        3.0710   -1.9551    0.1549 H         1 RES1    0.0000
     64 H32        3.2430   -0.5636   -0.6171 H         1 RES1    0.0000
@<TRIPOS>BOND
     1    1    2 1
     2    2    3 ar
     3    3    4 ar
     4    4    5 ar
     5    5    6 ar
     6    6    7 ar
     7    7    8 ar
     8    8    3 ar
     9    9    8 ar
    10   10    9 ar
    11   11    2 ar
    12   12   11 1
    13   13   12 1
    14   14    1 1
    15   15    6 1
    16   16   14 1
    17   17    1 2
    18   18   17 1
    19   19   18 ar
    20   20   19 ar
    21   21   20 ar
    22   22   21 ar
    23   23   22 ar
    24   24   19 ar
    25   25   24 ar
    26   26   25 ar
    27   27   18 ar
    28   28   27 1
    29   29   28 1
    30   30   17 1
    31   31   22 1
    32   32   30 1
    33   33    4 1
    34   34    5 1
    35   35    7 1
    36   36    9 1
    37   37   10 1
    38   38   12 1
    39   39   12 1
    40   40   13 1
    41   41   13 1
    42   42   14 1
    43   43   15 1
    44   44   15 1
    45   45   15 1
    46   46   16 1
    47   47   16 1
    48   48   16 1
    49   49   20 1
    50   50   21 1
    51   51   23 1
    52   52   25 1
    53   53   26 1
    54   54   28 1
    55   55   28 1
    56   56   29 1
    57   57   29 1
    58   58   30 1
    59   59   31 1
    60   60   31 1
    61   61   31 1
    62   62   32 1
    63   63   32 1
    64   64   32 1
    65   10   11 ar
    66   13   14 1
    67   23   24 ar
    68   26   27 ar
    69   29   30 1
@<TRIPOS>SUBSTRUCTURE
     1 RES1 1

@<TRIPOS>CRYSIN
  11.7360   16.5460   24.9840  90.0000  90.0000  90.0000  61 1

