# MOL2 file generated by ConQuest
# Please check atom types

@<TRIPOS>MOLECULE
SAZRAN
    70    75     1
SMALL
NO_CHARGES
****
Generated from CSD

@<TRIPOS>ATOM
      1 C1         2.9608    3.8670    2.3856 C.2       1 RES1    0.0000
      2 C2         3.4975    4.9292    1.4266 C.3       1 RES1    0.0000
      3 C3         2.3852    5.9081    0.9855 C.3       1 RES1    0.0000
      4 C4         0.9829    5.3796    1.3006 C.3       1 RES1    0.0000
      5 C5         0.9139    5.1252    2.7768 C.ar      1 RES1    0.0000
      6 C6        -0.1333    5.6210    3.5791 C.ar      1 RES1    0.0000
      7 C7        -0.1350    5.4089    4.9234 C.ar      1 RES1    0.0000
      8 C8         0.9418    4.7389    5.5557 C.ar      1 RES1    0.0000
      9 C9         0.9986    4.5822    6.9680 C.ar      1 RES1    0.0000
     10 C10        2.0689    3.9973    7.5921 C.ar      1 RES1    0.0000
     11 C11        3.1446    3.5400    6.7916 C.ar      1 RES1    0.0000
     12 C12        3.1202    3.6682    5.4307 C.ar      1 RES1    0.0000
     13 C13        2.0159    4.2502    4.7603 C.ar      1 RES1    0.0000
     14 C14        1.9516    4.4070    3.3418 C.ar      1 RES1    0.0000
     15 C15        4.6699    5.6800    2.0629 C.3       1 RES1    0.0000
     16 C16        5.3101    6.7033    1.1344 C.3       1 RES1    0.0000
     17 C17        2.1412    3.8544    9.0920 C.3       1 RES1    0.0000
     18 C18        3.3332    2.5686    2.3317 C.2       1 RES1    0.0000
     19 C19        4.4034    2.0469    1.3731 C.3       1 RES1    0.0000
     20 C20        5.3864    1.0837    2.0932 C.3       1 RES1    0.0000
     21 C21        5.2162    1.0817    3.6147 C.3       1 RES1    0.0000
     22 C22        3.7733    0.7870    3.9237 C.ar      1 RES1    0.0000
     23 C23        3.3966   -0.2068    4.8494 C.ar      1 RES1    0.0000
     24 C24        2.0799   -0.4646    5.0917 C.ar      1 RES1    0.0000
     25 C25        1.0632    0.2178    4.3828 C.ar      1 RES1    0.0000
     26 C26       -0.3097   -0.1001    4.5630 C.ar      1 RES1    0.0000
     27 C27       -1.2994    0.4874    3.8293 C.ar      1 RES1    0.0000
     28 C28       -0.9218    1.4438    2.8514 C.ar      1 RES1    0.0000
     29 C29        0.3898    1.7899    2.6633 C.ar      1 RES1    0.0000
     30 C30        1.4295    1.2043    3.4269 C.ar      1 RES1    0.0000
     31 C31        2.8145    1.5134    3.2416 C.ar      1 RES1    0.0000
     32 C32        3.7539    1.3392    0.1687 C.3       1 RES1    0.0000
     33 C33        3.0252    2.2555   -0.7977 C.3       1 RES1    0.0000
     34 C34       -2.7552    0.1338    4.0303 C.3       1 RES1    0.0000
     35 H1         3.8257    4.4970    0.6050 H         1 RES1    0.0000
     36 H2         2.5138    6.8191    1.5101 H         1 RES1    0.0000
     37 H3         2.4650    6.1242    0.0374 H         1 RES1    0.0000
     38 H4         0.3128    6.0464    1.0300 H         1 RES1    0.0000
     39 H5         0.7853    4.5564    0.7699 H         1 RES1    0.0000
     40 H6        -0.8666    6.1242    3.1456 H         1 RES1    0.0000
     41 H7        -0.8502    5.7244    5.4966 H         1 RES1    0.0000
     42 H8         0.2493    4.9139    7.4859 H         1 RES1    0.0000
     43 H9         3.9277    3.1366    7.2515 H         1 RES1    0.0000
     44 H10        3.8758    3.3838    4.9074 H         1 RES1    0.0000
     45 H11        5.3823    5.0018    2.3864 H         1 RES1    0.0000
     46 H12        4.3136    6.1204    2.8796 H         1 RES1    0.0000
     47 H13        5.6664    6.2498    0.3156 H         1 RES1    0.0000
     48 H14        6.0648    7.1543    1.6032 H         1 RES1    0.0000
     49 H15        4.6583    7.4157    0.8694 H         1 RES1    0.0000
     50 H16        1.5360    4.4767    9.5481 H         1 RES1    0.0000
     51 H17        3.0708    4.0399    9.4254 H         1 RES1    0.0000
     52 H18        1.9500    2.9075    9.3824 H         1 RES1    0.0000
     53 H19        4.9265    2.8183    1.0247 H         1 RES1    0.0000
     54 H20        5.2136    0.1517    1.7710 H         1 RES1    0.0000
     55 H21        6.3202    1.3299    1.8244 H         1 RES1    0.0000
     56 H22        5.8076    0.4255    4.0639 H         1 RES1    0.0000
     57 H23        5.4823    1.9897    3.9904 H         1 RES1    0.0000
     58 H24        4.0827   -0.6931    5.3090 H         1 RES1    0.0000
     59 H25        1.8191   -1.1359    5.7382 H         1 RES1    0.0000
     60 H26       -0.5402   -0.7836    5.2194 H         1 RES1    0.0000
     61 H27       -1.6540    1.8371    2.2790 H         1 RES1    0.0000
     62 H28        0.6182    2.4150    1.9713 H         1 RES1    0.0000
     63 H29        3.1044    0.6373    0.5258 H         1 RES1    0.0000
     64 H30        4.4673    0.8679   -0.3314 H         1 RES1    0.0000
     65 H31        2.2823    2.7370   -0.3332 H         1 RES1    0.0000
     66 H32        2.6347    1.7220   -1.5803 H         1 RES1    0.0000
     67 H33        3.6669    2.9030   -1.2123 H         1 RES1    0.0000
     68 H34       -2.8519   -0.8290    4.3808 H         1 RES1    0.0000
     69 H35       -3.2688    0.1860    3.1553 H         1 RES1    0.0000
     70 H36       -3.2109    0.7401    4.6977 H         1 RES1    0.0000
@<TRIPOS>BOND
     1    1    2 1
     2    2    3 1
     3    3    4 1
     4    4    5 1
     5    5    6 ar
     6    6    7 ar
     7    7    8 ar
     8    8    9 ar
     9    9   10 ar
    10   10   11 ar
    11   11   12 ar
    12   12   13 ar
    13   13    8 ar
    14   14    1 1
    15   15    2 1
    16   16   15 1
    17   17   10 1
    18   18    1 2
    19   19   18 1
    20   20   19 1
    21   21   20 1
    22   22   21 1
    23   23   22 ar
    24   24   23 ar
    25   25   24 ar
    26   26   25 ar
    27   27   26 ar
    28   28   27 ar
    29   29   28 ar
    30   30   25 ar
    31   31   18 1
    32   32   19 1
    33   33   32 1
    34   34   27 1
    35   35    2 1
    36   36    3 1
    37   37    3 1
    38   38    4 1
    39   39    4 1
    40   40    6 1
    41   41    7 1
    42   42    9 1
    43   43   11 1
    44   44   12 1
    45   45   15 1
    46   46   15 1
    47   47   16 1
    48   48   16 1
    49   49   16 1
    50   50   17 1
    51   51   17 1
    52   52   17 1
    53   53   19 1
    54   54   20 1
    55   55   20 1
    56   56   21 1
    57   57   21 1
    58   58   23 1
    59   59   24 1
    60   60   26 1
    61   61   28 1
    62   62   29 1
    63   63   32 1
    64   64   32 1
    65   65   33 1
    66   66   33 1
    67   67   33 1
    68   68   34 1
    69   69   34 1
    70   70   34 1
    71    5   14 ar
    72   13   14 ar
    73   22   31 ar
    74   29   30 ar
    75   30   31 ar
@<TRIPOS>SUBSTRUCTURE
     1 RES1 1

@<TRIPOS>CRYSIN
  11.8625   16.6360   25.4520  90.0000  90.0000  90.0000  61 1

