# MOL2 file generated by ConQuest
# Please check atom types

@<TRIPOS>MOLECULE
SEJFEU
    47    51     1
SMALL
NO_CHARGES
****
Generated from CSD

@<TRIPOS>ATOM
      1 C1         4.7308    5.9156    2.3480 C.2       1 RES1    0.0000
      2 C2         5.5326    4.8887    1.9873 C.2       1 RES1    0.0000
      3 C3         4.7228    3.6839    1.8285 C.2       1 RES1    0.0000
      4 H1         5.0532    2.8533    1.5687 H         1 RES1    0.0000
      5 C4         3.4208    3.9443    2.1117 C.2       1 RES1    0.0000
      6 C5         3.3193    5.3788    2.4638 C.3       1 RES1    0.0000
      7 H2         2.9849    5.4873    3.3674 H         1 RES1    0.0000
      8 H3         2.7248    5.8417    1.8527 H         1 RES1    0.0000
      9 C6         5.0363    7.3319    2.5428 C.ar      1 RES1    0.0000
     10 C7         4.3797    8.0703    3.5091 C.ar      1 RES1    0.0000
     11 H4         3.7371    7.6579    4.0403 H         1 RES1    0.0000
     12 C8         4.6539    9.4022    3.7015 C.ar      1 RES1    0.0000
     13 H5         4.2068    9.8778    4.3634 H         1 RES1    0.0000
     14 C9         5.5804   10.0269    2.9270 C.ar      1 RES1    0.0000
     15 H6         5.7716   10.9271    3.0592 H         1 RES1    0.0000
     16 C10        6.2244    9.3215    1.9552 C.ar      1 RES1    0.0000
     17 H7         6.8543    9.7479    1.4193 H         1 RES1    0.0000
     18 C11        5.9544    7.9889    1.7573 C.ar      1 RES1    0.0000
     19 H8         6.3987    7.5263    1.0836 H         1 RES1    0.0000
     20 C12        7.0047    4.8401    1.8386 C.ar      1 RES1    0.0000
     21 C13        7.8427    5.5422    2.6821 C.ar      1 RES1    0.0000
     22 H9         7.4827    6.0734    3.3549 H         1 RES1    0.0000
     23 C14        9.2205    5.4609    2.5311 C.ar      1 RES1    0.0000
     24 H10        9.7801    5.9400    3.0983 H         1 RES1    0.0000
     25 C15        9.7534    4.6695    1.5437 C.ar      1 RES1    0.0000
     26 H11       10.6772    4.6099    1.4435 H         1 RES1    0.0000
     27 C16        8.9365    3.9764    0.7151 C.ar      1 RES1    0.0000
     28 H12        9.3035    3.4429    0.0477 H         1 RES1    0.0000
     29 C17        7.5643    4.0555    0.8520 C.ar      1 RES1    0.0000
     30 H13        7.0131    3.5763    0.2754 H         1 RES1    0.0000
     31 C18        2.2552    3.0491    2.0123 C.ar      1 RES1    0.0000
     32 C19        2.3326    1.6616    2.3636 C.ar      1 RES1    0.0000
     33 C20        3.4489    1.0815    2.9802 C.ar      1 RES1    0.0000
     34 H14        4.1730    1.6162    3.2102 H         1 RES1    0.0000
     35 C21        3.4883   -0.2615    3.2493 C.ar      1 RES1    0.0000
     36 H15        4.2405   -0.6300    3.6522 H         1 RES1    0.0000
     37 C22        2.4057   -1.0774    2.9207 C.ar      1 RES1    0.0000
     38 H16        2.4507   -1.9952    3.0709 H         1 RES1    0.0000
     39 C23        1.3020   -0.5422    2.3894 C.ar      1 RES1    0.0000
     40 H17        0.5779   -1.0932    2.1985 H         1 RES1    0.0000
     41 C24        1.2063    0.8335    2.1109 C.ar      1 RES1    0.0000
     42 C25        0.0478    1.4021    1.5859 C.ar      1 RES1    0.0000
     43 H18       -0.6903    0.8581    1.4326 H         1 RES1    0.0000
     44 C26       -0.0366    2.7234    1.2902 C.ar      1 RES1    0.0000
     45 H19       -0.8295    3.0832    0.9624 H         1 RES1    0.0000
     46 C27        1.0953    3.5465    1.4873 C.ar      1 RES1    0.0000
     47 H20        1.0503    4.4449    1.2550 H         1 RES1    0.0000
@<TRIPOS>BOND
     1    1    2 2
     2    2    3 1
     3    3    4 1
     4    5    3 2
     5    6    1 1
     6    7    6 1
     7    8    6 1
     8    9    1 1
     9   10    9 ar
    10   11   10 1
    11   12   10 ar
    12   13   12 1
    13   14   12 ar
    14   15   14 1
    15   16   14 ar
    16   17   16 1
    17   18    9 ar
    18   19   18 1
    19   20    2 1
    20   21   20 ar
    21   22   21 1
    22   23   21 ar
    23   24   23 1
    24   25   23 ar
    25   26   25 1
    26   27   25 ar
    27   28   27 1
    28   29   20 ar
    29   30   29 1
    30   31    5 1
    31   32   31 ar
    32   33   32 ar
    33   34   33 1
    34   35   33 ar
    35   36   35 1
    36   37   35 ar
    37   38   37 1
    38   39   37 ar
    39   40   39 1
    40   41   32 ar
    41   42   41 ar
    42   43   42 1
    43   44   42 ar
    44   45   44 1
    45   46   31 ar
    46   47   46 1
    47    5    6 1
    48   16   18 ar
    49   27   29 ar
    50   39   41 ar
    51   44   46 ar
@<TRIPOS>SUBSTRUCTURE
     1 RES1 1

@<TRIPOS>CRYSIN
  14.0600   17.5480    7.8240  90.0000  90.0000  90.0000  29 1

