# MOL2 file generated by ConQuest
# Please check atom types

@<TRIPOS>MOLECULE
SEMMOO
    31    33     1
SMALL
NO_CHARGES
****
Generated from CSD

@<TRIPOS>ATOM
      1 C1         1.4488   -0.9150    2.0666 C.3       1 RES1    0.0000
      2 H1         0.6509   -0.8937    1.4810 H         1 RES1    0.0000
      3 H2         1.1292   -0.9453    3.0038 H         1 RES1    0.0000
      4 C2         2.2203   -2.1860    1.7818 C.3       1 RES1    0.0000
      5 H3         2.8150   -2.3852    2.5478 H         1 RES1    0.0000
      6 H4         1.5853   -2.9391    1.6846 H         1 RES1    0.0000
      7 C3         3.0473   -2.0696    0.5277 C.3       1 RES1    0.0000
      8 H5         2.4594   -1.8705   -0.2440 H         1 RES1    0.0000
      9 H6         3.5096   -2.9268    0.3514 H         1 RES1    0.0000
     10 C4         4.0697   -0.9606    0.6939 C.3       1 RES1    0.0000
     11 H7         4.7608   -1.2559    1.3373 H         1 RES1    0.0000
     12 H8         4.5154   -0.8029   -0.1757 H         1 RES1    0.0000
     13 C5         3.4715    0.3370    1.1795 C.ar      1 RES1    0.0000
     14 C6         4.3837    3.9514    1.2240 C.ar      1 RES1    0.0000
     15 H9         5.2128    3.9316    0.7600 H         1 RES1    0.0000
     16 C7         3.8985    5.1388    1.6875 C.ar      1 RES1    0.0000
     17 H10        4.3893    5.9388    1.5409 H         1 RES1    0.0000
     18 C8         2.6792    5.1853    2.3782 C.ar      1 RES1    0.0000
     19 H11        2.3575    6.0140    2.7123 H         1 RES1    0.0000
     20 C9         1.9527    4.0480    2.5737 C.ar      1 RES1    0.0000
     21 H12        1.1188    4.1009    3.0261 H         1 RES1    0.0000
     22 C10        2.4165    2.7839    2.1149 C.ar      1 RES1    0.0000
     23 C11        1.6991    1.5669    2.3163 C.ar      1 RES1    0.0000
     24 C12        2.2218    0.3602    1.8665 C.ar      1 RES1    0.0000
     25 C13        4.1529    1.5092    0.9642 C.ar      1 RES1    0.0000
     26 H13        4.9757    1.4847    0.4895 H         1 RES1    0.0000
     27 C14        3.6649    2.7457    1.4267 C.ar      1 RES1    0.0000
     28 C15        0.3612    1.6035    3.0216 C.3       1 RES1    0.0000
     29 H14       -0.1747    0.8309    2.7458 H         1 RES1    0.0000
     30 H15       -0.1102    2.4289    2.7848 H         1 RES1    0.0000
     31 H16        0.5019    1.5744    3.9911 H         1 RES1    0.0000
@<TRIPOS>BOND
     1    1    2 1
     2    3    1 1
     3    4    1 1
     4    5    4 1
     5    6    4 1
     6    7    4 1
     7    8    7 1
     8    9    7 1
     9   10    7 1
    10   11   10 1
    11   12   10 1
    12   13   10 1
    13   14   15 1
    14   16   14 ar
    15   17   16 1
    16   18   16 ar
    17   19   18 1
    18   20   18 ar
    19   21   20 1
    20   22   20 ar
    21   23   22 ar
    22   24    1 1
    23   25   13 ar
    24   26   25 1
    25   27   14 ar
    26   28   23 1
    27   29   28 1
    28   30   28 1
    29   31   28 1
    30   13   24 ar
    31   22   27 ar
    32   23   24 ar
    33   25   27 ar
@<TRIPOS>SUBSTRUCTURE
     1 RES1 1

@<TRIPOS>CRYSIN
   6.9319   11.2138   13.9450  90.0000  90.0000  90.0000  19 1

