# MOL2 file generated by ConQuest
# Please check atom types

@<TRIPOS>MOLECULE
SESPEL01
    46    53     1
SMALL
NO_CHARGES
****
Generated from CSD

@<TRIPOS>ATOM
      1 C1         0.9047    1.5795   14.0777 C.2       1 RES1    0.0000
      2 C2        -0.2426    1.6440   13.1198 C.ar      1 RES1    0.0000
      3 C3        -1.4130    1.4013   13.8654 C.ar      1 RES1    0.0000
      4 C4        -1.0941    1.1837   15.2133 C.ar      1 RES1    0.0000
      5 C5         0.2912    1.2815   15.4135 C.ar      1 RES1    0.0000
      6 C6         0.7498    0.9016   16.6699 C.ar      1 RES1    0.0000
      7 C7        -0.1902    0.5119   17.6467 C.ar      1 RES1    0.0000
      8 C8        -1.5479    0.4823   17.4206 C.ar      1 RES1    0.0000
      9 C9        -2.0482    0.8182   16.1521 C.ar      1 RES1    0.0000
     10 C10       -3.4057    0.7871   15.6637 C.ar      1 RES1    0.0000
     11 C11       -3.7164    1.0586   14.3659 C.ar      1 RES1    0.0000
     12 C12       -2.7162    1.3862   13.3891 C.ar      1 RES1    0.0000
     13 C13       -2.8570    1.6872   12.0239 C.ar      1 RES1    0.0000
     14 C14       -1.7412    1.9996   11.2784 C.ar      1 RES1    0.0000
     15 C15       -0.4370    1.9913   11.7892 C.ar      1 RES1    0.0000
     16 C16        2.2294    1.7047   13.7946 C.2       1 RES1    0.0000
     17 C17        2.9151    1.4484   12.4830 C.ar      1 RES1    0.0000
     18 C18        4.2790    1.7130   12.6798 C.ar      1 RES1    0.0000
     19 C19        4.5133    2.1316   13.9914 C.ar      1 RES1    0.0000
     20 C20        3.3218    2.1339   14.7318 C.ar      1 RES1    0.0000
     21 C21        3.3932    2.6662   16.0072 C.ar      1 RES1    0.0000
     22 C22        4.6434    3.0969   16.4939 C.ar      1 RES1    0.0000
     23 C23        5.8008    3.0423   15.7500 C.ar      1 RES1    0.0000
     24 C24        5.7614    2.5631   14.4315 C.ar      1 RES1    0.0000
     25 C25        6.8143    2.4584   13.4512 C.ar      1 RES1    0.0000
     26 C26        6.6059    1.9981   12.1913 C.ar      1 RES1    0.0000
     27 C27        5.2969    1.5970   11.7374 C.ar      1 RES1    0.0000
     28 C28        4.8935    1.1124   10.4845 C.ar      1 RES1    0.0000
     29 C29        3.5743    0.7674   10.2826 C.ar      1 RES1    0.0000
     30 C30        2.5717    0.9138   11.2525 C.ar      1 RES1    0.0000
     31 H1         1.6889    0.9024   16.8684 H         1 RES1    0.0000
     32 H2         0.1334    0.2548   18.5131 H         1 RES1    0.0000
     33 H3        -2.1480    0.2336   18.1265 H         1 RES1    0.0000
     34 H4        -4.1126    0.5634   16.2730 H         1 RES1    0.0000
     35 H5        -4.6240    1.0328   14.0449 H         1 RES1    0.0000
     36 H6        -3.7252    1.6766   11.6149 H         1 RES1    0.0000
     37 H7        -1.8652    2.2370   10.3550 H         1 RES1    0.0000
     38 H8         0.3088    2.2195   11.2300 H         1 RES1    0.0000
     39 H9         2.6052    2.7405   16.5508 H         1 RES1    0.0000
     40 H10        4.6914    3.4465   17.3861 H         1 RES1    0.0000
     41 H11        6.6322    3.3305   16.1332 H         1 RES1    0.0000
     42 H12        7.7028    2.7238   13.6997 H         1 RES1    0.0000
     43 H13        7.3483    1.9390   11.5856 H         1 RES1    0.0000
     44 H14        5.5322    1.0176    9.7752 H         1 RES1    0.0000
     45 H15        3.3298    0.4102    9.4248 H         1 RES1    0.0000
     46 H16        1.6687    0.6468   11.0661 H         1 RES1    0.0000
@<TRIPOS>BOND
     1    1    2 1
     2    2    3 ar
     3    3    4 ar
     4    4    5 ar
     5    5    1 1
     6    6    5 ar
     7    7    6 ar
     8    8    7 ar
     9    9    4 ar
    10   10    9 ar
    11   11   10 ar
    12   12    3 ar
    13   13   12 ar
    14   14   13 ar
    15   15    2 ar
    16   16    1 2
    17   17   16 1
    18   18   17 ar
    19   19   18 ar
    20   20   16 1
    21   21   20 ar
    22   22   21 ar
    23   23   22 ar
    24   24   19 ar
    25   25   24 ar
    26   26   25 ar
    27   27   18 ar
    28   28   27 ar
    29   29   28 ar
    30   30   17 ar
    31   31    6 1
    32   32    7 1
    33   33    8 1
    34   34   10 1
    35   35   11 1
    36   36   13 1
    37   37   14 1
    38   38   15 1
    39   39   21 1
    40   40   22 1
    41   41   23 1
    42   42   25 1
    43   43   26 1
    44   44   28 1
    45   45   29 1
    46   46   30 1
    47    8    9 ar
    48   11   12 ar
    49   14   15 ar
    50   19   20 ar
    51   23   24 ar
    52   26   27 ar
    53   29   30 ar
@<TRIPOS>SUBSTRUCTURE
     1 RES1 1

@<TRIPOS>CRYSIN
  14.0040    7.5830   17.8190  90.0000 104.4100  90.0000 231 1

