# MOL2 file generated by ConQuest
# Please check atom types

@<TRIPOS>MOLECULE
SETTES
    60    70     1
SMALL
NO_CHARGES
****
Generated from CSD

@<TRIPOS>ATOM
      1 C1        -0.3702    0.8927   10.4025 C.ar      1 RES1    0.0000
      2 C2        -0.5547    1.4488   11.6910 C.ar      1 RES1    0.0000
      3 C3        -1.7711    1.4375   12.3002 C.ar      1 RES1    0.0000
      4 C4        -4.2649    0.8792   13.7711 C.ar      1 RES1    0.0000
      5 C5        -5.3976    0.5350   14.4600 C.ar      1 RES1    0.0000
      6 C6        -6.4519   -0.0945   13.7930 C.ar      1 RES1    0.0000
      7 C7        -6.3894   -0.2775   12.4355 C.ar      1 RES1    0.0000
      8 C8        -5.2050   -0.0045   10.2334 C.ar      1 RES1    0.0000
      9 C9        -3.9566   -0.0049    9.6137 C.ar      1 RES1    0.0000
     10 C10       -1.5052    0.4368    9.6982 C.ar      1 RES1    0.0000
     11 C11       -2.9088    0.8769   11.6678 C.ar      1 RES1    0.0000
     12 C12       -4.1546    0.6724   12.3754 C.ar      1 RES1    0.0000
     13 C13       -5.2774    0.1585   11.6766 C.ar      1 RES1    0.0000
     14 C14       -2.7834    0.4300   10.3349 C.ar      1 RES1    0.0000
     15 C15        0.9504    0.7041    9.8290 C.ar      1 RES1    0.0000
     16 C16        1.0671    0.1803    8.5169 C.ar      1 RES1    0.0000
     17 C17        2.3431   -0.2572    8.0917 C.ar      1 RES1    0.0000
     18 C18        3.4696   -0.0576    8.8545 C.ar      1 RES1    0.0000
     19 C19        3.3634    0.5889   10.0890 C.ar      1 RES1    0.0000
     20 C20        2.1292    0.9326   10.5739 C.ar      1 RES1    0.0000
     21 H1         0.2217    1.8524   12.1739 H         1 RES1    0.0000
     22 H2        -1.8578    1.8261   13.2180 H         1 RES1    0.0000
     23 H3        -3.4911    1.2613   14.2531 H         1 RES1    0.0000
     24 H4        -5.4509    0.7041   15.4354 H         1 RES1    0.0000
     25 H5        -7.2526   -0.4179   14.2980 H         1 RES1    0.0000
     26 H6        -7.1440   -0.7831   11.9640 H         1 RES1    0.0000
     27 H7         2.4481   -0.7568    7.2513 H         1 RES1    0.0000
     28 H8         4.3730   -0.3991    8.5429 H         1 RES1    0.0000
     29 H9         4.1721    0.7643   10.6239 H         1 RES1    0.0000
     30 H10        2.0500    1.3441   11.4779 H         1 RES1    0.0000
     31 C1B       -4.9605   -0.8927    7.5372 C.ar      1 RES1    0.0000
     32 C2B       -4.7760   -1.4488    6.2488 C.ar      1 RES1    0.0000
     33 C3B       -3.5596   -1.4375    5.6395 C.ar      1 RES1    0.0000
     34 C4B       -1.0658   -0.8792    4.1687 C.ar      1 RES1    0.0000
     35 C5B        0.0669   -0.5350    3.4798 C.ar      1 RES1    0.0000
     36 C6B        1.1212    0.0945    4.1468 C.ar      1 RES1    0.0000
     37 C7B        1.0587    0.2775    5.5043 C.ar      1 RES1    0.0000
     38 C8B       -0.1257    0.0045    7.7064 C.ar      1 RES1    0.0000
     39 C9B       -1.3741    0.0049    8.3260 C.ar      1 RES1    0.0000
     40 C10B      -3.8255   -0.4368    8.2415 C.ar      1 RES1    0.0000
     41 C11B      -2.4219   -0.8769    6.2719 C.ar      1 RES1    0.0000
     42 C12B      -1.1761   -0.6724    5.5644 C.ar      1 RES1    0.0000
     43 C13B      -0.0533   -0.1585    6.2631 C.ar      1 RES1    0.0000
     44 C14B      -2.5473   -0.4300    7.6048 C.ar      1 RES1    0.0000
     45 C15B      -6.2810   -0.7041    8.1107 C.ar      1 RES1    0.0000
     46 C16B      -6.3978   -0.1803    9.4229 C.ar      1 RES1    0.0000
     47 C17B      -7.6738    0.2572    9.8480 C.ar      1 RES1    0.0000
     48 C18B      -8.8003    0.0576    9.0852 C.ar      1 RES1    0.0000
     49 C19B      -8.6941   -0.5889    7.8508 C.ar      1 RES1    0.0000
     50 C20B      -7.4599   -0.9326    7.3659 C.ar      1 RES1    0.0000
     51 H1B       -5.5524   -1.8524    5.7658 H         1 RES1    0.0000
     52 H2B       -3.4729   -1.8261    4.7217 H         1 RES1    0.0000
     53 H3B       -1.8396   -1.2613    3.6866 H         1 RES1    0.0000
     54 H4B        0.1202   -0.7041    2.5044 H         1 RES1    0.0000
     55 H5B        1.9219    0.4179    3.6418 H         1 RES1    0.0000
     56 H6B        1.8133    0.7831    5.9757 H         1 RES1    0.0000
     57 H7B       -7.7788    0.7568   10.6885 H         1 RES1    0.0000
     58 H8B       -9.7036    0.3991    9.3968 H         1 RES1    0.0000
     59 H9B       -9.5028   -0.7643    7.3158 H         1 RES1    0.0000
     60 H10B      -7.3807   -1.3441    6.4619 H         1 RES1    0.0000
@<TRIPOS>BOND
     1    1    2 ar
     2    2    3 ar
     3    3   11 ar
     4    4    5 ar
     5    5    6 ar
     6    6    7 ar
     7    7   13 ar
     8    8    9 ar
     9    9   14 ar
    10   10    1 ar
    11   11   12 ar
    12   12    4 ar
    13   13    8 ar
    14   14   10 ar
    15   15    1 ar
    16   16   15 ar
    17   17   16 ar
    18   18   17 ar
    19   19   18 ar
    20   20   15 ar
    21   21    2 1
    22   22    3 1
    23   23    4 1
    24   24    5 1
    25   25    6 1
    26   26    7 1
    27   27   17 1
    28   28   18 1
    29   29   19 1
    30   30   20 1
    31   31   32 ar
    32   32   33 ar
    33   33   41 ar
    34   34   35 ar
    35   35   36 ar
    36   36   37 ar
    37   37   43 ar
    38   38   16 ar
    39   39   10 ar
    40   40    9 ar
    41   41   42 ar
    42   42   34 ar
    43   43   38 ar
    44   44   39 ar
    45   45   31 ar
    46   46    8 ar
    47   47   46 ar
    48   48   47 ar
    49   49   48 ar
    50   50   45 ar
    51   51   32 1
    52   52   33 1
    53   53   34 1
    54   54   35 1
    55   55   36 1
    56   56   37 1
    57   57   47 1
    58   58   48 1
    59   59   49 1
    60   60   50 1
    61   11   14 ar
    62   12   13 ar
    63   19   20 ar
    64   31   40 ar
    65   38   39 ar
    66   40   44 ar
    67   41   44 ar
    68   42   43 ar
    69   45   46 ar
    70   49   50 ar
@<TRIPOS>SUBSTRUCTURE
     1 RES1 1

@<TRIPOS>CRYSIN
  16.2469    3.7651   18.7150  90.0000 106.5490  90.0000 231 1

