# MOL2 file generated by ConQuest
# Please check atom types

@<TRIPOS>MOLECULE
SETTUI
    72    82     1
SMALL
NO_CHARGES
****
Generated from CSD

@<TRIPOS>ATOM
      1 C1        22.3446    5.4171    2.6432 C.ar      1 RES1    0.0000
      2 C2        21.9949    5.7836    3.9183 C.ar      1 RES1    0.0000
      3 H1        22.6640    5.7806    4.5945 H         1 RES1    0.0000
      4 C3        20.6786    6.1654    4.2687 C.ar      1 RES1    0.0000
      5 C4        20.3065    6.4659    5.6385 C.ar      1 RES1    0.0000
      6 C5        21.2492    6.5077    6.6887 C.ar      1 RES1    0.0000
      7 H2        22.1675    6.3655    6.4925 H         1 RES1    0.0000
      8 C6        20.8725    6.7481    7.9746 C.ar      1 RES1    0.0000
      9 H3        21.5413    6.8009    8.6479 H         1 RES1    0.0000
     10 C7        19.5205    6.9203    8.3379 C.ar      1 RES1    0.0000
     11 C8        19.1011    7.2069    9.6948 C.ar      1 RES1    0.0000
     12 C9        20.0497    7.5462   10.6830 C.ar      1 RES1    0.0000
     13 H4        20.9736    7.5096   10.4611 H         1 RES1    0.0000
     14 C10       19.6866    7.9274   11.9546 C.ar      1 RES1    0.0000
     15 C11       18.3251    7.9985   12.2579 C.ar      1 RES1    0.0000
     16 H5        18.0510    8.2799   13.1224 H         1 RES1    0.0000
     17 C12       17.3847    7.6679   11.3250 C.ar      1 RES1    0.0000
     18 H6        16.4643    7.7317   11.5578 H         1 RES1    0.0000
     19 C13       17.7344    7.2318   10.0218 C.ar      1 RES1    0.0000
     20 C14       16.7458    6.9313    9.0035 C.ar      1 RES1    0.0000
     21 C15       15.3425    6.6579    9.3018 C.ar      1 RES1    0.0000
     22 C16       14.8990    6.2065   10.5661 C.ar      1 RES1    0.0000
     23 H7        15.5338    6.1046   11.2653 H         1 RES1    0.0000
     24 C17       13.5882    5.9118   10.8161 C.ar      1 RES1    0.0000
     25 H8        13.3326    5.6091   11.6806 H         1 RES1    0.0000
     26 C18       12.6178    6.0496    9.8162 C.ar      1 RES1    0.0000
     27 C19       13.0290    6.4300    8.5622 C.ar      1 RES1    0.0000
     28 H9        12.3835    6.5084    7.8699 H         1 RES1    0.0000
     29 C20       14.3802    6.7070    8.2671 C.ar      1 RES1    0.0000
     30 C21       14.8005    6.9511    6.9086 C.ar      1 RES1    0.0000
     31 C22       13.8850    7.1277    5.8555 C.ar      1 RES1    0.0000
     32 H10       12.9536    7.1358    6.0450 H         1 RES1    0.0000
     33 C23       14.3033    7.2883    4.5652 C.ar      1 RES1    0.0000
     34 H11       13.6580    7.4202    3.8809 H         1 RES1    0.0000
     35 C24       15.6642    7.2626    4.2289 C.ar      1 RES1    0.0000
     36 C25       16.1286    7.5030    2.8789 C.ar      1 RES1    0.0000
     37 C26       15.2745    8.0754    1.9153 C.ar      1 RES1    0.0000
     38 H12       14.3690    8.2381    2.1495 H         1 RES1    0.0000
     39 C27       15.6985    8.4082    0.6492 C.ar      1 RES1    0.0000
     40 C28       17.0470    8.1876    0.3340 C.ar      1 RES1    0.0000
     41 H13       17.3736    8.4280   -0.5264 H         1 RES1    0.0000
     42 C29       17.8983    7.6305    1.2482 C.ar      1 RES1    0.0000
     43 H14       18.8066    7.4986    1.0060 H         1 RES1    0.0000
     44 C30       17.4739    7.2435    2.5446 C.ar      1 RES1    0.0000
     45 C31       18.3751    6.7276    3.5621 C.ar      1 RES1    0.0000
     46 C32       19.7002    6.2196    3.2538 C.ar      1 RES1    0.0000
     47 C33       20.0442    5.7007    1.9840 C.ar      1 RES1    0.0000
     48 H15       19.3699    5.6098    1.3219 H         1 RES1    0.0000
     49 C34       21.3290    5.3255    1.6845 C.ar      1 RES1    0.0000
     50 H16       21.5332    5.0000    0.8159 H         1 RES1    0.0000
     51 C35       18.9614    6.6836    5.9517 C.ar      1 RES1    0.0000
     52 C36       18.5504    6.8551    7.3222 C.ar      1 RES1    0.0000
     53 C37       17.1518    6.9093    7.6570 C.ar      1 RES1    0.0000
     54 C38       16.1715    6.9445    6.6027 C.ar      1 RES1    0.0000
     55 C39       16.6062    7.0251    5.2425 C.ar      1 RES1    0.0000
     56 C40       17.9890    6.8067    4.9065 C.ar      1 RES1    0.0000
     57 C41       23.7662    5.0726    2.2858 C.3       1 RES1    0.0000
     58 H17       24.3556    5.3064    3.0327 H         1 RES1    0.0000
     59 H18       24.0343    5.5754    1.4886 H         1 RES1    0.0000
     60 H19       23.8326    4.1125    2.1057 H         1 RES1    0.0000
     61 C42       20.7163    8.3759   12.9624 C.3       1 RES1    0.0000
     62 H20       21.6151    8.2191   12.6018 H         1 RES1    0.0000
     63 H21       20.6044    7.8680   13.7921 H         1 RES1    0.0000
     64 H22       20.6002    9.3317   13.1458 H         1 RES1    0.0000
     65 C43       11.1788    5.7125   10.0949 C.3       1 RES1    0.0000
     66 H23       10.7303    6.4923   10.4845 H         1 RES1    0.0000
     67 H24       11.1343    4.9627   10.7243 H         1 RES1    0.0000
     68 H25       10.7325    5.4633    9.2591 H         1 RES1    0.0000
     69 C44       14.7730    9.0590   -0.3457 C.3       1 RES1    0.0000
     70 H26       13.8774    9.1418    0.0468 H         1 RES1    0.0000
     71 H27       14.7253    8.5101   -1.1552 H         1 RES1    0.0000
     72 H28       15.1127    9.9495   -0.5732 H         1 RES1    0.0000
@<TRIPOS>BOND
     1    1    2 ar
     2    2    3 1
     3    4    2 ar
     4    5    4 ar
     5    6    5 ar
     6    7    6 1
     7    8    6 ar
     8    9    8 1
     9   10    8 ar
    10   11   10 ar
    11   12   11 ar
    12   13   12 1
    13   14   12 ar
    14   15   14 ar
    15   16   15 1
    16   17   15 ar
    17   18   17 1
    18   19   11 ar
    19   20   19 ar
    20   21   20 ar
    21   22   21 ar
    22   23   22 1
    23   24   22 ar
    24   25   24 1
    25   26   24 ar
    26   27   26 ar
    27   28   27 1
    28   29   21 ar
    29   30   29 ar
    30   31   30 ar
    31   32   31 1
    32   33   31 ar
    33   34   33 1
    34   35   33 ar
    35   36   35 ar
    36   37   36 ar
    37   38   37 1
    38   39   37 ar
    39   40   39 ar
    40   41   40 1
    41   42   40 ar
    42   43   42 1
    43   44   36 ar
    44   45   44 ar
    45   46    4 ar
    46   47   46 ar
    47   48   47 1
    48   49    1 ar
    49   50   49 1
    50   51    5 ar
    51   52   10 ar
    52   53   20 ar
    53   54   30 ar
    54   55   35 ar
    55   56   45 ar
    56   57    1 1
    57   58   57 1
    58   59   57 1
    59   60   57 1
    60   61   14 1
    61   62   61 1
    62   63   61 1
    63   64   61 1
    64   65   26 1
    65   66   65 1
    66   67   65 1
    67   68   65 1
    68   69   39 1
    69   70   69 1
    70   71   69 1
    71   72   69 1
    72   17   19 ar
    73   27   29 ar
    74   42   44 ar
    75   45   46 ar
    76   47   49 ar
    77   51   52 ar
    78   51   56 ar
    79   52   53 ar
    80   53   54 ar
    81   54   55 ar
    82   55   56 ar
@<TRIPOS>SUBSTRUCTURE
     1 RES1 1

@<TRIPOS>CRYSIN
  24.6531    7.3293   29.8656  90.0000 101.6970  90.0000  15 1

