# MOL2 file generated by ConQuest
# Please check atom types

@<TRIPOS>MOLECULE
SEVYUQ
    38    42     1
SMALL
NO_CHARGES
****
Generated from CSD

@<TRIPOS>ATOM
      1 C1         0.5928    3.5436    0.6633 C.ar      1 RES1    0.0000
      2 C2        -0.3244    4.0960   -0.1995 C.ar      1 RES1    0.0000
      3 C3        -0.8187    5.3849   -0.0210 C.ar      1 RES1    0.0000
      4 C4        -0.8332    7.4857    1.3056 C.ar      1 RES1    0.0000
      5 C5        -0.3440    8.2172    2.3259 C.ar      1 RES1    0.0000
      6 C6         1.1460    8.4934    4.2370 C.ar      1 RES1    0.0000
      7 C7         2.5927    8.8600    6.1638 C.ar      1 RES1    0.0000
      8 C8         3.5413    8.4549    7.0476 C.ar      1 RES1    0.0000
      9 C9         4.0746    7.1710    6.9199 C.ar      1 RES1    0.0000
     10 C10        3.6309    6.3123    5.9416 C.ar      1 RES1    0.0000
     11 C11        2.5048    4.4291    3.7399 C.ar      1 RES1    0.0000
     12 C12        1.9998    3.7445    2.6776 C.ar      1 RES1    0.0000
     13 C13       -0.3584    6.1432    1.0658 C.ar      1 RES1    0.0000
     14 C14        1.0710    4.2802    1.7553 C.ar      1 RES1    0.0000
     15 C15        0.6066    5.6009    1.9654 C.ar      1 RES1    0.0000
     16 C16        1.1247    6.3625    3.0662 C.ar      1 RES1    0.0000
     17 C17        0.6497    7.7050    3.2254 C.ar      1 RES1    0.0000
     18 C18        2.0997    5.8185    3.9570 C.ar      1 RES1    0.0000
     19 C19        2.6156    6.6789    5.0123 C.ar      1 RES1    0.0000
     20 C20        2.1195    8.0096    5.1313 C.ar      1 RES1    0.0000
     21 C21        3.4417    3.6541    4.6307 C.3       1 RES1    0.0000
     22 C22       -1.8301    5.9290   -0.9958 C.3       1 RES1    0.0000
     23 H1         1.0144    2.5778    0.4725 H         1 RES1    0.0000
     24 H2        -0.6695    3.5487   -0.9801 H         1 RES1    0.0000
     25 H3        -1.5587    7.8673    0.6300 H         1 RES1    0.0000
     26 H4        -0.6662    9.1060    2.4676 H         1 RES1    0.0000
     27 H5         0.8236    9.5078    4.3052 H         1 RES1    0.0000
     28 H6         2.2191    9.8258    6.2128 H         1 RES1    0.0000
     29 H7         3.8930    9.0725    7.8404 H         1 RES1    0.0000
     30 H8         4.8767    6.8128    7.5779 H         1 RES1    0.0000
     31 H9         4.0260    5.3732    5.9153 H         1 RES1    0.0000
     32 H10        2.3531    2.8289    2.4851 H         1 RES1    0.0000
     33 H11        3.1051    3.6658    5.6353 H         1 RES1    0.0000
     34 H12        3.4855    2.6615    4.3227 H         1 RES1    0.0000
     35 H13        4.3877    3.9839    4.5677 H         1 RES1    0.0000
     36 H14       -1.5571    6.8295   -1.3826 H         1 RES1    0.0000
     37 H15       -2.0023    5.2560   -1.8726 H         1 RES1    0.0000
     38 H16       -2.7213    6.0428   -0.5600 H         1 RES1    0.0000
@<TRIPOS>BOND
     1    1    2 ar
     2    2    3 ar
     3    3   13 ar
     4    4    5 ar
     5    5   17 ar
     6    6   17 ar
     7    7    8 ar
     8    8    9 ar
     9    9   10 ar
    10   10   19 ar
    11   11   12 ar
    12   12   14 ar
    13   13    4 ar
    14   14    1 ar
    15   15   13 ar
    16   16   15 ar
    17   17   16 ar
    18   18   11 ar
    19   19   18 ar
    20   20    6 ar
    21   21   11 1
    22   22    3 1
    23   23    1 1
    24   24    2 1
    25   25    4 1
    26   26    5 1
    27   27    6 1
    28   28    7 1
    29   29    8 1
    30   30    9 1
    31   31   10 1
    32   32   12 1
    33   33   21 1
    34   34   21 1
    35   35   21 1
    36   36   22 1
    37   37   22 1
    38   38   22 1
    39    7   20 ar
    40   14   15 ar
    41   16   18 ar
    42   19   20 ar
@<TRIPOS>SUBSTRUCTURE
     1 RES1 1

@<TRIPOS>CRYSIN
   4.7030   16.7390   17.5010  90.0000  90.1800  90.0000 231 1

