# MOL2 file generated by ConQuest
# Please check atom types

@<TRIPOS>MOLECULE
SEVYOK
    35    39     1
SMALL
NO_CHARGES
****
Generated from CSD

@<TRIPOS>ATOM
      1 C1        11.2921    3.6695   -0.4051 C.ar      1 RES1    0.0000
      2 C2        11.6515    4.6602    0.4829 C.ar      1 RES1    0.0000
      3 C3        12.6560    4.4048    1.4546 C.ar      1 RES1    0.0000
      4 C4        14.3078    2.8770    2.5219 C.ar      1 RES1    0.0000
      5 C5        14.7971    1.6458    2.6112 C.ar      1 RES1    0.0000
      6 C6        14.8555   -0.7307    1.9149 C.ar      1 RES1    0.0000
      7 C7        14.8750   -3.1015    1.2938 C.ar      1 RES1    0.0000
      8 C8        14.4853   -4.1265    0.4892 C.ar      1 RES1    0.0000
      9 C9        13.6042   -3.8620   -0.5555 C.ar      1 RES1    0.0000
     10 C10       13.1409   -2.5918   -0.7919 C.ar      1 RES1    0.0000
     11 C11       12.0693    0.1374   -1.1629 C.ar      1 RES1    0.0000
     12 C12       11.5324    1.3778   -1.2596 C.ar      1 RES1    0.0000
     13 C13       13.2643    3.1645    1.5345 C.ar      1 RES1    0.0000
     14 C14       11.8961    2.4086   -0.3631 C.ar      1 RES1    0.0000
     15 C15       12.8703    2.1348    0.6416 C.ar      1 RES1    0.0000
     16 C16       13.4267    0.8303    0.7278 C.ar      1 RES1    0.0000
     17 C17       14.3836    0.5635    1.7541 C.ar      1 RES1    0.0000
     18 C18       12.9981   -0.1855   -0.1445 C.ar      1 RES1    0.0000
     19 C19       13.5155   -1.5290    0.0263 C.ar      1 RES1    0.0000
     20 C20       14.4291   -1.7718    1.1030 C.ar      1 RES1    0.0000
     21 C21       14.7841    3.9948    3.4552 C.3       1 RES1    0.0000
     22 H1        10.5864    3.8597   -1.0878 H         1 RES1    0.0000
     23 H2        11.2142    5.5547    0.4414 H         1 RES1    0.0000
     24 H3        12.9245    5.1309    2.0862 H         1 RES1    0.0000
     25 H4        15.4790    1.4545    3.3106 H         1 RES1    0.0000
     26 H5        15.5223   -0.9162    2.6380 H         1 RES1    0.0000
     27 H6        15.5007   -3.2985    2.0495 H         1 RES1    0.0000
     28 H7        14.8296   -5.0508    0.6464 H         1 RES1    0.0000
     29 H8        13.3141   -4.6156   -1.1456 H         1 RES1    0.0000
     30 H9        12.5348   -2.4280   -1.5660 H         1 RES1    0.0000
     31 H10       11.7987   -0.5612   -1.8235 H         1 RES1    0.0000
     32 H11       10.8678    1.5691   -1.9811 H         1 RES1    0.0000
     33 H12       14.2667    4.8675    3.2213 H         1 RES1    0.0000
     34 H13       15.7821    4.2720    3.4000 H         1 RES1    0.0000
     35 H14       14.6131    3.8826    4.4720 H         1 RES1    0.0000
@<TRIPOS>BOND
     1    1    2 ar
     2    2    3 ar
     3    3   13 ar
     4    4    5 ar
     5    5   17 ar
     6    6   17 ar
     7    7    8 ar
     8    8    9 ar
     9    9   10 ar
    10   10   19 ar
    11   11   12 ar
    12   12   14 ar
    13   13    4 ar
    14   14    1 ar
    15   15   13 ar
    16   16   15 ar
    17   17   16 ar
    18   18   11 ar
    19   19   18 ar
    20   20    6 ar
    21   21    4 1
    22   22    1 1
    23   23    2 1
    24   24    3 1
    25   25    5 1
    26   26    6 1
    27   27    7 1
    28   28    8 1
    29   29    9 1
    30   30   10 1
    31   31   11 1
    32   32   12 1
    33   33   21 1
    34   34   21 1
    35   35   21 1
    36    7   20 ar
    37   14   15 ar
    38   16   18 ar
    39   19   20 ar
@<TRIPOS>SUBSTRUCTURE
     1 RES1 1

@<TRIPOS>CRYSIN
  21.6490   11.4530    5.2550  90.0000  90.0000  90.0000  29 1

