# MOL2 file generated by ConQuest
# Please check atom types

@<TRIPOS>MOLECULE
SIDQON
    58    63     1
SMALL
NO_CHARGES
****
Generated from CSD

@<TRIPOS>ATOM
      1 C1        -0.3505    2.7870    7.2076 C.ar      1 RES1    0.0000
      2 C2        -1.0156    1.9852    8.1567 C.ar      1 RES1    0.0000
      3 C3        -2.3132    2.3314    8.5753 C.ar      1 RES1    0.0000
      4 C4        -2.2185    4.3392    7.2308 C.ar      1 RES1    0.0000
      5 H1        -2.6032    5.1365    6.9476 H         1 RES1    0.0000
      6 C5        -0.9680    3.9917    6.7465 C.ar      1 RES1    0.0000
      7 C6        -0.0762    0.5489    9.9638 C.2       1 RES1    0.0000
      8 H2        -0.4366    1.1487   10.5757 H         1 RES1    0.0000
      9 C7         2.2636   -2.5966   11.6543 C.ar      1 RES1    0.0000
     10 C8         0.6901   -0.5573   10.5248 C.ar      1 RES1    0.0000
     11 C9        -0.3179    0.8012    8.6971 C.2       1 RES1    0.0000
     12 H3        -0.0214    0.1718    8.0801 H         1 RES1    0.0000
     13 C10        5.0331   -1.9009   14.7773 C.ar      1 RES1    0.0000
     14 C11        1.8603   -1.5245   12.4182 C.ar      1 RES1    0.0000
     15 H4         2.1106   -1.4704   13.3125 H         1 RES1    0.0000
     16 C12        1.8266   -2.6809   10.3440 C.ar      1 RES1    0.0000
     17 H5         2.0501   -3.4235    9.8301 H         1 RES1    0.0000
     18 C13        1.0823   -0.5264   11.8576 C.ar      1 RES1    0.0000
     19 H6         0.8147    0.1873   12.3887 H         1 RES1    0.0000
     20 C14        1.0543   -1.6641    9.7870 C.ar      1 RES1    0.0000
     21 H7         0.7791   -1.7330    8.9018 H         1 RES1    0.0000
     22 C15       -2.9149    3.5445    8.1190 C.ar      1 RES1    0.0000
     23 C16        0.9391    2.4621    6.7045 C.ar      1 RES1    0.0000
     24 H8         1.3708    1.6989    7.0150 H         1 RES1    0.0000
     25 C17        1.5516    3.2401    5.7828 C.ar      1 RES1    0.0000
     26 H9         2.3933    3.0045    5.4628 H         1 RES1    0.0000
     27 C18       -0.2794    4.7723    5.7863 C.ar      1 RES1    0.0000
     28 H10       -0.6687    5.5599    5.4802 H         1 RES1    0.0000
     29 C19        4.8031   -2.2587   13.4473 C.ar      1 RES1    0.0000
     30 C20        6.2812    0.0631   14.0212 C.ar      1 RES1    0.0000
     31 H11        6.7857    0.8237   14.2016 H         1 RES1    0.0000
     32 C21        5.2967   -1.4543   12.4643 C.ar      1 RES1    0.0000
     33 H12        5.1349   -1.6808   11.5778 H         1 RES1    0.0000
     34 C22       -3.0953    1.4891    9.4090 C.ar      1 RES1    0.0000
     35 H13       -2.7353    0.6892    9.7170 H         1 RES1    0.0000
     36 C23        5.7568   -0.7330   15.1023 C.ar      1 RES1    0.0000
     37 C24        4.1155   -3.5245   13.0930 C.2       1 RES1    0.0000
     38 H14        4.4363   -4.2974   13.4995 H         1 RES1    0.0000
     39 C25        3.0850   -3.6757   12.2524 C.2       1 RES1    0.0000
     40 H15        2.8599   -4.5483   12.0191 H         1 RES1    0.0000
     41 C26       -4.2384    3.8630    8.5299 C.ar      1 RES1    0.0000
     42 H16       -4.6307    4.6545    8.2388 H         1 RES1    0.0000
     43 C27        0.9182    4.4080    5.3041 C.ar      1 RES1    0.0000
     44 H17        1.3316    4.9261    4.6520 H         1 RES1    0.0000
     45 C28        4.7648   -2.2761   17.1428 C.ar      1 RES1    0.0000
     46 H18        4.4213   -2.7883   17.8406 H         1 RES1    0.0000
     47 C29        4.5314   -2.6706   15.8666 C.ar      1 RES1    0.0000
     48 H19        4.0423   -3.4447   15.7016 H         1 RES1    0.0000
     49 C30        6.0346   -0.3044   12.7387 C.ar      1 RES1    0.0000
     50 H20        6.3586    0.2143   12.0387 H         1 RES1    0.0000
     51 C31        5.9879   -0.3752   16.4342 C.ar      1 RES1    0.0000
     52 H21        6.4816    0.3887   16.6276 H         1 RES1    0.0000
     53 C32       -4.9362    3.0354    9.3366 C.ar      1 RES1    0.0000
     54 H22       -5.7965    3.2620    9.6083 H         1 RES1    0.0000
     55 C33       -4.3571    1.8321    9.7629 C.ar      1 RES1    0.0000
     56 H23       -4.8496    1.2561   10.3018 H         1 RES1    0.0000
     57 C34        5.4977   -1.1287   17.4493 C.ar      1 RES1    0.0000
     58 H24        5.6483   -0.8861   18.3341 H         1 RES1    0.0000
@<TRIPOS>BOND
     1    1    2 ar
     2    2    3 ar
     3    3   22 ar
     4    4    5 1
     5    6    1 ar
     6    7    8 1
     7    9   14 ar
     8   10    7 1
     9   11    2 1
    10   12   11 1
    11   13   29 ar
    12   14   15 1
    13   16    9 ar
    14   17   16 1
    15   18   10 ar
    16   19   18 1
    17   20   10 ar
    18   21   20 1
    19   22    4 ar
    20   23    1 ar
    21   24   23 1
    22   25   23 ar
    23   26   25 1
    24   27    6 ar
    25   28   27 1
    26   29   32 ar
    27   30   31 1
    28   32   33 1
    29   34    3 ar
    30   35   34 1
    31   36   13 ar
    32   37   29 1
    33   38   37 1
    34   39    9 1
    35   40   39 1
    36   41   22 ar
    37   42   41 1
    38   43   25 ar
    39   44   43 1
    40   45   46 1
    41   47   13 ar
    42   48   47 1
    43   49   30 ar
    44   50   49 1
    45   51   36 ar
    46   52   51 1
    47   53   41 ar
    48   54   53 1
    49   55   34 ar
    50   56   55 1
    51   57   45 ar
    52   58   57 1
    53    4    6 ar
    54    7   11 2
    55   14   18 ar
    56   16   20 ar
    57   27   43 ar
    58   30   36 ar
    59   32   49 ar
    60   37   39 2
    61   45   47 ar
    62   51   57 ar
    63   53   55 ar
@<TRIPOS>SUBSTRUCTURE
     1 RES1 1

@<TRIPOS>CRYSIN
  16.8500    6.4351   22.7820  90.0000 107.4100  90.0000  14 1

