# MOL2 file generated by ConQuest
# Please check atom types

@<TRIPOS>MOLECULE
SIMELL
    19    21     1
SMALL
NO_CHARGES
****
Generated from CSD

@<TRIPOS>ATOM
      1 C1         0.8731   -3.8352    6.5070 C.3       1 RES1    0.0000
      2 C2         1.8207   -3.3323    4.2330 C.ar      1 RES1    0.0000
      3 C3         1.9891   -4.0172    5.4750 C.ar      1 RES1    0.0000
      4 C4         3.0960   -4.7761    5.6795 C.ar      1 RES1    0.0000
      5 C5         4.0793   -4.9356    4.6341 C.ar      1 RES1    0.0000
      6 C6         3.8924   -4.2427    3.4058 C.ar      1 RES1    0.0000
      7 C7         0.8663   -2.3705    7.0176 C.3       1 RES1    0.0000
      8 C8        -0.4965   -4.1513    5.8898 C.3       1 RES1    0.0000
      9 C9         7.0452   -5.2387    1.4296 C.3       1 RES1    0.0000
     10 C10        8.4233   -4.8454    1.9269 C.3       1 RES1    0.0000
     11 C11        7.0647   -6.6337    0.7969 C.3       1 RES1    0.0000
     12 C12        1.0611   -4.8050    7.6968 C.3       1 RES1    0.0000
     13 C13        2.4807   -4.8935    8.1307 C.3       1 RES1    0.0000
     14 C14        3.3525   -5.4770    7.0133 C.3       1 RES1    0.0000
     15 C15        5.2146   -5.7457    4.7483 C.ar      1 RES1    0.0000
     16 C16        6.1488   -5.8630    3.7508 C.ar      1 RES1    0.0000
     17 C17        5.9879   -5.1336    2.5311 C.ar      1 RES1    0.0000
     18 C18        4.8953   -4.3625    2.3857 C.ar      1 RES1    0.0000
     19 C19        2.7628   -3.4528    3.2243 C.ar      1 RES1    0.0000
@<TRIPOS>BOND
     1    1    3 1
     2    2    3 ar
     3    3    4 ar
     4    4    5 ar
     5    5    6 ar
     6    6   18 ar
     7    7    1 1
     8    8    1 1
     9    9   10 1
    10   11    9 1
    11   12    1 1
    12   13   12 1
    13   14    4 1
    14   15    5 ar
    15   16   15 ar
    16   17    9 1
    17   18   17 ar
    18   19    2 ar
    19    6   19 ar
    20   13   14 1
    21   16   17 ar
@<TRIPOS>SUBSTRUCTURE
     1 RES1 1

@<TRIPOS>CRYSIN
   9.2310    9.1340   36.0100  90.0000  90.0000  90.0000  56 2

