# MOL2 file generated by ConQuest
# Please check atom types

@<TRIPOS>MOLECULE
SIRDAA
    52    56     1
SMALL
NO_CHARGES
****
Generated from CSD

@<TRIPOS>ATOM
      1 C1         2.4418    1.1721   -7.6288 C.ar      1 RES1    0.0000
      2 C2         2.8969    1.5768   -8.8194 C.ar      1 RES1    0.0000
      3 H1         3.6988    2.0468   -8.8508 H         1 RES1    0.0000
      4 C3         2.2198    1.3249  -10.0324 C.ar      1 RES1    0.0000
      5 C4         0.9197    0.6955   -9.9471 C.ar      1 RES1    0.0000
      6 C5         0.4045    0.3870   -8.6711 C.ar      1 RES1    0.0000
      7 H2        -0.4616    0.0551   -8.5992 H         1 RES1    0.0000
      8 C6         1.1305    0.5596   -7.5479 C.ar      1 RES1    0.0000
      9 H3         0.7913    0.2872   -6.7257 H         1 RES1    0.0000
     10 C7         2.7491    1.6524  -11.2814 C.ar      1 RES1    0.0000
     11 H4         3.5781    2.0703  -11.3398 H         1 RES1    0.0000
     12 C8         2.0325    1.3528  -12.4361 C.ar      1 RES1    0.0000
     13 C9         0.7454    0.7204  -12.3911 C.ar      1 RES1    0.0000
     14 C10        0.2508    0.4245  -11.1377 C.ar      1 RES1    0.0000
     15 H5        -0.5841    0.0176  -11.0792 H         1 RES1    0.0000
     16 C11        2.5589    1.6752  -13.7255 C.ar      1 RES1    0.0000
     17 H6         3.3962    2.0732  -13.7929 H         1 RES1    0.0000
     18 C12        1.8471    1.4056  -14.8487 C.ar      1 RES1    0.0000
     19 H7         2.2257    1.6105  -15.6754 H         1 RES1    0.0000
     20 C13        0.5588    0.8291  -14.8262 C.ar      1 RES1    0.0000
     21 C14        0.0577    0.4700  -13.5772 C.ar      1 RES1    0.0000
     22 H8        -0.7684    0.0455  -13.5323 H         1 RES1    0.0000
     23 C15        3.2184    1.3131   -6.4247 C.2       1 RES1    0.0000
     24 H9         3.9532    1.8801   -6.4831 H         1 RES1    0.0000
     25 C16        3.0205    0.7373   -5.2431 C.2       1 RES1    0.0000
     26 H10        2.2698    0.1917   -5.1757 H         1 RES1    0.0000
     27 C17        3.8437    0.8556   -4.0255 C.ar      1 RES1    0.0000
     28 C18        5.0990    1.4284   -4.0166 C.ar      1 RES1    0.0000
     29 H11        5.4911    1.6803   -4.8208 H         1 RES1    0.0000
     30 C19        5.7861    1.6355   -2.8305 C.ar      1 RES1    0.0000
     31 H12        6.6146    2.0593   -2.8350 H         1 RES1    0.0000
     32 C20        5.2315    1.2088   -1.6309 C.ar      1 RES1    0.0000
     33 H13        5.6831    1.3381   -0.8312 H         1 RES1    0.0000
     34 C21        4.0033    0.5912   -1.6489 C.ar      1 RES1    0.0000
     35 H14        3.6276    0.2857   -0.8581 H         1 RES1    0.0000
     36 C22        3.3273    0.4223   -2.8394 C.ar      1 RES1    0.0000
     37 H15        2.4971    0.0029   -2.8305 H         1 RES1    0.0000
     38 C23       -0.2685    0.6801  -15.9899 C.2       1 RES1    0.0000
     39 H16       -1.0422    0.1733  -15.8865 H         1 RES1    0.0000
     40 C24       -0.0500    1.1787  -17.1670 C.2       1 RES1    0.0000
     41 H17        0.7548    1.6340  -17.2658 H         1 RES1    0.0000
     42 C25       -0.8856    1.1258  -18.3576 C.ar      1 RES1    0.0000
     43 C26       -0.3556    1.5760  -19.5931 C.ar      1 RES1    0.0000
     44 H18        0.4640    2.0145  -19.6156 H         1 RES1    0.0000
     45 C27       -1.0422    1.3689  -20.7343 C.ar      1 RES1    0.0000
     46 H19       -0.6683    1.6296  -21.5475 H         1 RES1    0.0000
     47 C28       -2.2987    0.7726  -20.7253 C.ar      1 RES1    0.0000
     48 H20       -2.7768    0.6617  -21.5160 H         1 RES1    0.0000
     49 C29       -2.8198    0.3510  -19.5302 C.ar      1 RES1    0.0000
     50 H21       -3.6588   -0.0492  -19.5212 H         1 RES1    0.0000
     51 C30       -2.1556    0.4987  -18.3711 C.ar      1 RES1    0.0000
     52 H22       -2.5295    0.1887  -17.5803 H         1 RES1    0.0000
@<TRIPOS>BOND
     1    1    2 ar
     2    2    3 1
     3    4    2 ar
     4    5    4 ar
     5    6    5 ar
     6    7    6 1
     7    8    1 ar
     8    9    8 1
     9   10    4 ar
    10   11   10 1
    11   12   10 ar
    12   13   12 ar
    13   14    5 ar
    14   15   14 1
    15   16   12 ar
    16   17   16 1
    17   18   16 ar
    18   19   18 1
    19   20   18 ar
    20   21   13 ar
    21   22   21 1
    22   23    1 1
    23   24   23 1
    24   25   23 2
    25   26   25 1
    26   27   25 1
    27   28   27 ar
    28   29   28 1
    29   30   28 ar
    30   31   30 1
    31   32   30 ar
    32   33   32 1
    33   34   32 ar
    34   35   34 1
    35   36   27 ar
    36   37   36 1
    37   38   20 1
    38   39   38 1
    39   40   38 2
    40   41   40 1
    41   42   40 1
    42   43   42 ar
    43   44   43 1
    44   45   43 ar
    45   46   45 1
    46   47   45 ar
    47   48   47 1
    48   49   47 ar
    49   50   49 1
    50   51   42 ar
    51   52   51 1
    52    6    8 ar
    53   13   14 ar
    54   20   21 ar
    55   34   36 ar
    56   49   51 ar
@<TRIPOS>SUBSTRUCTURE
     1 RES1 1

@<TRIPOS>CRYSIN
   5.8880    7.3440   44.9280  90.0000  90.0000  90.0000  19 1

