# MOL2 file generated by ConQuest
# Please check atom types

@<TRIPOS>MOLECULE
SIWFUZ10
    20    23     1
SMALL
NO_CHARGES
****
Generated from CSD

@<TRIPOS>ATOM
      1 C1        -1.8298    0.0795    6.8419 C.3       1 RES1    0.0000
      2 H1        -2.4494    0.1143    7.6128 H         1 RES1    0.0000
      3 H2        -1.6749   -0.8315    6.4925 H         1 RES1    0.0000
      4 C2        -0.8007    1.1779    6.6774 C.ar      1 RES1    0.0000
      5 C3         0.1905    2.0934    6.6825 C.ar      1 RES1    0.0000
      6 H3         0.9766    2.0709    7.2650 H         1 RES1    0.0000
      7 C4         0.0433    3.1462    5.7148 C.ar      1 RES1    0.0000
      8 C5         1.0461    4.1707    5.6347 C.ar      1 RES1    0.0000
      9 H4         1.8120    4.1329    6.2258 H         1 RES1    0.0000
     10 C6        -1.8790    1.2006    5.8484 C.ar      1 RES1    0.0000
     11 C4B       -1.1037    3.1675    4.8249 C.ar      1 RES1    0.0000
     12 C3B       -1.2508    4.2203    3.8572 C.ar      1 RES1    0.0000
     13 C2B       -0.2597    5.1358    3.8623 C.ar      1 RES1    0.0000
     14 C1B        0.7694    6.2342    3.6977 C.3       1 RES1    0.0000
     15 H1B        1.3890    6.1994    2.9269 H         1 RES1    0.0000
     16 H2B        0.6146    7.1452    4.0472 H         1 RES1    0.0000
     17 C6B        0.8187    5.1131    4.6913 C.ar      1 RES1    0.0000
     18 H3B       -2.0369    4.2428    3.2747 H         1 RES1    0.0000
     19 C5B       -2.1064    2.1430    4.9050 C.ar      1 RES1    0.0000
     20 H4B       -2.8723    2.1808    4.3139 H         1 RES1    0.0000
@<TRIPOS>BOND
     1    1    2 1
     2    3    1 1
     3    4    1 1
     4    5    4 ar
     5    6    5 1
     6    7    5 ar
     7    8    7 ar
     8    9    8 1
     9   10    1 1
    10   11    7 ar
    11   12   11 ar
    12   13   12 ar
    13   14   13 1
    14   15   14 1
    15   16   14 1
    16   17    8 ar
    17   18   12 1
    18   19   10 ar
    19   20   19 1
    20    4   10 ar
    21   11   19 ar
    22   13   17 ar
    23   14   17 1
@<TRIPOS>SUBSTRUCTURE
     1 RES1 1

@<TRIPOS>CRYSIN
   5.7144    6.3137   10.5929  90.0000  95.7450  90.0000 231 1

