# MOL2 file generated by ConQuest
# Please check atom types

@<TRIPOS>MOLECULE
SIWFUZ
    20    23     1
SMALL
NO_CHARGES
****
Generated from CSD

@<TRIPOS>ATOM
      1 C1        -1.8296    0.0796    6.8424 C.3       1 RES1    0.0000
      2 C2        -0.8010    1.1781    6.6780 C.ar      1 RES1    0.0000
      3 C3         0.1906    2.0936    6.6822 C.ar      1 RES1    0.0000
      4 C4         0.0434    3.1461    5.7147 C.ar      1 RES1    0.0000
      5 C5         1.0463    4.1708    5.6346 C.ar      1 RES1    0.0000
      6 C6        -1.8793    1.2002    5.8485 C.ar      1 RES1    0.0000
      7 H1        -2.4494    0.1143    7.6129 H         1 RES1    0.0000
      8 H2        -1.6749   -0.8309    6.4925 H         1 RES1    0.0000
      9 H3         0.9765    2.0709    7.2651 H         1 RES1    0.0000
     10 H4         1.8120    4.1329    6.2259 H         1 RES1    0.0000
     11 C4B       -1.1037    3.1676    4.8251 C.ar      1 RES1    0.0000
     12 C6B        0.8189    5.1135    4.6913 C.ar      1 RES1    0.0000
     13 C5B       -2.1067    2.1429    4.9052 C.ar      1 RES1    0.0000
     14 C3B       -1.2510    4.2201    3.8576 C.ar      1 RES1    0.0000
     15 C1B        0.7692    6.2341    3.6974 C.3       1 RES1    0.0000
     16 C2B       -0.2594    5.1356    3.8618 C.ar      1 RES1    0.0000
     17 H4B       -2.8723    2.1808    4.3139 H         1 RES1    0.0000
     18 H3B       -2.0369    4.2428    3.2747 H         1 RES1    0.0000
     19 H1B        1.3890    6.1994    2.9269 H         1 RES1    0.0000
     20 H2B        0.6146    7.1446    4.0473 H         1 RES1    0.0000
@<TRIPOS>BOND
     1    1    2 1
     2    2    3 ar
     3    3    4 ar
     4    4    5 ar
     5    5   10 1
     6    6    1 1
     7    7    1 1
     8    8    1 1
     9    9    3 1
    10   11    4 ar
    11   12    5 ar
    12   13    6 ar
    13   14   11 ar
    14   15   12 1
    15   16   12 ar
    16   17   13 1
    17   18   14 1
    18   19   15 1
    19   20   15 1
    20    2    6 ar
    21   11   13 ar
    22   14   16 ar
    23   15   16 1
@<TRIPOS>SUBSTRUCTURE
     1 RES1 1

@<TRIPOS>CRYSIN
   5.7144    6.3137   10.5930  90.0000  95.7450  90.0000 231 1

