# MOL2 file generated by ConQuest
# Please check atom types

@<TRIPOS>MOLECULE
SOBCIV
    62    70     1
SMALL
NO_CHARGES
****
Generated from CSD

@<TRIPOS>ATOM
      1 C1        -4.4376    8.2696   -3.3358 C.ar      1 RES1    0.0000
      2 C2        -3.3254    7.4127   -3.6654 C.ar      1 RES1    0.0000
      3 C3        -3.5706    6.3531   -4.5129 C.ar      1 RES1    0.0000
      4 C4        -4.8992    6.1863   -5.0064 C.ar      1 RES1    0.0000
      5 C5        -5.9261    7.0392   -4.7103 C.ar      1 RES1    0.0000
      6 C6        -5.7025    8.1225   -3.8498 C.ar      1 RES1    0.0000
      7 C7        -6.6665    9.0814   -3.4289 C.ar      1 RES1    0.0000
      8 C8        -6.3154   10.0032   -2.5014 C.ar      1 RES1    0.0000
      9 C9        -5.0350   10.0933   -1.9314 C.ar      1 RES1    0.0000
     10 C10       -4.0593    9.2006   -2.3579 C.ar      1 RES1    0.0000
     11 C11       -2.6349    8.9490   -2.0208 C.ar      1 RES1    0.0000
     12 C12       -1.8014    9.4959   -1.0709 C.ar      1 RES1    0.0000
     13 C13       -2.4139   10.5568   -0.1900 C.ar      1 RES1    0.0000
     14 C14       -2.5183   11.8706   -0.6388 C.ar      1 RES1    0.0000
     15 C15       -3.1187   12.8228    0.1546 C.ar      1 RES1    0.0000
     16 C16       -3.6382   12.4732    1.3596 C.ar      1 RES1    0.0000
     17 C17       -3.5542   11.1872    1.8402 C.ar      1 RES1    0.0000
     18 C18       -2.9162   10.2323    1.0449 C.ar      1 RES1    0.0000
     19 C19       -2.1729    7.8669   -2.8720 C.ar      1 RES1    0.0000
     20 C20       -0.9005    7.4060   -2.7565 C.ar      1 RES1    0.0000
     21 C21       -0.3797    6.4127   -3.7381 C.ar      1 RES1    0.0000
     22 C22       -0.0427    5.1135   -3.3916 C.ar      1 RES1    0.0000
     23 C23        0.4631    4.2368   -4.3248 C.ar      1 RES1    0.0000
     24 C24        0.6185    4.6314   -5.6322 C.ar      1 RES1    0.0000
     25 C25        0.2714    5.8896   -6.0085 C.ar      1 RES1    0.0000
     26 C26       -0.2289    6.7995   -5.0698 C.ar      1 RES1    0.0000
     27 C27       -0.0456    7.9159   -1.7396 C.ar      1 RES1    0.0000
     28 C28       -0.4986    9.0165   -0.9070 C.ar      1 RES1    0.0000
     29 C29        0.4854    9.5476    0.0522 C.ar      1 RES1    0.0000
     30 C30        0.3772   10.6985    0.8698 C.ar      1 RES1    0.0000
     31 C31        1.3845   11.0296    1.7396 C.ar      1 RES1    0.0000
     32 C32        2.5608   10.3012    1.8569 C.ar      1 RES1    0.0000
     33 C33        2.7250    9.2046    1.0542 C.ar      1 RES1    0.0000
     34 C34        3.8844    8.2457    0.9238 C.3       1 RES1    0.0000
     35 C35        3.4437    7.2763   -0.1732 C.3       1 RES1    0.0000
     36 C36        2.0753    7.7252   -0.5941 C.ar      1 RES1    0.0000
     37 C37        1.2528    7.3253   -1.5422 C.ar      1 RES1    0.0000
     38 C38        1.6939    8.8536    0.1807 C.ar      1 RES1    0.0000
     39 H1        -2.6384    5.7161   -4.7215 H         1 RES1    0.0000
     40 H2        -5.0122    5.4353   -5.5577 H         1 RES1    0.0000
     41 H3        -6.9072    6.9081   -5.0586 H         1 RES1    0.0000
     42 H4        -7.5923    9.0509   -3.8237 H         1 RES1    0.0000
     43 H5        -7.0336   10.5555   -2.1344 H         1 RES1    0.0000
     44 H6        -4.8654   10.6270   -1.1343 H         1 RES1    0.0000
     45 H7        -2.1677   12.0454   -1.5459 H         1 RES1    0.0000
     46 H8        -3.4434   13.6546   -0.1248 H         1 RES1    0.0000
     47 H9        -4.1248   13.0904    1.9501 H         1 RES1    0.0000
     48 H10       -3.9470   10.8746    2.7360 H         1 RES1    0.0000
     49 H11       -2.8412    9.4244    1.3764 H         1 RES1    0.0000
     50 H12       -0.1142    4.9546   -2.4287 H         1 RES1    0.0000
     51 H13        0.9330    3.5322   -4.0137 H         1 RES1    0.0000
     52 H14        1.2264    4.0063   -6.3028 H         1 RES1    0.0000
     53 H15        0.2623    6.1942   -7.0124 H         1 RES1    0.0000
     54 H16       -0.8579    7.6630   -5.4143 H         1 RES1    0.0000
     55 H17       -0.5302   11.2653    0.7785 H         1 RES1    0.0000
     56 H18        1.2850   11.7911    2.4138 H         1 RES1    0.0000
     57 H19        3.3173   10.5157    2.4846 H         1 RES1    0.0000
     58 H20        4.8441    8.7609    0.6239 H         1 RES1    0.0000
     59 H21        4.2496    7.7888    1.7433 H         1 RES1    0.0000
     60 H22        4.0808    7.3107   -0.9704 H         1 RES1    0.0000
     61 H23        3.5277    6.5452   -0.0373 H         1 RES1    0.0000
     62 H24        1.6371    6.6432   -2.0991 H         1 RES1    0.0000
@<TRIPOS>BOND
     1    1    2 ar
     2    2    3 ar
     3    3    4 ar
     4    4    5 ar
     5    5    6 ar
     6    6    1 ar
     7    7    6 ar
     8    8    7 ar
     9    9    8 ar
    10   10    1 ar
    11   11   10 1
    12   12   11 ar
    13   13   12 1
    14   14   13 ar
    15   15   14 ar
    16   16   15 ar
    17   17   16 ar
    18   18   13 ar
    19   19    2 1
    20   20   19 ar
    21   21   20 1
    22   22   21 ar
    23   23   22 ar
    24   24   23 ar
    25   25   24 ar
    26   26   21 ar
    27   27   20 ar
    28   28   12 ar
    29   29   28 ar
    30   30   29 ar
    31   31   30 ar
    32   32   31 ar
    33   33   32 ar
    34   34   33 1
    35   35   34 1
    36   36   35 1
    37   37   27 ar
    38   38   29 ar
    39   39    3 1
    40   40    4 1
    41   41    5 1
    42   42    7 1
    43   43    8 1
    44   44    9 1
    45   45   14 1
    46   46   15 1
    47   47   16 1
    48   48   17 1
    49   49   18 1
    50   50   22 1
    51   51   23 1
    52   52   24 1
    53   53   25 1
    54   54   26 1
    55   55   30 1
    56   56   31 1
    57   57   32 1
    58   58   34 1
    59   59   34 1
    60   60   35 1
    61   61   35 1
    62   62   37 1
    63    9   10 ar
    64   11   19 ar
    65   17   18 ar
    66   25   26 ar
    67   27   28 ar
    68   33   38 ar
    69   36   37 ar
    70   36   38 ar
@<TRIPOS>SUBSTRUCTURE
     1 RES1 1

@<TRIPOS>CRYSIN
  10.0970   13.2440   18.7230  90.0000  95.8600  90.0000  14 1

