# MOL2 file generated by ConQuest
# Please check atom types

@<TRIPOS>MOLECULE
SOHVUG01
    27    29     1
SMALL
NO_CHARGES
****
Generated from CSD

@<TRIPOS>ATOM
      1 C1         1.4777    4.0440   14.4167 C.ar      1 RES1    0.0000
      2 C2         0.2161    4.9939   12.5011 C.ar      1 RES1    0.0000
      3 C3         2.1976    3.0247   15.0557 C.ar      1 RES1    0.0000
      4 H1         2.4178    2.2381   14.5705 H         1 RES1    0.0000
      5 C4         1.1810    5.2278   15.1574 C.ar      1 RES1    0.0000
      6 C5         1.5943    5.3085   16.4951 C.ar      1 RES1    0.0000
      7 H2         1.3947    6.0918   16.9933 H         1 RES1    0.0000
      8 C6         1.2273    2.8026   12.2322 C.ar      1 RES1    0.0000
      9 H3         1.7532    2.0934   12.5821 H         1 RES1    0.0000
     10 C7         0.9910    3.9396   13.0428 C.ar      1 RES1    0.0000
     11 C8        -0.0247    6.1718   13.2787 C.ar      1 RES1    0.0000
     12 H4        -0.5238    6.8876   12.9020 H         1 RES1    0.0000
     13 C9         0.4487    6.2821   14.5442 C.ar      1 RES1    0.0000
     14 H5         0.2871    7.0806   15.0326 H         1 RES1    0.0000
     15 C10        0.7263    2.6870   10.9621 C.ar      1 RES1    0.0000
     16 C11       -0.3143    4.8465   11.2096 C.ar      1 RES1    0.0000
     17 H6        -0.8547    5.5418   10.8524 H         1 RES1    0.0000
     18 C12        2.5940    3.1384   16.3773 C.ar      1 RES1    0.0000
     19 H7         3.0789    2.4338   16.7899 H         1 RES1    0.0000
     20 C13        2.2795    4.2886   17.1025 C.ar      1 RES1    0.0000
     21 H8         2.5387    4.3639   18.0142 H         1 RES1    0.0000
     22 C14       -0.0786    3.7366   10.4519 C.ar      1 RES1    0.0000
     23 H9        -0.4542    3.6672    9.5827 H         1 RES1    0.0000
     24 C15        1.0226    1.4972   10.1109 C.3       1 RES1    0.0000
     25 H10        1.3818    0.7205   10.7003 H         1 RES1    0.0000
     26 H11        0.2231    1.2096    9.6103 H         1 RES1    0.0000
     27 H12        1.7208    1.7186    9.3991 H         1 RES1    0.0000
@<TRIPOS>BOND
     1    1    3 ar
     2    2   10 ar
     3    3    4 1
     4    5    1 ar
     5    6    5 ar
     6    7    6 1
     7    8    9 1
     8   10    1 ar
     9   11    2 ar
    10   12   11 1
    11   13    5 ar
    12   14   13 1
    13   15    8 ar
    14   16    2 ar
    15   17   16 1
    16   18    3 ar
    17   19   18 1
    18   20    6 ar
    19   21   20 1
    20   22   15 ar
    21   23   22 1
    22   24   15 1
    23   25   24 1
    24   26   24 1
    25   27   24 1
    26    8   10 ar
    27   11   13 ar
    28   16   22 ar
    29   18   20 ar
@<TRIPOS>SUBSTRUCTURE
     1 RES1 1

@<TRIPOS>CRYSIN
   7.8950    6.6100   20.0480  90.0000  99.9590  90.0000 231 1

