# MOL2 file generated by ConQuest
# Please check atom types

@<TRIPOS>MOLECULE
SUHHAG
    43    47     1
SMALL
NO_CHARGES
****
Generated from CSD

@<TRIPOS>ATOM
      1 C1         1.3229    6.8960   -1.5162 C.ar      1 RES1    0.0000
      2 C2         0.0490    7.4050   -1.1316 C.ar      1 RES1    0.0000
      3 H1        -0.1300    7.5632   -0.2123 H         1 RES1    0.0000
      4 C3        -0.9255    7.6723   -2.0622 C.ar      1 RES1    0.0000
      5 H2        -1.7629    8.0225   -1.7806 H         1 RES1    0.0000
      6 C4        -0.6922    7.4310   -3.4338 C.ar      1 RES1    0.0000
      7 H3        -1.3736    7.6087   -4.0719 H         1 RES1    0.0000
      8 C5         0.5202    6.9401   -3.8415 C.ar      1 RES1    0.0000
      9 H4         0.6706    6.7761   -4.7649 H         1 RES1    0.0000
     10 C6         1.5542    6.6727   -2.9106 C.ar      1 RES1    0.0000
     11 C7         2.8279    6.2185   -3.3444 C.ar      1 RES1    0.0000
     12 H5         2.9914    6.0702   -4.2682 H         1 RES1    0.0000
     13 C8         3.8095    5.9966   -2.4359 C.ar      1 RES1    0.0000
     14 C9         5.2333    5.5617   -2.6598 C.3       1 RES1    0.0000
     15 H6         5.2725    4.6673   -3.0835 H         1 RES1    0.0000
     16 H7         5.7217    6.2112   -3.2257 H         1 RES1    0.0000
     17 C10        5.7853    5.5290   -1.2730 C.2       1 RES1    0.0000
     18 H8         6.6820    5.2931   -1.0655 H         1 RES1    0.0000
     19 C11        4.8654    5.8732   -0.3480 C.2       1 RES1    0.0000
     20 C12        3.5937    6.1976   -1.0307 C.ar      1 RES1    0.0000
     21 C13        2.3658    6.6478   -0.5612 C.ar      1 RES1    0.0000
     22 C14        2.1314    6.9082    0.8907 C.ar      1 RES1    0.0000
     23 C15        1.2126    6.1378    1.6169 C.ar      1 RES1    0.0000
     24 H9         0.6949    5.4759    1.1737 H         1 RES1    0.0000
     25 C16        1.0574    6.3400    2.9835 C.ar      1 RES1    0.0000
     26 H10        0.4320    5.8148    3.4690 H         1 RES1    0.0000
     27 C17        1.8080    7.3028    3.6457 C.ar      1 RES1    0.0000
     28 H11        1.7091    7.4250    4.5826 H         1 RES1    0.0000
     29 C18        2.7061    8.0867    2.9277 C.ar      1 RES1    0.0000
     30 H12        3.2145    8.7544    3.3729 H         1 RES1    0.0000
     31 C19        2.8594    7.8943    1.5616 C.ar      1 RES1    0.0000
     32 H13        3.4675    8.4397    1.0766 H         1 RES1    0.0000
     33 C20        5.1722    5.9121    1.1014 C.ar      1 RES1    0.0000
     34 C21        4.5082    5.0860    2.0183 C.ar      1 RES1    0.0000
     35 H14        3.8140    4.5099    1.7205 H         1 RES1    0.0000
     36 C22        4.8604    5.1059    3.3582 C.ar      1 RES1    0.0000
     37 H15        4.4135    4.5341    3.9717 H         1 RES1    0.0000
     38 C23        5.8629    5.9564    3.8114 C.ar      1 RES1    0.0000
     39 H16        6.0876    5.9793    4.7338 H         1 RES1    0.0000
     40 C24        6.5354    6.7744    2.9072 C.ar      1 RES1    0.0000
     41 H17        7.2266    7.3512    3.2106 H         1 RES1    0.0000
     42 C25        6.1940    6.7451    1.5637 C.ar      1 RES1    0.0000
     43 H18        6.6615    7.2990    0.9494 H         1 RES1    0.0000
@<TRIPOS>BOND
     1    1    2 ar
     2    2    3 1
     3    4    2 ar
     4    5    4 1
     5    6    4 ar
     6    7    6 1
     7    8    6 ar
     8    9    8 1
     9   10    1 ar
    10   11   10 ar
    11   12   11 1
    12   13   11 ar
    13   14   13 1
    14   15   14 1
    15   16   14 1
    16   17   14 1
    17   18   17 1
    18   19   17 2
    19   20   13 ar
    20   21    1 ar
    21   22   21 1
    22   23   22 ar
    23   24   23 1
    24   25   23 ar
    25   26   25 1
    26   27   25 ar
    27   28   27 1
    28   29   27 ar
    29   30   29 1
    30   31   22 ar
    31   32   31 1
    32   33   19 1
    33   34   33 ar
    34   35   34 1
    35   36   34 ar
    36   37   36 1
    37   38   36 ar
    38   39   38 1
    39   40   38 ar
    40   41   40 1
    41   42   33 ar
    42   43   42 1
    43    8   10 ar
    44   19   20 1
    45   20   21 ar
    46   29   31 ar
    47   40   42 ar
@<TRIPOS>SUBSTRUCTURE
     1 RES1 1

@<TRIPOS>CRYSIN
   9.3651    9.5625   11.0503  71.4470  67.3410  65.4810   2 1

