# MOL2 file generated by ConQuest
# Please check atom types

@<TRIPOS>MOLECULE
SUHVEY
    98   108     2
SMALL
NO_CHARGES
****
Generated from CSD

@<TRIPOS>ATOM
      1 C1         4.4476    5.5274    3.3775 C.2       1 RES1    0.0000
      2 C2         5.6675    5.4171    3.9298 C.2       1 RES1    0.0000
      3 H1         6.1537    6.1508    4.2879 H         1 RES1    0.0000
      4 C3         6.1743    4.0105    3.9179 C.3       1 RES1    0.0000
      5 H2         6.3335    3.6785    4.8372 H         1 RES1    0.0000
      6 H3         7.0106    3.9339    3.3940 H         1 RES1    0.0000
      7 C4         5.0495    3.2677    3.2580 C.ar      1 RES1    0.0000
      8 C5         4.9474    1.9371    2.9701 C.ar      1 RES1    0.0000
      9 H4         5.6707    1.3554    3.1743 H         1 RES1    0.0000
     10 C6         3.7802    1.4175    2.3722 C.ar      1 RES1    0.0000
     11 C7         3.6197   -0.0002    2.0923 C.ar      1 RES1    0.0000
     12 C8         4.6362   -0.9431    2.3396 C.ar      1 RES1    0.0000
     13 H5         5.4705   -0.6462    2.6856 H         1 RES1    0.0000
     14 C9         4.4508   -2.2802    2.0940 C.ar      1 RES1    0.0000
     15 H6         5.1535   -2.8939    2.2709 H         1 RES1    0.0000
     16 C10        3.2375   -2.7431    1.5854 C.ar      1 RES1    0.0000
     17 H7         3.1124   -3.6708    1.4205 H         1 RES1    0.0000
     18 C11        2.2234   -1.8528    1.3227 C.ar      1 RES1    0.0000
     19 H8         1.3984   -2.1692    0.9735 H         1 RES1    0.0000
     20 C12        2.3974   -0.4743    1.5665 C.ar      1 RES1    0.0000
     21 C13        1.3436    0.4545    1.3097 C.ar      1 RES1    0.0000
     22 H9         0.5167    0.1338    0.9697 H         1 RES1    0.0000
     23 C14        1.4948    1.7746    1.5377 C.ar      1 RES1    0.0000
     24 H10        0.7761    2.3631    1.3371 H         1 RES1    0.0000
     25 C15        2.7122    2.3168    2.0769 C.ar      1 RES1    0.0000
     26 C16        2.8234    3.7113    2.3665 C.ar      1 RES1    0.0000
     27 C17        3.9949    4.1762    2.9525 C.ar      1 RES1    0.0000
     28 C18        3.7355    6.8153    3.2194 C.ar      1 RES1    0.0000
     29 C19        3.4186    7.3040    1.9483 C.ar      1 RES1    0.0000
     30 H11        3.6530    6.8000    1.1780 H         1 RES1    0.0000
     31 C20        2.7643    8.5194    1.8051 C.ar      1 RES1    0.0000
     32 H12        2.5492    8.8431    0.9394 H         1 RES1    0.0000
     33 C21        2.4262    9.2590    2.9226 C.ar      1 RES1    0.0000
     34 H13        1.9769   10.0893    2.8220 H         1 RES1    0.0000
     35 C22        2.7403    8.7936    4.1876 C.ar      1 RES1    0.0000
     36 H14        2.5127    9.3062    4.9546 H         1 RES1    0.0000
     37 C23        3.3885    7.5751    4.3326 C.ar      1 RES1    0.0000
     38 H15        3.5974    7.2554    5.2027 H         1 RES1    0.0000
     39 C24        1.6903    4.6268    2.0432 C.ar      1 RES1    0.0000
     40 C25        1.0013    5.3046    3.0449 C.ar      1 RES1    0.0000
     41 H16        1.2358    5.1631    3.9546 H         1 RES1    0.0000
     42 C26       -0.0239    6.1848    2.7275 C.ar      1 RES1    0.0000
     43 H17       -0.4819    6.6493    3.4167 H         1 RES1    0.0000
     44 C27       -0.3779    6.3842    1.4055 C.ar      1 RES1    0.0000
     45 H18       -1.0743    6.9923    1.1875 H         1 RES1    0.0000
     46 C28        0.2784    5.6997    0.3994 C.ar      1 RES1    0.0000
     47 H19        0.0254    5.8293   -0.5076 H         1 RES1    0.0000
     48 C29        1.3031    4.8276    0.7131 C.ar      1 RES1    0.0000
     49 H20        1.7497    4.3585    0.0170 H         1 RES1    0.0000
     50 C30        0.1879    2.7936    6.2654 C.2       2 RES2    0.0000
     51 C31       -1.0441    2.8963    5.7308 C.2       2 RES2    0.0000
     52 H21       -1.5304    2.1585    5.3827 H         2 RES2    0.0000
     53 C32       -1.5613    4.2980    5.7446 C.3       2 RES2    0.0000
     54 H22       -2.3866    4.3723    6.2861 H         2 RES2    0.0000
     55 H23       -1.7433    4.6231    4.8277 H         2 RES2    0.0000
     56 C33       -0.4268    5.0488    6.3740 C.ar      2 RES2    0.0000
     57 C34       -0.3144    6.3917    6.6007 C.ar      2 RES2    0.0000
     58 H24       -1.0333    6.9708    6.3770 H         2 RES2    0.0000
     59 C35        0.8659    6.9236    7.1653 C.ar      2 RES2    0.0000
     60 C36        1.0430    8.3516    7.3672 C.ar      2 RES2    0.0000
     61 C37        0.0383    9.2988    7.0638 C.ar      2 RES2    0.0000
     62 H25       -0.7964    8.9970    6.7255 H         2 RES2    0.0000
     63 C38        0.2392   10.6431    7.2452 C.ar      2 RES2    0.0000
     64 H26       -0.4592   11.2554    7.0418 H         2 RES2    0.0000
     65 C39        1.4596   11.1213    7.7274 C.ar      2 RES2    0.0000
     66 H27        1.5974   12.0539    7.8429 H         2 RES2    0.0000
     67 C40        2.4609   10.2276    8.0340 C.ar      2 RES2    0.0000
     68 H28        3.2926   10.5508    8.3619 H         2 RES2    0.0000
     69 C41        2.2734    8.8442    7.8708 C.ar      2 RES2    0.0000
     70 C42        3.3059    7.9128    8.2016 C.ar      2 RES2    0.0000
     71 H29        4.1315    8.2370    8.5418 H         2 RES2    0.0000
     72 C43        3.1365    6.5816    8.0424 C.ar      2 RES2    0.0000
     73 H30        3.8396    5.9939    8.2937 H         2 RES2    0.0000
     74 C44        1.9237    6.0280    7.5043 C.ar      2 RES2    0.0000
     75 C45        1.8024    4.6242    7.2594 C.ar      2 RES2    0.0000
     76 C46        0.6277    4.1454    6.6884 C.ar      2 RES2    0.0000
     77 C47        0.9316    1.5142    6.3442 C.ar      2 RES2    0.0000
     78 C48        1.2136    0.8019    5.1787 C.ar      2 RES2    0.0000
     79 H31        0.9359    1.1523    4.3410 H         2 RES2    0.0000
     80 C49        1.8872   -0.3991    5.2202 C.ar      2 RES2    0.0000
     81 H32        2.0654   -0.8723    4.4167 H         2 RES2    0.0000
     82 C50        2.3036   -0.9139    6.4348 C.ar      2 RES2    0.0000
     83 H33        2.7780   -1.7369    6.4660 H         2 RES2    0.0000
     84 C51        2.0258   -0.2238    7.6064 C.ar      2 RES2    0.0000
     85 H34        2.3062   -0.5769    8.4433 H         2 RES2    0.0000
     86 C52        1.3440    0.9739    7.5592 C.ar      2 RES2    0.0000
     87 H35        1.1530    1.4369    8.3676 H         2 RES2    0.0000
     88 C53        2.9301    3.7088    7.6064 C.ar      2 RES2    0.0000
     89 C54        3.2498    3.4636    8.9433 C.ar      2 RES2    0.0000
     90 H36        2.7793    3.9200    9.6308 H         2 RES2    0.0000
     91 C55        4.2469    2.5594    9.2759 C.ar      2 RES2    0.0000
     92 H37        4.4509    2.3908   10.1877 H         2 RES2    0.0000
     93 C56        4.9436    1.9023    8.2789 C.ar      2 RES2    0.0000
     94 H38        5.6190    1.2739    8.5058 H         2 RES2    0.0000
     95 C57        4.6560    2.1609    6.9482 C.ar      2 RES2    0.0000
     96 H39        5.1454    1.7200    6.2634 H         2 RES2    0.0000
     97 C58        3.6572    3.0600    6.6128 C.ar      2 RES2    0.0000
     98 H40        3.4675    3.2354    5.6990 H         2 RES2    0.0000
@<TRIPOS>BOND
     1    1    2 2
     2    2    3 1
     3    4    2 1
     4    5    4 1
     5    6    4 1
     6    7    4 1
     7    8    7 ar
     8    9    8 1
     9   10    8 ar
    10   11   10 ar
    11   12   11 ar
    12   13   12 1
    13   14   12 ar
    14   15   14 1
    15   16   14 ar
    16   17   16 1
    17   18   16 ar
    18   19   18 1
    19   20   11 ar
    20   21   20 ar
    21   22   21 1
    22   23   21 ar
    23   24   23 1
    24   25   10 ar
    25   26   25 ar
    26   27    1 1
    27   28    1 1
    28   29   28 ar
    29   30   29 1
    30   31   29 ar
    31   32   31 1
    32   33   31 ar
    33   34   33 1
    34   35   33 ar
    35   36   35 1
    36   37   28 ar
    37   38   37 1
    38   39   26 1
    39   40   39 ar
    40   41   40 1
    41   42   40 ar
    42   43   42 1
    43   44   42 ar
    44   45   44 1
    45   46   44 ar
    46   47   46 1
    47   48   39 ar
    48   49   48 1
    49   50   51 2
    50   51   52 1
    51   53   51 1
    52   54   53 1
    53   55   53 1
    54   56   53 1
    55   57   56 ar
    56   58   57 1
    57   59   57 ar
    58   60   59 ar
    59   61   60 ar
    60   62   61 1
    61   63   61 ar
    62   64   63 1
    63   65   63 ar
    64   66   65 1
    65   67   65 ar
    66   68   67 1
    67   69   60 ar
    68   70   69 ar
    69   71   70 1
    70   72   70 ar
    71   73   72 1
    72   74   59 ar
    73   75   74 ar
    74   76   50 1
    75   77   50 1
    76   78   77 ar
    77   79   78 1
    78   80   78 ar
    79   81   80 1
    80   82   80 ar
    81   83   82 1
    82   84   82 ar
    83   85   84 1
    84   86   77 ar
    85   87   86 1
    86   88   75 1
    87   89   88 ar
    88   90   89 1
    89   91   89 ar
    90   92   91 1
    91   93   91 ar
    92   94   93 1
    93   95   93 ar
    94   96   95 1
    95   97   88 ar
    96   98   97 1
    97    7   27 ar
    98   18   20 ar
    99   23   25 ar
   100   26   27 ar
   101   35   37 ar
   102   46   48 ar
   103   56   76 ar
   104   67   69 ar
   105   72   74 ar
   106   75   76 ar
   107   84   86 ar
   108   95   97 ar
@<TRIPOS>SUBSTRUCTURE
     1 RES1 1
     2 RES2 50

@<TRIPOS>CRYSIN
  13.1920   15.3847   19.3370  90.0000 101.6345  90.0000  14 1

