# MOL2 file generated by ConQuest
# Please check atom types

@<TRIPOS>MOLECULE
SUJTEY
   102   114     2
SMALL
NO_CHARGES
****
Generated from CSD

@<TRIPOS>ATOM
      1 C1         4.9142    3.0946    1.4078 C.ar      1 RES1    0.0000
      2 H1         4.0630    2.9751    1.0005 H         1 RES1    0.0000
      3 C2         5.2164    4.2755    2.0593 C.ar      1 RES1    0.0000
      4 H2         4.5691    4.9697    2.0999 H         1 RES1    0.0000
      5 C3         6.4677    4.4579    2.6606 C.ar      1 RES1    0.0000
      6 H3         6.6601    5.2682    3.1182 H         1 RES1    0.0000
      7 C4         7.4353    3.4495    2.5890 C.ar      1 RES1    0.0000
      8 C5         8.8317    3.6640    3.1697 C.3       1 RES1    0.0000
      9 H4         8.8439    4.4958    3.7251 H         1 RES1    0.0000
     10 C6         9.3573    2.4907    3.9846 C.ar      1 RES1    0.0000
     11 C7        10.5468    1.9964    3.4640 C.ar      1 RES1    0.0000
     12 C8        11.2500    0.9344    4.1577 C.ar      1 RES1    0.0000
     13 C9        12.6534    0.6080    3.9455 C.ar      1 RES1    0.0000
     14 C10       13.1744   -0.6132    4.4574 C.ar      1 RES1    0.0000
     15 C11       14.5375   -0.9402    4.2715 C.ar      1 RES1    0.0000
     16 H5        14.8590   -1.7901    4.5503 H         1 RES1    0.0000
     17 C12       15.4102   -0.0361    3.6900 C.ar      1 RES1    0.0000
     18 H6        16.3241   -0.2640    3.5625 H         1 RES1    0.0000
     19 C13        5.8687    2.0809    1.3544 C.ar      1 RES1    0.0000
     20 H7         5.6674    1.2625    0.9167 H         1 RES1    0.0000
     21 C14        7.1109    2.2645    1.9397 C.ar      1 RES1    0.0000
     22 H8         7.7525    1.5668    1.8968 H         1 RES1    0.0000
     23 C15       12.3263   -1.4549    5.2486 C.ar      1 RES1    0.0000
     24 H9        12.6262   -2.3193    5.5051 H         1 RES1    0.0000
     25 C16       11.0897   -1.0224    5.6384 C.ar      1 RES1    0.0000
     26 H10       10.5895   -1.5429    6.2567 H         1 RES1    0.0000
     27 C17       10.5263    0.1993    5.1356 C.ar      1 RES1    0.0000
     28 C18        9.2726    0.7070    5.6625 C.ar      1 RES1    0.0000
     29 C19        8.5963    0.1160    6.7582 C.ar      1 RES1    0.0000
     30 H11        8.8959   -0.7199    7.0946 H         1 RES1    0.0000
     31 C20        7.5127    0.7327    7.3422 C.ar      1 RES1    0.0000
     32 H12        7.0939    0.3287    8.0925 H         1 RES1    0.0000
     33 C21        7.0169    1.9556    6.8432 C.ar      1 RES1    0.0000
     34 H13        6.2813    2.3817    7.2673 H         1 RES1    0.0000
     35 C22        7.6017    2.5268    5.7402 C.ar      1 RES1    0.0000
     36 H14        7.2462    3.3324    5.3832 H         1 RES1    0.0000
     37 C23        8.7345    1.9206    5.1290 C.ar      1 RES1    0.0000
     38 C24       14.9296    1.2200    3.2901 C.ar      1 RES1    0.0000
     39 H15       15.5343    1.8606    2.9354 H         1 RES1    0.0000
     40 C25       13.5814    1.5412    3.4056 C.ar      1 RES1    0.0000
     41 H16       13.2754    2.3945    3.1207 H         1 RES1    0.0000
     42 C26       10.8306    2.7244    2.2056 C.ar      1 RES1    0.0000
     43 C27        9.8763    3.7602    2.0700 C.ar      1 RES1    0.0000
     44 C28        9.9109    4.6491    1.0093 C.ar      1 RES1    0.0000
     45 H17        9.2828    5.3591    0.9522 H         1 RES1    0.0000
     46 C29       10.8865    4.4818    0.0249 C.ar      1 RES1    0.0000
     47 H18       10.9492    5.1055   -0.6881 H         1 RES1    0.0000
     48 C30       11.7731    3.3977    0.0861 C.ar      1 RES1    0.0000
     49 H19       12.3989    3.2642   -0.6145 H         1 RES1    0.0000
     50 C31       11.7454    2.5070    1.1686 C.ar      1 RES1    0.0000
     51 H20       12.3384    1.7662    1.1985 H         1 RES1    0.0000
     52 C32        6.8302    7.0238   11.1546 C.ar      2 RES2    0.0000
     53 H21        7.7067    6.9480   11.5129 H         2 RES2    0.0000
     54 C33        5.9369    5.9606   11.2582 C.ar      2 RES2    0.0000
     55 H22        6.2044    5.1586   11.6906 H         2 RES2    0.0000
     56 C34        4.6494    6.0691   10.7270 C.ar      2 RES2    0.0000
     57 H23        4.0482    5.3369   10.7943 H         2 RES2    0.0000
     58 C35        4.2408    7.2436   10.0973 C.ar      2 RES2    0.0000
     59 C36        2.8183    7.4010    9.5653 C.3       2 RES2    0.0000
     60 H24        2.7971    8.1779    8.9356 H         2 RES2    0.0000
     61 C37        2.2053    6.1979    8.8688 C.ar      2 RES2    0.0000
     62 C38        0.9692    5.8685    9.4025 C.ar      2 RES2    0.0000
     63 C39        0.1599    4.8415    8.7812 C.ar      2 RES2    0.0000
     64 C40       -1.2777    4.6958    8.9775 C.ar      2 RES2    0.0000
     65 C41       -2.0969    5.7351    9.4950 C.ar      2 RES2    0.0000
     66 H25       -1.6934    6.5546    9.7583 H         2 RES2    0.0000
     67 C42       -3.4663    5.5823    9.6242 C.ar      2 RES2    0.0000
     68 H26       -3.9867    6.2935    9.9767 H         2 RES2    0.0000
     69 C43       -4.0946    4.3839    9.2377 C.ar      2 RES2    0.0000
     70 H27       -5.0254    4.2644    9.3749 H         2 RES2    0.0000
     71 C44        6.4339    8.1949   10.5249 C.ar      2 RES2    0.0000
     72 H28        7.0366    8.9258   10.4566 H         2 RES2    0.0000
     73 C45        5.1469    8.2986    9.9896 C.ar      2 RES2    0.0000
     74 H29        4.8847    9.0977    9.5475 H         2 RES2    0.0000
     75 C46        1.8137    7.6522   10.6765 C.ar      2 RES2    0.0000
     76 C47        0.7646    6.7126   10.6137 C.ar      2 RES2    0.0000
     77 C48       -0.1765    6.6788   11.6569 C.ar      2 RES2    0.0000
     78 H30       -0.8436    6.0020   11.6805 H         2 RES2    0.0000
     79 C49       -0.1232    7.6481   12.6594 C.ar      2 RES2    0.0000
     80 H31       -0.7711    7.6364   13.3538 H         2 RES2    0.0000
     81 C50        0.8671    8.6373   12.6573 C.ar      2 RES2    0.0000
     82 H32        0.8620    9.3163   13.3208 H         2 RES2    0.0000
     83 C51        1.8638    8.6244   11.6736 C.ar      2 RES2    0.0000
     84 H33        2.5631    9.2680   11.6856 H         2 RES2    0.0000
     85 C52        2.7900    5.4681    7.7927 C.ar      2 RES2    0.0000
     86 C53        2.1291    4.2813    7.3544 C.ar      2 RES2    0.0000
     87 C54        0.8015    3.9718    7.8668 C.ar      2 RES2    0.0000
     88 C55        0.0981    2.8124    7.3948 C.ar      2 RES2    0.0000
     89 H34        0.5499    2.1940    6.8331 H         2 RES2    0.0000
     90 C56       -1.1982    2.5770    7.7292 C.ar      2 RES2    0.0000
     91 H35       -1.6145    1.7667    7.4577 H         2 RES2    0.0000
     92 C57       -1.9388    3.5358    8.4828 C.ar      2 RES2    0.0000
     93 C58       -3.3436    3.3872    8.6580 C.ar      2 RES2    0.0000
     94 H36       -3.7679    2.5874    8.3693 H         2 RES2    0.0000
     95 C59        2.7707    3.4845    6.3699 C.ar      2 RES2    0.0000
     96 H37        2.3619    2.6737    6.0891 H         2 RES2    0.0000
     97 C60        3.9761    3.8599    5.8100 C.ar      2 RES2    0.0000
     98 H38        4.3895    3.3056    5.1597 H         2 RES2    0.0000
     99 C61        4.5958    5.0700    6.2051 C.ar      2 RES2    0.0000
    100 H39        5.4074    5.3457    5.7945 H         2 RES2    0.0000
    101 C62        4.0191    5.8452    7.1840 C.ar      2 RES2    0.0000
    102 H40        4.4501    6.6467    7.4577 H         2 RES2    0.0000
@<TRIPOS>BOND
     1    1    2 1
     2    3    1 ar
     3    4    3 1
     4    5    3 ar
     5    6    5 1
     6    7    5 ar
     7    8    7 1
     8    9    8 1
     9   10    8 1
    10   11   10 ar
    11   12   11 ar
    12   13   12 ar
    13   14   13 ar
    14   15   14 ar
    15   16   15 1
    16   17   15 ar
    17   18   17 1
    18   19    1 ar
    19   20   19 1
    20   21    7 ar
    21   22   21 1
    22   23   14 ar
    23   24   23 1
    24   25   23 ar
    25   26   25 1
    26   27   12 ar
    27   28   27 ar
    28   29   28 ar
    29   30   29 1
    30   31   29 ar
    31   32   31 1
    32   33   31 ar
    33   34   33 1
    34   35   33 ar
    35   36   35 1
    36   37   10 ar
    37   38   17 ar
    38   39   38 1
    39   40   13 ar
    40   41   40 1
    41   42   11 1
    42   43    8 1
    43   44   43 ar
    44   45   44 1
    45   46   44 ar
    46   47   46 1
    47   48   46 ar
    48   49   48 1
    49   50   42 ar
    50   51   50 1
    51   52   53 1
    52   54   52 ar
    53   55   54 1
    54   56   54 ar
    55   57   56 1
    56   58   56 ar
    57   59   58 1
    58   60   59 1
    59   61   59 1
    60   62   61 ar
    61   63   62 ar
    62   64   63 ar
    63   65   64 ar
    64   66   65 1
    65   67   65 ar
    66   68   67 1
    67   69   67 ar
    68   70   69 1
    69   71   52 ar
    70   72   71 1
    71   73   58 ar
    72   74   73 1
    73   75   59 1
    74   76   62 1
    75   77   76 ar
    76   78   77 1
    77   79   77 ar
    78   80   79 1
    79   81   79 ar
    80   82   81 1
    81   83   75 ar
    82   84   83 1
    83   85   61 ar
    84   86   85 ar
    85   87   63 ar
    86   88   87 ar
    87   89   88 1
    88   90   88 ar
    89   91   90 1
    90   92   64 ar
    91   93   69 ar
    92   94   93 1
    93   95   86 ar
    94   96   95 1
    95   97   95 ar
    96   98   97 1
    97   99   97 ar
    98  100   99 1
    99  101   85 ar
   100  102  101 1
   101   19   21 ar
   102   25   27 ar
   103   28   37 ar
   104   35   37 ar
   105   38   40 ar
   106   42   43 ar
   107   48   50 ar
   108   71   73 ar
   109   75   76 ar
   110   81   83 ar
   111   86   87 ar
   112   90   92 ar
   113   92   93 ar
   114   99  101 ar
@<TRIPOS>SUBSTRUCTURE
     1 RES1 1
     2 RES2 52

@<TRIPOS>CRYSIN
  27.2810    5.8289   25.6150  90.0000  97.5600  90.0000  14 1

