# MOL2 file generated by ConQuest
# Please check atom types

@<TRIPOS>MOLECULE
SULNOE
    33    36     1
SMALL
NO_CHARGES
****
Generated from CSD

@<TRIPOS>ATOM
      1 C1         1.6187    8.7482   16.1608 C.ar      1 RES1    0.0000
      2 C2         0.5633    8.1841   16.7994 C.ar      1 RES1    0.0000
      3 H1         0.4182    8.3966   17.6932 H         1 RES1    0.0000
      4 C3        -0.3343    7.2782   16.1580 C.ar      1 RES1    0.0000
      5 C4        -1.4271    6.7426   16.9038 C.ar      1 RES1    0.0000
      6 H2        -1.5110    6.9540   17.8055 H         1 RES1    0.0000
      7 C5        -2.3422    5.9338   16.3247 C.ar      1 RES1    0.0000
      8 H3        -3.0941    5.6718   16.8043 H         1 RES1    0.0000
      9 C6        -2.1639    5.4797   14.9841 C.ar      1 RES1    0.0000
     10 C7        -3.0697    4.5578   14.4156 C.ar      1 RES1    0.0000
     11 H4        -3.8438    4.3361   14.8798 H         1 RES1    0.0000
     12 C8        -2.8349    3.9829   13.1971 C.ar      1 RES1    0.0000
     13 H5        -3.4570    3.4053   12.8176 H         1 RES1    0.0000
     14 C9        -1.6356    4.2819   12.5295 C.ar      1 RES1    0.0000
     15 H6        -1.4376    3.8510   11.7296 H         1 RES1    0.0000
     16 C10       -0.7531    5.1974   13.0386 C.ar      1 RES1    0.0000
     17 H7         0.0396    5.3639   12.5812 H         1 RES1    0.0000
     18 C11       -1.0170    5.8991   14.2469 C.ar      1 RES1    0.0000
     19 C12       -0.1643    6.9363   14.8011 C.ar      1 RES1    0.0000
     20 C13        0.8504    7.6664   14.0533 C.ar      1 RES1    0.0000
     21 C14        0.9256    7.6701   12.6383 C.ar      1 RES1    0.0000
     22 H8         0.2668    7.2310   12.1502 H         1 RES1    0.0000
     23 C15        1.9402    8.3025   11.9659 C.ar      1 RES1    0.0000
     24 H9         1.9705    8.2686   11.0368 H         1 RES1    0.0000
     25 C16        2.9281    8.9976   12.6675 C.ar      1 RES1    0.0000
     26 H10        3.6487    9.3737   12.2160 H         1 RES1    0.0000
     27 C17        2.8227    9.1181   14.0292 C.ar      1 RES1    0.0000
     28 H11        3.4564    9.6198   14.4892 H         1 RES1    0.0000
     29 C18        1.7783    8.5008   14.7515 C.ar      1 RES1    0.0000
     30 C19        2.5775    9.6493   16.8905 C.3       1 RES1    0.0000
     31 H12        2.3177    9.7126   17.8130 H         1 RES1    0.0000
     32 H13        2.5612   10.5224   16.4930 H         1 RES1    0.0000
     33 H14        3.4646    9.2880   16.8312 H         1 RES1    0.0000
@<TRIPOS>BOND
     1    1    2 ar
     2    2    3 1
     3    4    2 ar
     4    5    4 ar
     5    6    5 1
     6    7    5 ar
     7    8    7 1
     8    9    7 ar
     9   10    9 ar
    10   11   10 1
    11   12   10 ar
    12   13   12 1
    13   14   12 ar
    14   15   14 1
    15   16   14 ar
    16   17   16 1
    17   18    9 ar
    18   19    4 ar
    19   20   19 ar
    20   21   20 ar
    21   22   21 1
    22   23   21 ar
    23   24   23 1
    24   25   23 ar
    25   26   25 1
    26   27   25 ar
    27   28   27 1
    28   29    1 ar
    29   30    1 1
    30   31   30 1
    31   32   30 1
    32   33   30 1
    33   16   18 ar
    34   18   19 ar
    35   20   29 ar
    36   27   29 ar
@<TRIPOS>SUBSTRUCTURE
     1 RES1 1

@<TRIPOS>CRYSIN
   5.8248   14.0599   14.9651  90.0000  90.0000  90.0000  19 1

