# MOL2 file generated by ConQuest
# Please check atom types

@<TRIPOS>MOLECULE
SUQLAS01
    52    56     1
SMALL
NO_CHARGES
****
Generated from CSD

@<TRIPOS>ATOM
      1 C1         5.9246    3.7662   13.4570 C.ar      1 RES1    0.0000
      2 H1         6.1534    3.7179   12.5564 H         1 RES1    0.0000
      3 C2         6.6479    4.5684   14.2737 C.ar      1 RES1    0.0000
      4 H2         7.3392    5.0850   13.9281 H         1 RES1    0.0000
      5 C3         6.3536    4.6186   15.6330 C.ar      1 RES1    0.0000
      6 H3         6.8585    5.1531   16.2019 H         1 RES1    0.0000
      7 C4         5.3350    3.8892   16.1171 C.ar      1 RES1    0.0000
      8 H4         5.1367    3.9223   17.0254 H         1 RES1    0.0000
      9 C5         4.5798    3.0917   15.2831 C.ar      1 RES1    0.0000
     10 H5         3.8759    2.5969   15.6350 H         1 RES1    0.0000
     11 C6         4.8574    3.0150   13.9157 C.ar      1 RES1    0.0000
     12 C7         4.0388    2.1305   13.0600 C.2       1 RES1    0.0000
     13 H6         3.3167    1.7199   13.4792 H         1 RES1    0.0000
     14 C8         4.1918    1.8552   11.8205 C.2       1 RES1    0.0000
     15 H7         4.8807    2.2828   11.3647 H         1 RES1    0.0000
     16 C9         3.3510    0.9054   11.0631 C.ar      1 RES1    0.0000
     17 C10        2.3783    1.3907   10.1554 C.ar      1 RES1    0.0000
     18 C11        1.5111    0.4730    9.4483 C.ar      1 RES1    0.0000
     19 C12        0.5199    1.0321    8.5975 C.ar      1 RES1    0.0000
     20 H8        -0.0682    0.4579    8.1620 H         1 RES1    0.0000
     21 C13        0.3951    2.3717    8.3931 C.ar      1 RES1    0.0000
     22 H9        -0.2618    2.6981    7.8206 H         1 RES1    0.0000
     23 C14        1.2629    3.2572    9.0498 C.ar      1 RES1    0.0000
     24 H10        1.1843    4.1720    8.9027 H         1 RES1    0.0000
     25 C15        2.2142    2.7937    9.8951 C.ar      1 RES1    0.0000
     26 H11        2.7772    3.4010   10.3199 H         1 RES1    0.0000
     27 C1B       -0.9169   -3.7662    7.2324 C.ar      1 RES1    0.0000
     28 H1B       -1.1457   -3.7179    8.1330 H         1 RES1    0.0000
     29 C2B       -1.6402   -4.5684    6.4158 C.ar      1 RES1    0.0000
     30 H2B       -2.3315   -5.0850    6.7613 H         1 RES1    0.0000
     31 C3B       -1.3459   -4.6186    5.0565 C.ar      1 RES1    0.0000
     32 H3B       -1.8508   -5.1531    4.4875 H         1 RES1    0.0000
     33 C4B       -0.3273   -3.8892    4.5724 C.ar      1 RES1    0.0000
     34 H4B       -0.1289   -3.9223    3.6641 H         1 RES1    0.0000
     35 C5B        0.4279   -3.0917    5.4064 C.ar      1 RES1    0.0000
     36 H5B        1.1319   -2.5969    5.0544 H         1 RES1    0.0000
     37 C6B        0.1503   -3.0150    6.7737 C.ar      1 RES1    0.0000
     38 C7B        0.9689   -2.1305    7.6294 C.2       1 RES1    0.0000
     39 H6B        1.6910   -1.7199    7.2103 H         1 RES1    0.0000
     40 C8B        0.8159   -1.8552    8.8689 C.2       1 RES1    0.0000
     41 H7B        0.1270   -2.2828    9.3247 H         1 RES1    0.0000
     42 C9B        1.6568   -0.9054    9.6264 C.ar      1 RES1    0.0000
     43 C10B       2.6294   -1.3907   10.5340 C.ar      1 RES1    0.0000
     44 C11B       3.4966   -0.4730   11.2412 C.ar      1 RES1    0.0000
     45 C12B       4.4878   -1.0321   12.0920 C.ar      1 RES1    0.0000
     46 H8B        5.0759   -0.4579   12.5275 H         1 RES1    0.0000
     47 C13B       4.6126   -2.3717   12.2964 C.ar      1 RES1    0.0000
     48 H9B        5.2695   -2.6981   12.8688 H         1 RES1    0.0000
     49 C14B       3.7448   -3.2572   11.6397 C.ar      1 RES1    0.0000
     50 H10B       3.8235   -4.1720   11.7868 H         1 RES1    0.0000
     51 C15B       2.7935   -2.7937   10.7943 C.ar      1 RES1    0.0000
     52 H11B       2.2305   -3.4010   10.3696 H         1 RES1    0.0000
@<TRIPOS>BOND
     1    1    2 1
     2    3    1 ar
     3    4    3 1
     4    5    3 ar
     5    6    5 1
     6    7    5 ar
     7    8    7 1
     8    9    7 ar
     9   10    9 1
    10   11    1 ar
    11   12   11 1
    12   13   12 1
    13   14   12 2
    14   15   14 1
    15   16   14 1
    16   17   16 ar
    17   18   17 ar
    18   19   18 ar
    19   20   19 1
    20   21   19 ar
    21   22   21 1
    22   23   21 ar
    23   24   23 1
    24   25   17 ar
    25   26   25 1
    26   27   28 1
    27   29   27 ar
    28   30   29 1
    29   31   29 ar
    30   32   31 1
    31   33   31 ar
    32   34   33 1
    33   35   33 ar
    34   36   35 1
    35   37   27 ar
    36   38   37 1
    37   39   38 1
    38   40   38 2
    39   41   40 1
    40   42   18 ar
    41   43   42 ar
    42   44   16 ar
    43   45   44 ar
    44   46   45 1
    45   47   45 ar
    46   48   47 1
    47   49   47 ar
    48   50   49 1
    49   51   43 ar
    50   52   51 1
    51    9   11 ar
    52   23   25 ar
    53   35   37 ar
    54   40   42 1
    55   43   44 ar
    56   49   51 ar
@<TRIPOS>SUBSTRUCTURE
     1 RES1 1

@<TRIPOS>CRYSIN
   5.2605    9.4604   20.6910  90.0000  90.7000  90.0000 231 1

