# MOL2 file generated by ConQuest
# Please check atom types

@<TRIPOS>MOLECULE
SUQLAS
    52    56     1
SMALL
NO_CHARGES
****
Generated from CSD

@<TRIPOS>ATOM
      1 C1         3.6063    9.9377    0.8958 C.ar      1 RES1    0.0000
      2 C2         4.1593    7.3223    2.7284 C.2       1 RES1    0.0000
      3 H1         3.4324    7.7281    3.1430 H         1 RES1    0.0000
      4 C3         2.7481   10.8600    0.1918 C.ar      1 RES1    0.0000
      5 C4         3.4631    8.5548    0.7111 C.ar      1 RES1    0.0000
      6 C5         4.3180    7.6042    1.4720 C.2       1 RES1    0.0000
      7 H2         5.0123    7.1842    1.0180 H         1 RES1    0.0000
      8 C6         2.8999   12.2486    0.4431 C.ar      1 RES1    0.0000
      9 H3         2.3387   12.8521    0.0124 H         1 RES1    0.0000
     10 C7         4.6096   10.4864    1.7567 C.ar      1 RES1    0.0000
     11 H4         5.1932    9.9112    2.1956 H         1 RES1    0.0000
     12 C8         4.9741    6.4454    3.5896 C.ar      1 RES1    0.0000
     13 C9         3.8445   12.7178    1.2974 C.ar      1 RES1    0.0000
     14 H5         3.9102   13.6315    1.4575 H         1 RES1    0.0000
     15 C10        4.7301   11.8248    1.9474 C.ar      1 RES1    0.0000
     16 H6         5.3958   12.1559    2.5066 H         1 RES1    0.0000
     17 C11        4.6951    6.3679    4.9410 C.ar      1 RES1    0.0000
     18 H7         3.9858    6.8597    5.2868 H         1 RES1    0.0000
     19 C12        6.0384    5.6896    3.1070 C.ar      1 RES1    0.0000
     20 H8         6.2563    5.7237    2.2039 H         1 RES1    0.0000
     21 C13        6.7693    4.8951    3.9553 C.ar      1 RES1    0.0000
     22 H9         7.4706    4.3862    3.6178 H         1 RES1    0.0000
     23 C14        5.4397    5.5818    5.7866 C.ar      1 RES1    0.0000
     24 H10        5.2380    5.5515    6.6945 H         1 RES1    0.0000
     25 C15        6.4774    4.8450    5.2909 C.ar      1 RES1    0.0000
     26 H11        6.9834    4.3096    5.8590 H         1 RES1    0.0000
     27 C1B        1.6437    8.9805   -0.8958 C.ar      1 RES1    0.0000
     28 C2B        1.0907   11.5959   -2.7284 C.2       1 RES1    0.0000
     29 H1B        1.8176   11.1901   -3.1430 H         1 RES1    0.0000
     30 C3B        2.5019    8.0582   -0.1918 C.ar      1 RES1    0.0000
     31 C4B        1.7869   10.3634   -0.7111 C.ar      1 RES1    0.0000
     32 C5B        0.9320   11.3140   -1.4720 C.2       1 RES1    0.0000
     33 H2B        0.2377   11.7340   -1.0180 H         1 RES1    0.0000
     34 C6B        2.3501    6.6696   -0.4431 C.ar      1 RES1    0.0000
     35 H3B        2.9113    6.0661   -0.0124 H         1 RES1    0.0000
     36 C7B        0.6404    8.4318   -1.7567 C.ar      1 RES1    0.0000
     37 H4B        0.0568    9.0070   -2.1956 H         1 RES1    0.0000
     38 C8B        0.2759   12.4728   -3.5896 C.ar      1 RES1    0.0000
     39 C9B        1.4055    6.2004   -1.2974 C.ar      1 RES1    0.0000
     40 H5B        1.3398    5.2867   -1.4575 H         1 RES1    0.0000
     41 C10B       0.5199    7.0934   -1.9474 C.ar      1 RES1    0.0000
     42 H6B       -0.1458    6.7623   -2.5066 H         1 RES1    0.0000
     43 C11B       0.5549   12.5503   -4.9410 C.ar      1 RES1    0.0000
     44 H7B        1.2642   12.0585   -5.2868 H         1 RES1    0.0000
     45 C12B      -0.7884   13.2286   -3.1070 C.ar      1 RES1    0.0000
     46 H8B       -1.0063   13.1945   -2.2039 H         1 RES1    0.0000
     47 C13B      -1.5193   14.0231   -3.9553 C.ar      1 RES1    0.0000
     48 H9B       -2.2206   14.5320   -3.6178 H         1 RES1    0.0000
     49 C14B      -0.1897   13.3364   -5.7866 C.ar      1 RES1    0.0000
     50 H10B       0.0120   13.3667   -6.6945 H         1 RES1    0.0000
     51 C15B      -1.2274   14.0732   -5.2909 C.ar      1 RES1    0.0000
     52 H11B      -1.7334   14.6086   -5.8590 H         1 RES1    0.0000
@<TRIPOS>BOND
     1    1    4 ar
     2    2    3 1
     3    4    8 ar
     4    5    1 ar
     5    6    2 2
     6    7    6 1
     7    8    9 1
     8   10    1 ar
     9   11   10 1
    10   12    2 1
    11   13    8 ar
    12   14   13 1
    13   15   10 ar
    14   16   15 1
    15   17   12 ar
    16   18   17 1
    17   19   12 ar
    18   20   19 1
    19   21   19 ar
    20   22   21 1
    21   23   17 ar
    22   24   23 1
    23   25   21 ar
    24   26   25 1
    25   27   30 ar
    26   28   29 1
    27   30    5 ar
    28   31    4 ar
    29   32   28 2
    30   33   32 1
    31   34   30 ar
    32   35   34 1
    33   36   27 ar
    34   37   36 1
    35   38   28 1
    36   39   34 ar
    37   40   39 1
    38   41   36 ar
    39   42   41 1
    40   43   38 ar
    41   44   43 1
    42   45   38 ar
    43   46   45 1
    44   47   45 ar
    45   48   47 1
    46   49   43 ar
    47   50   49 1
    48   51   47 ar
    49   52   51 1
    50    5    6 1
    51   13   15 ar
    52   23   25 ar
    53   27   31 ar
    54   31   32 1
    55   39   41 ar
    56   49   51 ar
@<TRIPOS>SUBSTRUCTURE
     1 RES1 1

@<TRIPOS>CRYSIN
   5.2500    9.4591   20.7340  90.0000  90.7000  90.0000 231 1

