# MOL2 file generated by ConQuest
# Please check atom types

@<TRIPOS>MOLECULE
SURTAA
    36    42     1
SMALL
NO_CHARGES
****
Generated from CSD

@<TRIPOS>ATOM
      1 C1        -0.5997    3.9046    6.6397 C.ar      1 RES1    0.0000
      2 C2        -1.1283    4.1131    5.3883 C.ar      1 RES1    0.0000
      3 C3        -0.6917    3.3604    4.2512 C.ar      1 RES1    0.0000
      4 C4        -1.0877    3.3726    2.8695 C.ar      1 RES1    0.0000
      5 C5        -0.5397    2.5345    1.9433 C.ar      1 RES1    0.0000
      6 C6         0.4804    1.5665    2.2880 C.ar      1 RES1    0.0000
      7 C7         1.1505    0.6038    1.4983 C.ar      1 RES1    0.0000
      8 C8         2.0871   -0.2180    2.0906 C.ar      1 RES1    0.0000
      9 C9         2.4462   -0.1760    3.4524 C.ar      1 RES1    0.0000
     10 C10        1.8165    0.7311    4.2543 C.ar      1 RES1    0.0000
     11 C11        1.8173    1.1373    5.7044 C.ar      1 RES1    0.0000
     12 C12        2.4235    0.8069    6.8820 C.ar      1 RES1    0.0000
     13 C13        3.4188   -0.1543    7.3413 C.ar      1 RES1    0.0000
     14 C14        3.5938   -0.0135    8.6706 C.ar      1 RES1    0.0000
     15 C15        2.7242    1.0547    9.1737 C.ar      1 RES1    0.0000
     16 C16        2.4818    1.6111   10.4041 C.ar      1 RES1    0.0000
     17 C17        1.5316    2.6388   10.5079 C.ar      1 RES1    0.0000
     18 C18        0.8405    3.1058    9.4290 C.ar      1 RES1    0.0000
     19 C19        1.0661    2.5629    8.1362 C.ar      1 RES1    0.0000
     20 C20        0.4238    2.9217    6.8994 C.ar      1 RES1    0.0000
     21 C21        0.8410    2.2001    5.7947 C.ar      1 RES1    0.0000
     22 C22        0.2860    2.4357    4.5396 C.ar      1 RES1    0.0000
     23 C23        0.8603    1.5638    3.6162 C.ar      1 RES1    0.0000
     24 C24        2.0166    1.5475    8.0593 C.ar      1 RES1    0.0000
     25 H1        -0.8924    4.4543    7.4891 H         1 RES1    0.0000
     26 H2        -1.8389    4.9011    5.2187 H         1 RES1    0.0000
     27 H3        -1.7288    4.0346    2.5177 H         1 RES1    0.0000
     28 H4        -0.8529    2.5047    0.9695 H         1 RES1    0.0000
     29 H5         0.9586    0.5686    0.4903 H         1 RES1    0.0000
     30 H6         2.4956   -0.8936    1.5128 H         1 RES1    0.0000
     31 H7         3.1325   -0.7988    3.8804 H         1 RES1    0.0000
     32 H8         3.8442   -0.8123    6.7581 H         1 RES1    0.0000
     33 H9         4.1335   -0.5145    9.2095 H         1 RES1    0.0000
     34 H10        2.9622    1.2727   11.2899 H         1 RES1    0.0000
     35 H11        1.3457    3.0734   11.4313 H         1 RES1    0.0000
     36 H12        0.2041    3.8451    9.5010 H         1 RES1    0.0000
@<TRIPOS>BOND
     1    1    2 ar
     2    2    3 ar
     3    3    4 ar
     4    4    5 ar
     5    5    6 ar
     6    6    7 ar
     7    7    8 ar
     8    8    9 ar
     9    9   10 ar
    10   10   11 ar
    11   11   12 ar
    12   12   13 ar
    13   13   14 ar
    14   14   15 ar
    15   15   16 ar
    16   16   17 ar
    17   17   18 ar
    18   18   19 ar
    19   19   20 ar
    20   20    1 ar
    21   21   11 ar
    22   22    3 ar
    23   23    6 ar
    24   24   12 ar
    25   25    1 1
    26   26    2 1
    27   27    4 1
    28   28    5 1
    29   29    7 1
    30   30    8 1
    31   31    9 1
    32   32   13 1
    33   33   14 1
    34   34   16 1
    35   35   17 1
    36   36   18 1
    37   10   23 ar
    38   15   24 ar
    39   19   24 ar
    40   20   21 ar
    41   21   22 ar
    42   22   23 ar
@<TRIPOS>SUBSTRUCTURE
     1 RES1 1

@<TRIPOS>CRYSIN
   4.8014   13.5390   22.0910  90.0000  91.3170  90.0000  14 1

