# MOL2 file generated by ConQuest
# Please check atom types

@<TRIPOS>MOLECULE
SUYSOV
    60    62     1
SMALL
NO_CHARGES
****
Generated from CSD

@<TRIPOS>ATOM
      1 C1         2.2378   -0.0660    2.6801 C.ar      1 RES1    0.0000
      2 C2         1.1092    0.6556    2.9318 C.ar      1 RES1    0.0000
      3 H1         0.7404    0.6276    3.7965 H         1 RES1    0.0000
      4 C3         0.4706    1.4452    1.9460 C.ar      1 RES1    0.0000
      5 H2        -0.2915    1.9409    2.1853 H         1 RES1    0.0000
      6 C4         0.9204    1.5127    0.6600 C.ar      1 RES1    0.0000
      7 C5         2.0993    0.7452    0.3237 C.ar      1 RES1    0.0000
      8 C6         2.7722   -0.0124    1.3392 C.ar      1 RES1    0.0000
      9 C7         3.9329   -0.7146    0.9791 C.ar      1 RES1    0.0000
     10 H3         4.3904   -1.1900    1.6488 H         1 RES1    0.0000
     11 C8         2.9180   -0.8965    3.7574 C.3       1 RES1    0.0000
     12 H4         3.2716   -1.7120    3.3210 H         1 RES1    0.0000
     13 C9         4.1048   -0.1502    4.3464 C.3       1 RES1    0.0000
     14 H5         3.7916    0.6463    4.8024 H         1 RES1    0.0000
     15 H6         4.7137    0.1025    3.6354 H         1 RES1    0.0000
     16 H7         4.5660   -0.7240    4.9776 H         1 RES1    0.0000
     17 C10        1.9781   -1.3516    4.8712 C.3       1 RES1    0.0000
     18 H8         2.4339   -1.9937    5.4359 H         1 RES1    0.0000
     19 H9         1.1911   -1.7638    4.4817 H         1 RES1    0.0000
     20 H10        1.7114   -0.5852    5.4030 H         1 RES1    0.0000
     21 C11        0.2523    2.3844   -0.3883 C.3       1 RES1    0.0000
     22 H11        0.1579    1.8456   -1.2139 H         1 RES1    0.0000
     23 C12       -1.1398    2.8677    0.0142 C.3       1 RES1    0.0000
     24 H12       -1.6774    2.1097    0.2941 H         1 RES1    0.0000
     25 H13       -1.5623    3.3018   -0.7430 H         1 RES1    0.0000
     26 H14       -1.0640    3.4976    0.7477 H         1 RES1    0.0000
     27 C13        1.1206    3.6036   -0.7230 C.3       1 RES1    0.0000
     28 H15        0.7059    4.1086   -1.4391 H         1 RES1    0.0000
     29 H16        2.0001    3.3070   -1.0043 H         1 RES1    0.0000
     30 H17        1.2052    4.1656    0.0626 H         1 RES1    0.0000
     31 C1B        4.3082    0.0660   -2.6801 C.ar      1 RES1    0.0000
     32 C2B        5.4368   -0.6556   -2.9318 C.ar      1 RES1    0.0000
     33 H1B        5.8056   -0.6276   -3.7965 H         1 RES1    0.0000
     34 C3B        6.0754   -1.4452   -1.9460 C.ar      1 RES1    0.0000
     35 H2B        6.8375   -1.9409   -2.1853 H         1 RES1    0.0000
     36 C4B        5.6256   -1.5127   -0.6600 C.ar      1 RES1    0.0000
     37 C5B        4.4467   -0.7452   -0.3237 C.ar      1 RES1    0.0000
     38 C6B        3.7738    0.0124   -1.3392 C.ar      1 RES1    0.0000
     39 C7B        2.6131    0.7146   -0.9791 C.ar      1 RES1    0.0000
     40 H3B        2.1556    1.1900   -1.6488 H         1 RES1    0.0000
     41 C8B        3.6280    0.8965   -3.7574 C.3       1 RES1    0.0000
     42 H4B        3.2744    1.7120   -3.3210 H         1 RES1    0.0000
     43 C9B        2.4412    0.1502   -4.3464 C.3       1 RES1    0.0000
     44 H5B        2.7544   -0.6463   -4.8024 H         1 RES1    0.0000
     45 H6B        1.8323   -0.1025   -3.6354 H         1 RES1    0.0000
     46 H7B        1.9800    0.7240   -4.9776 H         1 RES1    0.0000
     47 C10B       4.5679    1.3516   -4.8712 C.3       1 RES1    0.0000
     48 H8B        4.1121    1.9937   -5.4359 H         1 RES1    0.0000
     49 H9B        5.3549    1.7638   -4.4817 H         1 RES1    0.0000
     50 H10B       4.8346    0.5852   -5.4030 H         1 RES1    0.0000
     51 C11B       6.2937   -2.3844    0.3883 C.3       1 RES1    0.0000
     52 H11B       6.3881   -1.8456    1.2139 H         1 RES1    0.0000
     53 C12B       7.6858   -2.8677   -0.0142 C.3       1 RES1    0.0000
     54 H12B       8.2234   -2.1097   -0.2941 H         1 RES1    0.0000
     55 H13B       8.1083   -3.3018    0.7430 H         1 RES1    0.0000
     56 H14B       7.6100   -3.4976   -0.7477 H         1 RES1    0.0000
     57 C13B       5.4254   -3.6036    0.7230 C.3       1 RES1    0.0000
     58 H15B       5.8401   -4.1086    1.4391 H         1 RES1    0.0000
     59 H16B       4.5459   -3.3070    1.0043 H         1 RES1    0.0000
     60 H17B       5.3408   -4.1656   -0.0626 H         1 RES1    0.0000
@<TRIPOS>BOND
     1    1    2 ar
     2    2    3 1
     3    4    2 ar
     4    5    4 1
     5    6    4 ar
     6    7    6 ar
     7    8    1 ar
     8    9    8 ar
     9   10    9 1
    10   11    1 1
    11   12   11 1
    12   13   11 1
    13   14   13 1
    14   15   13 1
    15   16   13 1
    16   17   11 1
    17   18   17 1
    18   19   17 1
    19   20   17 1
    20   21    6 1
    21   22   21 1
    22   23   21 1
    23   24   23 1
    24   25   23 1
    25   26   23 1
    26   27   21 1
    27   28   27 1
    28   29   27 1
    29   30   27 1
    30   31   32 ar
    31   32   33 1
    32   34   32 ar
    33   35   34 1
    34   36   34 ar
    35   37    9 ar
    36   38   31 ar
    37   39    7 ar
    38   40   39 1
    39   41   31 1
    40   42   41 1
    41   43   41 1
    42   44   43 1
    43   45   43 1
    44   46   43 1
    45   47   41 1
    46   48   47 1
    47   49   47 1
    48   50   47 1
    49   51   36 1
    50   52   51 1
    51   53   51 1
    52   54   53 1
    53   55   53 1
    54   56   53 1
    55   57   51 1
    56   58   57 1
    57   59   57 1
    58   60   57 1
    59    7    8 ar
    60   36   37 ar
    61   37   38 ar
    62   38   39 ar
@<TRIPOS>SUBSTRUCTURE
     1 RES1 1

@<TRIPOS>CRYSIN
   6.5460   10.3570   15.8080  90.0000  98.2890  90.0000  14 1

