# MOL2 file generated by ConQuest
# Please check atom types

@<TRIPOS>MOLECULE
TALXUZ
    80    89     1
SMALL
NO_CHARGES
****
Generated from CSD

@<TRIPOS>ATOM
      1 C1         2.4808   10.3217   12.6563 C.3       1 RES1    0.0000
      2 C2         2.1164   11.7491   13.0822 C.3       1 RES1    0.0000
      3 C3         0.5845   11.8652   12.9261 C.3       1 RES1    0.0000
      4 C4         0.0647   10.4251   12.8144 C.3       1 RES1    0.0000
      5 C5        -1.3188   10.3367   12.1650 C.3       1 RES1    0.0000
      6 C6        -1.7404    8.9252   11.7371 C.3       1 RES1    0.0000
      7 C7        -0.7694    8.1964   10.7574 C.3       1 RES1    0.0000
      8 C8        -0.1162    9.2482    9.9026 C.ar      1 RES1    0.0000
      9 C9        -0.5264    9.6893    8.6710 C.ar      1 RES1    0.0000
     10 C10        0.1466   10.7453    7.9961 C.ar      1 RES1    0.0000
     11 C11       -0.2850   11.1875    6.7276 C.ar      1 RES1    0.0000
     12 C12        0.3698   12.2702    6.1170 C.ar      1 RES1    0.0000
     13 C13        1.4427   12.8832    6.7437 C.ar      1 RES1    0.0000
     14 C14        1.8930   12.4551    7.9639 C.ar      1 RES1    0.0000
     15 C15        1.2539   11.3686    8.6256 C.ar      1 RES1    0.0000
     16 C16        1.6497   10.9235    9.9120 C.ar      1 RES1    0.0000
     17 C17        0.9851    9.9238   10.5718 C.ar      1 RES1    0.0000
     18 C18        1.2060    9.6553   12.0750 C.3       1 RES1    0.0000
     19 C19        1.1759    8.1344   12.4508 C.3       1 RES1    0.0000
     20 C20        0.3646    7.3911   11.4351 C.3       1 RES1    0.0000
     21 C21       -2.9466    6.5975   10.3503 C.3       1 RES1    0.0000
     22 C22       -3.4869    5.1759   10.1307 C.3       1 RES1    0.0000
     23 C23       -3.4091    4.2542   11.3821 C.3       1 RES1    0.0000
     24 C24       -3.2478    2.7466   11.1076 C.3       1 RES1    0.0000
     25 C25       -2.0878    2.2667   10.1903 C.3       1 RES1    0.0000
     26 C26       -0.6430    2.5411   10.6447 C.3       1 RES1    0.0000
     27 C27       -0.3432    4.0264   10.5832 C.2       1 RES1    0.0000
     28 C28       -0.3500    4.7041    9.2494 C.ar      1 RES1    0.0000
     29 C29        0.0856    4.0204    8.1343 C.ar      1 RES1    0.0000
     30 C30        0.0393    4.5898    6.8535 C.ar      1 RES1    0.0000
     31 C31        0.5003    3.9217    5.6825 C.ar      1 RES1    0.0000
     32 C32        0.3831    4.5064    4.4529 C.ar      1 RES1    0.0000
     33 C33       -0.1984    5.7931    4.3128 C.ar      1 RES1    0.0000
     34 C34       -0.6446    6.4587    5.4393 C.ar      1 RES1    0.0000
     35 C35       -0.5212    5.9057    6.7200 C.ar      1 RES1    0.0000
     36 C36       -0.9636    6.5729    7.8730 C.ar      1 RES1    0.0000
     37 C37       -0.8325    6.0413    9.1472 C.ar      1 RES1    0.0000
     38 C38       -1.4012    6.7321   10.3797 C.3       1 RES1    0.0000
     39 C39       -0.6342    6.2334   11.6538 C.3       1 RES1    0.0000
     40 C40       -0.2968    4.7657   11.6850 C.2       1 RES1    0.0000
     41 H1         2.8258    9.7593   13.5082 H         1 RES1    0.0000
     42 H2         3.2617   10.3486   11.9179 H         1 RES1    0.0000
     43 H3         2.6146   12.4639   12.4575 H         1 RES1    0.0000
     44 H4         2.4032   11.9169   14.1046 H         1 RES1    0.0000
     45 H5         0.3355   12.4320   12.0315 H         1 RES1    0.0000
     46 H6         0.1540   12.3559   13.7733 H         1 RES1    0.0000
     47 H7        -0.1086    9.9774   13.7733 H         1 RES1    0.0000
     48 H8        -1.3296   10.9723   11.2931 H         1 RES1    0.0000
     49 H9        -2.0444   10.7063   12.8645 H         1 RES1    0.0000
     50 H10       -2.7009    9.0000   11.2553 H         1 RES1    0.0000
     51 H11       -1.8426    8.3269   12.6279 H         1 RES1    0.0000
     52 H12       -1.3762    9.2220    8.1977 H         1 RES1    0.0000
     53 H13       -1.1081   10.6980    6.2287 H         1 RES1    0.0000
     54 H14        0.0286   12.6252    5.1591 H         1 RES1    0.0000
     55 H15        1.9302   13.7077    6.2666 H         1 RES1    0.0000
     56 H16        2.7304   12.9333    8.4249 H         1 RES1    0.0000
     57 H17        2.5025   11.3976   10.3844 H         1 RES1    0.0000
     58 H18        0.7334    8.0162   13.4325 H         1 RES1    0.0000
     59 H19        2.1732    7.7413   12.4669 H         1 RES1    0.0000
     60 H20        1.2934    7.0901   10.9808 H         1 RES1    0.0000
     61 H21       -3.3245    6.9526   11.2837 H         1 RES1    0.0000
     62 H22       -3.3204    7.2275    9.5514 H         1 RES1    0.0000
     63 H23       -2.9200    4.7146    9.3336 H         1 RES1    0.0000
     64 H24       -4.5166    5.2534    9.8259 H         1 RES1    0.0000
     65 H25       -4.3114    4.3918   11.9463 H         1 RES1    0.0000
     66 H26       -2.5737    4.5675   11.9842 H         1 RES1    0.0000
     67 H27       -4.1724    2.4017   10.6589 H         1 RES1    0.0000
     68 H28       -3.1224    2.2495   12.0599 H         1 RES1    0.0000
     69 H29       -2.2134    2.7324    9.2200 H         1 RES1    0.0000
     70 H30       -2.1878    1.1896   10.0720 H         1 RES1    0.0000
     71 H31        0.0466    2.0112   10.0057 H         1 RES1    0.0000
     72 H32       -0.5228    2.1818   11.6623 H         1 RES1    0.0000
     73 H33        0.4717    3.0143    8.2545 H         1 RES1    0.0000
     74 H34        0.9412    2.9338    5.7744 H         1 RES1    0.0000
     75 H35        0.7312    3.9879    3.5782 H         1 RES1    0.0000
     76 H36       -0.3015    6.2390    3.3416 H         1 RES1    0.0000
     77 H37       -1.0918    7.4381    5.3295 H         1 RES1    0.0000
     78 H38       -1.4275    7.5362    7.7623 H         1 RES1    0.0000
     79 H39       -1.0515    6.1474   12.6373 H         1 RES1    0.0000
     80 H40       -0.0155    4.3072   12.6184 H         1 RES1    0.0000
@<TRIPOS>BOND
     1    1    2 1
     2    2    3 1
     3    3    4 1
     4    4    5 1
     5    5    6 1
     6    6    7 1
     7    7    8 1
     8    8    9 ar
     9    9   10 ar
    10   10   11 ar
    11   11   12 ar
    12   12   13 ar
    13   13   14 ar
    14   14   15 ar
    15   15   10 ar
    16   16   15 ar
    17   17    8 ar
    18   18    1 1
    19   19   18 1
    20   20    7 1
    21   21   22 1
    22   22   23 1
    23   23   24 1
    24   24   25 1
    25   25   26 1
    26   26   27 1
    27   27   28 1
    28   28   29 ar
    29   29   30 ar
    30   30   31 ar
    31   31   32 ar
    32   32   33 ar
    33   33   34 ar
    34   34   35 ar
    35   35   30 ar
    36   36   35 ar
    37   37   28 ar
    38   38    7 1
    39   39   20 1
    40   40   27 2
    41   41    1 1
    42   42    1 1
    43   43    2 1
    44   44    2 1
    45   45    3 1
    46   46    3 1
    47   47    4 1
    48   48    5 1
    49   49    5 1
    50   50    6 1
    51   51    6 1
    52   52    9 1
    53   53   11 1
    54   54   12 1
    55   55   13 1
    56   56   14 1
    57   57   16 1
    58   58   19 1
    59   59   19 1
    60   60   20 1
    61   61   21 1
    62   62   21 1
    63   63   22 1
    64   64   22 1
    65   65   23 1
    66   66   23 1
    67   67   24 1
    68   68   24 1
    69   69   25 1
    70   70   25 1
    71   71   26 1
    72   72   26 1
    73   73   29 1
    74   74   31 1
    75   75   32 1
    76   76   33 1
    77   77   34 1
    78   78   36 1
    79   79   39 1
    80   80   40 1
    81    4   18 1
    82   16   17 ar
    83   17   18 1
    84   19   20 1
    85   21   38 1
    86   36   37 ar
    87   37   38 1
    88   38   39 1
    89   39   40 1
@<TRIPOS>SUBSTRUCTURE
     1 RES1 1

@<TRIPOS>CRYSIN
  11.7240   12.8880   11.5760 113.0000 119.3000  79.0100   2 1

