# MOL2 file generated by ConQuest
# Please check atom types

@<TRIPOS>MOLECULE
TALXIN
    80    88     1
SMALL
NO_CHARGES
****
Generated from CSD

@<TRIPOS>ATOM
      1 C1         0.3753    1.8287    9.2154 C.3       1 RES1    0.0000
      2 C2         1.0703    0.7352    8.3129 C.3       1 RES1    0.0000
      3 C3         0.1232    0.1157    7.2643 C.3       1 RES1    0.0000
      4 C4         0.1720    0.8116    5.8458 C.3       1 RES1    0.0000
      5 C5        -1.2360    1.0163    5.2026 C.3       1 RES1    0.0000
      6 C6        -1.6199    2.4427    4.7285 C.3       1 RES1    0.0000
      7 C7        -1.6459    3.5156    5.8241 C.3       1 RES1    0.0000
      8 C8        -0.2305    3.9864    6.1407 C.ar      1 RES1    0.0000
      9 C9         0.4673    4.7366    5.2382 C.ar      1 RES1    0.0000
     10 C10        1.7970    5.1774    5.4962 C.ar      1 RES1    0.0000
     11 C11        2.5599    5.9371    4.5797 C.ar      1 RES1    0.0000
     12 C12        3.8337    6.3645    4.8963 C.ar      1 RES1    0.0000
     13 C13        4.3889    6.0347    6.1495 C.ar      1 RES1    0.0000
     14 C14        3.7139    5.2774    7.0304 C.ar      1 RES1    0.0000
     15 C15        2.3848    4.8326    6.7495 C.ar      1 RES1    0.0000
     16 C16        1.6517    4.0525    7.6660 C.ar      1 RES1    0.0000
     17 C17        0.3597    3.6337    7.3952 C.ar      1 RES1    0.0000
     18 C18       -0.3864    2.7828    8.3371 C.2       1 RES1    0.0000
     19 C19       -1.7185    2.6859    8.2621 C.2       1 RES1    0.0000
     20 C20       -2.4954    3.0929    7.0533 C.3       1 RES1    0.0000
     21 H1         1.1188    2.3695    9.7747 H         1 RES1    0.0000
     22 H2        -0.3105    1.3540    9.9145 H         1 RES1    0.0000
     23 H3         1.4299   -0.0472    8.9612 H         1 RES1    0.0000
     24 H4         1.8974    1.1887    7.7918 H         1 RES1    0.0000
     25 H5        -0.8927    0.1811    7.6520 H         1 RES1    0.0000
     26 H6         0.3866   -0.9210    7.1435 H         1 RES1    0.0000
     27 H7         0.7586    0.2047    5.1861 H         1 RES1    0.0000
     28 H8         0.6519    1.7712    5.9487 H         1 RES1    0.0000
     29 H9        -1.9715    0.7085    5.9233 H         1 RES1    0.0000
     30 H10       -1.2938    0.3621    4.3344 H         1 RES1    0.0000
     31 H11       -2.5954    2.3931    4.2963 H         1 RES1    0.0000
     32 H12       -0.9250    2.7552    3.9785 H         1 RES1    0.0000
     33 H13        0.0048    4.9987    4.3090 H         1 RES1    0.0000
     34 H14        2.1340    6.1874    3.6226 H         1 RES1    0.0000
     35 H15        4.4024    6.9431    4.1819 H         1 RES1    0.0000
     36 H16        5.3680    6.3999    6.4063 H         1 RES1    0.0000
     37 H17        4.1766    5.0066    7.9698 H         1 RES1    0.0000
     38 H18        2.1153    3.7786    8.5926 H         1 RES1    0.0000
     39 H19       -2.2507    2.2908    9.1010 H         1 RES1    0.0000
     40 H20       -3.0348    2.1805    7.1308 H         1 RES1    0.0000
     41 C20B      -2.5860    4.7791    5.6576 C.3       1 RES1    0.0000
     42 C7B       -3.4356    4.3564    6.8868 C.3       1 RES1    0.0000
     43 C19B      -3.3629    5.1861    4.4488 C.2       1 RES1    0.0000
     44 H20B      -2.0467    5.6915    5.5801 H         1 RES1    0.0000
     45 C6B       -3.4616    5.4293    7.9825 C.3       1 RES1    0.0000
     46 C8B       -4.8510    3.8856    6.5703 C.ar      1 RES1    0.0000
     47 C18B      -4.6950    5.0892    4.3738 C.2       1 RES1    0.0000
     48 H19B      -2.8307    5.5812    3.6099 H         1 RES1    0.0000
     49 C5B       -3.8455    6.8557    7.5083 C.3       1 RES1    0.0000
     50 H11B      -2.4861    5.4789    8.4146 H         1 RES1    0.0000
     51 H12B      -4.1564    5.1168    8.7324 H         1 RES1    0.0000
     52 C9B       -5.5487    3.1354    7.4728 C.ar      1 RES1    0.0000
     53 C17B      -5.4411    4.2383    5.3157 C.ar      1 RES1    0.0000
     54 C1B       -5.4568    6.0433    3.4955 C.3       1 RES1    0.0000
     55 C4B       -5.2535    7.0604    6.8652 C.3       1 RES1    0.0000
     56 H9B       -3.1099    7.1635    6.7876 H         1 RES1    0.0000
     57 H10B      -3.7876    7.5099    8.3765 H         1 RES1    0.0000
     58 C10B      -6.8785    2.6946    7.2147 C.ar      1 RES1    0.0000
     59 H13B      -5.0862    2.8733    8.4019 H         1 RES1    0.0000
     60 C16B      -6.7332    3.8195    5.0450 C.ar      1 RES1    0.0000
     61 C2B       -6.1517    7.1368    4.3980 C.3       1 RES1    0.0000
     62 H1B       -6.2003    5.5025    2.9362 H         1 RES1    0.0000
     63 H2B       -4.7709    6.5180    2.7964 H         1 RES1    0.0000
     64 C3B       -5.2046    7.7563    5.4466 C.3       1 RES1    0.0000
     65 H7B       -5.8400    7.6673    7.5249 H         1 RES1    0.0000
     66 H8B       -5.7333    6.1008    6.7622 H         1 RES1    0.0000
     67 C11B      -7.6413    1.9349    8.1312 C.ar      1 RES1    0.0000
     68 C15B      -7.4663    3.0394    5.9614 C.ar      1 RES1    0.0000
     69 H18B      -7.1967    4.0934    4.1183 H         1 RES1    0.0000
     70 H3B       -6.5113    7.9192    3.7497 H         1 RES1    0.0000
     71 H4B       -6.9788    6.6833    4.9191 H         1 RES1    0.0000
     72 H5B       -4.1887    7.6909    5.0589 H         1 RES1    0.0000
     73 H6B       -5.4681    8.7930    5.5674 H         1 RES1    0.0000
     74 C12B      -8.9151    1.5075    7.8147 C.ar      1 RES1    0.0000
     75 H14B      -7.2155    1.6846    9.0883 H         1 RES1    0.0000
     76 C14B      -8.7954    2.5946    5.6805 C.ar      1 RES1    0.0000
     77 C13B      -9.4703    1.8373    6.5614 C.ar      1 RES1    0.0000
     78 H15B      -9.4839    0.9289    8.5290 H         1 RES1    0.0000
     79 H17B      -9.2581    2.8654    4.7412 H         1 RES1    0.0000
     80 H16B     -10.4494    1.4721    6.3046 H         1 RES1    0.0000
@<TRIPOS>BOND
     1    1    2 1
     2    2    3 1
     3    3    4 1
     4    4    5 1
     5    5    6 1
     6    6    7 1
     7    7    8 1
     8    8    9 ar
     9    9   10 ar
    10   10   11 ar
    11   11   12 ar
    12   12   13 ar
    13   13   14 ar
    14   14   15 ar
    15   15   10 ar
    16   16   15 ar
    17   17    8 ar
    18   18    1 1
    19   19   18 2
    20   20    7 1
    21   21    1 1
    22   22    1 1
    23   23    2 1
    24   24    2 1
    25   25    3 1
    26   26    3 1
    27   27    4 1
    28   28    4 1
    29   29    5 1
    30   30    5 1
    31   31    6 1
    32   32    6 1
    33   33    9 1
    34   34   11 1
    35   35   12 1
    36   36   13 1
    37   37   14 1
    38   38   16 1
    39   39   19 1
    40   40   20 1
    41   41    7 1
    42   42   20 1
    43   43   41 1
    44   44   41 1
    45   45   42 1
    46   46   42 1
    47   47   43 2
    48   48   43 1
    49   49   45 1
    50   50   45 1
    51   51   45 1
    52   52   46 ar
    53   53   46 ar
    54   54   47 1
    55   55   49 1
    56   56   49 1
    57   57   49 1
    58   58   52 ar
    59   59   52 1
    60   60   53 ar
    61   61   54 1
    62   62   54 1
    63   63   54 1
    64   64   55 1
    65   65   55 1
    66   66   55 1
    67   67   58 ar
    68   68   58 ar
    69   69   60 1
    70   70   61 1
    71   71   61 1
    72   72   64 1
    73   73   64 1
    74   74   67 ar
    75   75   67 1
    76   76   68 ar
    77   77   74 ar
    78   78   74 1
    79   79   76 1
    80   80   77 1
    81   16   17 ar
    82   17   18 1
    83   19   20 1
    84   41   42 1
    85   47   53 1
    86   60   68 ar
    87   61   64 1
    88   76   77 ar
@<TRIPOS>SUBSTRUCTURE
     1 RES1 1

@<TRIPOS>CRYSIN
  14.1590    7.8720   13.6890  90.0000 111.7900  90.0000 231 1

