# MOL2 file generated by ConQuest
# Please check atom types

@<TRIPOS>MOLECULE
TALXEJ
    80    88     1
SMALL
NO_CHARGES
****
Generated from CSD

@<TRIPOS>ATOM
      1 C1        12.6725   10.8918   12.5197 C.3       1 RES1    0.0000
      2 C2        14.1394   11.2837   12.9356 C.3       1 RES1    0.0000
      3 C3        14.8409   12.4169   12.0942 C.3       1 RES1    0.0000
      4 C4        15.7917   11.9029   10.9805 C.3       1 RES1    0.0000
      5 C5        15.8641   12.7265    9.6814 C.3       1 RES1    0.0000
      6 C6        15.3063   12.1471    8.3340 C.3       1 RES1    0.0000
      7 C7        13.9013   11.4712    8.4594 C.3       1 RES1    0.0000
      8 C8        14.0493   10.1136    9.0661 C.ar      1 RES1    0.0000
      9 C9        14.8246    9.1451    8.4969 C.ar      1 RES1    0.0000
     10 C10       14.8919    7.8216    8.9975 C.ar      1 RES1    0.0000
     11 C11       15.5890    6.8020    8.2868 C.ar      1 RES1    0.0000
     12 C12       15.5632    5.4842    8.7820 C.ar      1 RES1    0.0000
     13 C13       14.8678    5.2031    9.9922 C.ar      1 RES1    0.0000
     14 C14       14.2096    6.1687   10.6739 C.ar      1 RES1    0.0000
     15 C15       14.2060    7.5234   10.1959 C.ar      1 RES1    0.0000
     16 C16       13.4900    8.5402   10.8647 C.ar      1 RES1    0.0000
     17 C17       13.3898    9.8012   10.3170 C.ar      1 RES1    0.0000
     18 C18       12.6451   10.8747   10.9998 C.2       1 RES1    0.0000
     19 C19       12.2296   11.9739   10.3545 C.2       1 RES1    0.0000
     20 C20       12.9181   12.4766    9.1197 C.3       1 RES1    0.0000
     21 C21       13.5382   11.7410    5.7379 C.3       1 RES1    0.0000
     22 C22       12.6559   12.5589    4.7581 C.3       1 RES1    0.0000
     23 C23       11.3767   11.8631    4.2265 C.3       1 RES1    0.0000
     24 C24       10.0925   12.7634    4.2426 C.3       1 RES1    0.0000
     25 C25        8.8622   12.1471    4.8771 C.3       1 RES1    0.0000
     26 C26        8.7354   12.3942    6.4089 C.3       1 RES1    0.0000
     27 C27       10.0387   12.0733    7.1013 C.2       1 RES1    0.0000
     28 C28       10.5044   10.6703    7.1238 C.ar      1 RES1    0.0000
     29 C29        9.5998    9.6478    6.9802 C.ar      1 RES1    0.0000
     30 C30        9.9925    8.2988    6.8001 C.ar      1 RES1    0.0000
     31 C31        9.0314    7.2451    6.6254 C.ar      1 RES1    0.0000
     32 C32        9.4580    5.9869    6.3810 C.ar      1 RES1    0.0000
     33 C33       10.8353    5.6887    6.3381 C.ar      1 RES1    0.0000
     34 C34       11.7790    6.6771    6.5043 C.ar      1 RES1    0.0000
     35 C35       11.3674    8.0148    6.7176 C.ar      1 RES1    0.0000
     36 C36       12.2947    9.0855    6.8494 C.ar      1 RES1    0.0000
     37 C37       11.9136   10.3862    7.0809 C.ar      1 RES1    0.0000
     38 C38       12.9325   11.5251    7.1410 C.3       1 RES1    0.0000
     39 C39       12.3072   12.8089    7.7434 C.3       1 RES1    0.0000
     40 C40       10.8597   13.0673    7.4722 C.2       1 RES1    0.0000
     41 H1        11.9729   11.6160   12.9056 H         1 RES1    0.0000
     42 H2        12.4219    9.9119   12.9164 H         1 RES1    0.0000
     43 H3        14.7423   10.3948   12.8628 H         1 RES1    0.0000
     44 H4        14.1164   11.6160   13.9561 H         1 RES1    0.0000
     45 H5        15.4151   13.0361   12.7770 H         1 RES1    0.0000
     46 H6        14.0777   13.0361   11.6301 H         1 RES1    0.0000
     47 H7        15.4792   10.9060   10.7190 H         1 RES1    0.0000
     48 H8        16.7874   11.8716   11.3943 H         1 RES1    0.0000
     49 H9        16.9132   12.9509    9.5184 H         1 RES1    0.0000
     50 H10       15.3306   13.6609    9.8614 H         1 RES1    0.0000
     51 H11       16.0050   11.4172    7.9642 H         1 RES1    0.0000
     52 H12       15.2391   12.9509    7.6212 H         1 RES1    0.0000
     53 H13       15.4063    9.4007    7.6319 H         1 RES1    0.0000
     54 H14       16.1283    7.0434    7.3746 H         1 RES1    0.0000
     55 H15       16.0683    4.6862    8.2429 H         1 RES1    0.0000
     56 H16       14.8655    4.2033   10.3652 H         1 RES1    0.0000
     57 H17       13.6908    5.9074   11.5872 H         1 RES1    0.0000
     58 H18       13.0309    8.3215   11.8123 H         1 RES1    0.0000
     59 H19       11.3965   12.5248   10.7511 H         1 RES1    0.0000
     60 H20       13.1835   13.3485    9.6792 H         1 RES1    0.0000
     61 H21       13.7350   10.7640    5.2952 H         1 RES1    0.0000
     62 H22       14.4836   12.2692    5.8418 H         1 RES1    0.0000
     63 H23       13.2661   12.8089    3.9124 H         1 RES1    0.0000
     64 H24       12.3504   13.4621    5.2630 H         1 RES1    0.0000
     65 H25       11.1863   10.9912    4.8343 H         1 RES1    0.0000
     66 H26       11.5671   11.5592    3.2157 H         1 RES1    0.0000
     67 H27        9.8574   13.0077    3.2157 H         1 RES1    0.0000
     68 H28       10.3335   13.6609    4.7699 H         1 RES1    0.0000
     69 H29        8.8963   11.0764    4.7163 H         1 RES1    0.0000
     70 H30        7.9763   12.5532    4.3948 H         1 RES1    0.0000
     71 H31        7.9454   11.7864    6.7958 H         1 RES1    0.0000
     72 H32        8.4887   13.4337    6.5922 H         1 RES1    0.0000
     73 H33        8.5462    9.8835    7.0102 H         1 RES1    0.0000
     74 H34        7.9662    7.4695    6.6779 H         1 RES1    0.0000
     75 H35        8.7450    5.1974    6.2063 H         1 RES1    0.0000
     76 H36       11.1556    4.6862    6.1741 H         1 RES1    0.0000
     77 H37       12.8309    6.4470    6.4743 H         1 RES1    0.0000
     78 H38       13.3432    8.8611    6.7637 H         1 RES1    0.0000
     79 H39       12.5210   13.8029    7.3746 H         1 RES1    0.0000
     80 H40       10.4765   14.0585    7.5676 H         1 RES1    0.0000
@<TRIPOS>BOND
     1    1    2 1
     2    2    3 1
     3    3    4 1
     4    4    5 1
     5    5    6 1
     6    6    7 1
     7    7    8 1
     8    8    9 ar
     9    9   10 ar
    10   10   11 ar
    11   11   12 ar
    12   12   13 ar
    13   13   14 ar
    14   14   15 ar
    15   15   10 ar
    16   16   15 ar
    17   17    8 ar
    18   18    1 1
    19   19   18 2
    20   20    7 1
    21   21   22 1
    22   22   23 1
    23   23   24 1
    24   24   25 1
    25   25   26 1
    26   26   27 1
    27   27   28 1
    28   28   29 ar
    29   29   30 ar
    30   30   31 ar
    31   31   32 ar
    32   32   33 ar
    33   33   34 ar
    34   34   35 ar
    35   35   30 ar
    36   36   35 ar
    37   37   28 ar
    38   38    7 1
    39   39   20 1
    40   40   27 2
    41   41    1 1
    42   42    1 1
    43   43    2 1
    44   44    2 1
    45   45    3 1
    46   46    3 1
    47   47    4 1
    48   48    4 1
    49   49    5 1
    50   50    5 1
    51   51    6 1
    52   52    6 1
    53   53    9 1
    54   54   11 1
    55   55   12 1
    56   56   13 1
    57   57   14 1
    58   58   16 1
    59   59   19 1
    60   60   20 1
    61   61   21 1
    62   62   21 1
    63   63   22 1
    64   64   22 1
    65   65   23 1
    66   66   23 1
    67   67   24 1
    68   68   24 1
    69   69   25 1
    70   70   25 1
    71   71   26 1
    72   72   26 1
    73   73   29 1
    74   74   31 1
    75   75   32 1
    76   76   33 1
    77   77   34 1
    78   78   36 1
    79   79   39 1
    80   80   40 1
    81   16   17 ar
    82   17   18 1
    83   19   20 1
    84   21   38 1
    85   36   37 ar
    86   37   38 1
    87   38   39 1
    88   39   40 1
@<TRIPOS>SUBSTRUCTURE
     1 RES1 1

@<TRIPOS>CRYSIN
  18.7880   28.4010   10.8860  90.0000 100.0500  90.0000  15 1

