# MOL2 file generated by ConQuest
# Please check atom types

@<TRIPOS>MOLECULE
TAMSEF
    68    73     1
SMALL
NO_CHARGES
****
Generated from CSD

@<TRIPOS>ATOM
      1 C1        12.1076    2.7164    1.8641 C.3       1 RES1    0.0000
      2 C2        12.9902    1.4453    1.9389 C.3       1 RES1    0.0000
      3 C3        12.8328    0.6254    3.2318 C.3       1 RES1    0.0000
      4 C4        11.4333    0.0951    3.7399 C.3       1 RES1    0.0000
      5 C5        10.7264   -0.7016    2.6723 C.3       1 RES1    0.0000
      6 C6         9.1745   -0.6767    2.7083 C.3       1 RES1    0.0000
      7 C7         8.4494    0.5770    2.1407 C.3       1 RES1    0.0000
      8 C8         8.9328    0.9180    0.7469 C.ar      1 RES1    0.0000
      9 C9         8.2904    0.3749   -0.3748 C.ar      1 RES1    0.0000
     10 C10        8.7455    0.6691   -1.6533 C.ar      1 RES1    0.0000
     11 C11        9.8507    1.4758   -1.8109 C.ar      1 RES1    0.0000
     12 C12       10.5188    2.0074   -0.7010 C.ar      1 RES1    0.0000
     13 C13       10.0520    1.7365    0.6000 C.ar      1 RES1    0.0000
     14 C14       10.6303    2.3672    1.8046 C.2       1 RES1    0.0000
     15 C15        9.8380    2.5473    2.8588 C.2       1 RES1    0.0000
     16 C16        8.5282    1.8276    3.0678 C.3       1 RES1    0.0000
     17 C17        3.3484    4.2846    2.2452 C.3       1 RES1    0.0000
     18 C18        3.3231    3.6552    0.8136 C.3       1 RES1    0.0000
     19 C19        4.4968    4.1004   -0.1108 C.3       1 RES1    0.0000
     20 C20        5.7751    3.2359   -0.1108 C.3       1 RES1    0.0000
     21 C21        7.1283    3.9933   -0.1306 C.3       1 RES1    0.0000
     22 C22        7.8217    4.3817    1.2280 C.3       1 RES1    0.0000
     23 C23        7.0348    3.8407    2.4047 C.ar      1 RES1    0.0000
     24 C24        7.2301    2.6361    3.0741 C.ar      1 RES1    0.0000
     25 C25        6.1134    2.0865    3.7985 C.ar      1 RES1    0.0000
     26 C26        6.2202    0.9040    4.6147 C.ar      1 RES1    0.0000
     27 C27        5.1265    0.3215    5.1878 C.ar      1 RES1    0.0000
     28 C28        3.8436    0.8388    4.9832 C.ar      1 RES1    0.0000
     29 C29        3.6784    1.9750    4.1994 C.ar      1 RES1    0.0000
     30 C30        4.7933    2.6233    3.6309 C.ar      1 RES1    0.0000
     31 C31        4.6546    3.8522    2.9029 C.ar      1 RES1    0.0000
     32 C32        5.7655    4.4987    2.4966 C.ar      1 RES1    0.0000
     33 H1        12.3660    3.2837    0.9911 H         1 RES1    0.0000
     34 H2        12.2841    3.3266    2.7389 H         1 RES1    0.0000
     35 H3        14.0146    1.7481    1.8470 H         1 RES1    0.0000
     36 H4        12.7382    0.8066    1.0902 H         1 RES1    0.0000
     37 H5        13.2233    1.2462    4.0363 H         1 RES1    0.0000
     38 H6        13.4681   -0.2402    3.1173 H         1 RES1    0.0000
     39 H7        10.8138    0.9387    4.0273 H         1 RES1    0.0000
     40 H8        11.5759   -0.5354    4.6129 H         1 RES1    0.0000
     41 H9        11.0491   -1.7214    2.7570 H         1 RES1    0.0000
     42 H10       11.0495   -0.3145    1.7028 H         1 RES1    0.0000
     43 H11        8.8774   -0.7846    3.7390 H         1 RES1    0.0000
     44 H12        8.8263   -1.5217    2.1443 H         1 RES1    0.0000
     45 H13        7.4166    0.2982    2.0902 H         1 RES1    0.0000
     46 H14        7.4459   -0.2893   -0.2433 H         1 RES1    0.0000
     47 H15        8.2323    0.2611   -2.5137 H         1 RES1    0.0000
     48 H16       10.2087    1.7026   -2.7930 H         1 RES1    0.0000
     49 H17       11.3957    2.6165   -0.8379 H         1 RES1    0.0000
     50 H18       10.1529    3.2475    3.6039 H         1 RES1    0.0000
     51 H19        8.5746    1.5351    4.0994 H         1 RES1    0.0000
     52 H20        2.5015    3.9334    2.8110 H         1 RES1    0.0000
     53 H21        3.2954    5.3608    2.1803 H         1 RES1    0.0000
     54 H22        2.3935    3.9305    0.3424 H         1 RES1    0.0000
     55 H23        3.3458    2.5838    0.9190 H         1 RES1    0.0000
     56 H24        4.7856    5.0939    0.1802 H         1 RES1    0.0000
     57 H25        4.1213    4.1233   -1.1262 H         1 RES1    0.0000
     58 H26        5.7421    2.5935   -0.9821 H         1 RES1    0.0000
     59 H27        5.7509    2.6125    0.7748 H         1 RES1    0.0000
     60 H28        6.9799    4.9141   -0.6847 H         1 RES1    0.0000
     61 H29        7.8348    3.3684   -0.6757 H         1 RES1    0.0000
     62 H30        7.8810    5.4533    1.3064 H         1 RES1    0.0000
     63 H31        8.8216    3.9841    1.2433 H         1 RES1    0.0000
     64 H32        7.1984    0.4722    4.7841 H         1 RES1    0.0000
     65 H33        5.2564   -0.5527    5.8112 H         1 RES1    0.0000
     66 H34        2.9864    0.3565    5.4238 H         1 RES1    0.0000
     67 H35        2.6855    2.3704    4.0183 H         1 RES1    0.0000
     68 H36        5.6771    5.5317    2.2254 H         1 RES1    0.0000
@<TRIPOS>BOND
     1    1    2 1
     2    2    3 1
     3    3    4 1
     4    4    5 1
     5    5    6 1
     6    6    7 1
     7    7    8 1
     8    8    9 ar
     9    9   10 ar
    10   10   11 ar
    11   11   12 ar
    12   12   13 ar
    13   13    8 ar
    14   14    1 1
    15   15   14 2
    16   16    7 1
    17   17   18 1
    18   18   19 1
    19   19   20 1
    20   20   21 1
    21   21   22 1
    22   22   23 1
    23   23   24 ar
    24   24   16 1
    25   25   24 ar
    26   26   25 ar
    27   27   26 ar
    28   28   27 ar
    29   29   28 ar
    30   30   25 ar
    31   31   17 1
    32   32   23 ar
    33   33    1 1
    34   34    1 1
    35   35    2 1
    36   36    2 1
    37   37    3 1
    38   38    3 1
    39   39    4 1
    40   40    4 1
    41   41    5 1
    42   42    5 1
    43   43    6 1
    44   44    6 1
    45   45    7 1
    46   46    9 1
    47   47   10 1
    48   48   11 1
    49   49   12 1
    50   50   15 1
    51   51   16 1
    52   52   17 1
    53   53   17 1
    54   54   18 1
    55   55   18 1
    56   56   19 1
    57   57   19 1
    58   58   20 1
    59   59   20 1
    60   60   21 1
    61   61   21 1
    62   62   22 1
    63   63   22 1
    64   64   26 1
    65   65   27 1
    66   66   28 1
    67   67   29 1
    68   68   32 1
    69   13   14 1
    70   15   16 1
    71   29   30 ar
    72   30   31 ar
    73   31   32 ar
@<TRIPOS>SUBSTRUCTURE
     1 RES1 1

@<TRIPOS>CRYSIN
  12.7510   11.5510    9.5920 109.9500  96.8200  63.6700   2 1

