# MOL2 file generated by ConQuest
# Please check atom types

@<TRIPOS>MOLECULE
TAPREJ
    62    67     1
SMALL
NO_CHARGES
****
Generated from CSD

@<TRIPOS>ATOM
      1 C1         5.6061   13.3818    7.8668 C.ar      1 RES1    0.0000
      2 H1         5.5697   13.4392    6.9187 H         1 RES1    0.0000
      3 C2         5.0747   14.4005    8.6357 C.ar      1 RES1    0.0000
      4 H2         4.6711   15.1499    8.2147 H         1 RES1    0.0000
      5 C3         5.1301   14.3314   10.0101 C.ar      1 RES1    0.0000
      6 H3         4.7753   15.0384   10.5359 H         1 RES1    0.0000
      7 C4         5.6988   13.2397   10.6242 C.ar      1 RES1    0.0000
      8 H4         5.7310   13.1943   11.5724 H         1 RES1    0.0000
      9 C5         6.2270   12.2045    9.8685 C.ar      1 RES1    0.0000
     10 H5         6.6118   11.4497   10.2988 H         1 RES1    0.0000
     11 C6         6.1935   12.2726    8.4686 C.ar      1 RES1    0.0000
     12 C7         6.7504   11.2126    7.6713 C.1       1 RES1    0.0000
     13 C8         7.1766   10.3261    6.9811 C.1       1 RES1    0.0000
     14 C9         7.8218    9.3128    6.1902 C.ar      1 RES1    0.0000
     15 C10        9.2067    9.2317    6.2600 C.ar      1 RES1    0.0000
     16 H6         9.6764    9.8191    6.8402 H         1 RES1    0.0000
     17 C11        9.9284    8.3050    5.4945 C.ar      1 RES1    0.0000
     18 H7        10.8726    8.2551    5.5779 H         1 RES1    0.0000
     19 C12        9.2790    7.4795    4.6344 C.ar      1 RES1    0.0000
     20 H8         9.7762    6.8609    4.1138 H         1 RES1    0.0000
     21 C13        7.8644    7.5283    4.5035 C.ar      1 RES1    0.0000
     22 C14        7.2144    6.7037    3.5592 C.ar      1 RES1    0.0000
     23 H9         7.7292    6.1249    3.0100 H         1 RES1    0.0000
     24 C15        5.8594    6.7262    3.4240 C.ar      1 RES1    0.0000
     25 H10        5.4351    6.1807    2.7713 H         1 RES1    0.0000
     26 C16        5.0946    7.5551    4.2506 C.ar      1 RES1    0.0000
     27 H11        4.1485    7.5422    4.1682 H         1 RES1    0.0000
     28 C17        5.6763    8.3931    5.1837 C.ar      1 RES1    0.0000
     29 C18        7.1110    8.4269    5.3168 C.ar      1 RES1    0.0000
     30 C19        4.7789    9.1787    5.9749 C.1       1 RES1    0.0000
     31 C20        3.8900    9.7536    6.5535 C.1       1 RES1    0.0000
     32 C21        2.9592   10.4847    7.2441 C.1       1 RES1    0.0000
     33 C22        2.1290   11.1420    7.8190 C.1       1 RES1    0.0000
     34 C23        1.3826   12.0163    8.6741 C.ar      1 RES1    0.0000
     35 C24        2.1198   12.6609    9.6515 C.ar      1 RES1    0.0000
     36 H12        3.0544   12.5045    9.7013 H         1 RES1    0.0000
     37 C25        1.5293   13.5362   10.5679 C.ar      1 RES1    0.0000
     38 H13        2.0614   13.9787   11.2183 H         1 RES1    0.0000
     39 C26        0.1804   13.7492   10.5196 C.ar      1 RES1    0.0000
     40 H14       -0.2243   14.3255   11.1575 H         1 RES1    0.0000
     41 C27       -0.6215   13.1263    9.5369 C.ar      1 RES1    0.0000
     42 C28       -2.0089   13.4048    9.4938 C.ar      1 RES1    0.0000
     43 H15       -2.3934   13.9824   10.1418 H         1 RES1    0.0000
     44 C29       -2.7947   12.8512    8.5319 C.ar      1 RES1    0.0000
     45 H16       -3.7234   13.0525    8.5031 H         1 RES1    0.0000
     46 C30       -2.2354   11.9841    7.5845 C.ar      1 RES1    0.0000
     47 H17       -2.7987   11.6013    6.9219 H         1 RES1    0.0000
     48 C31       -0.8879   11.6684    7.5853 C.ar      1 RES1    0.0000
     49 C32       -0.0306   12.2436    8.5803 C.ar      1 RES1    0.0000
     50 C33       -0.4339   10.7876    6.5450 C.1       1 RES1    0.0000
     51 C34       -0.2046   10.0785    5.6031 C.1       1 RES1    0.0000
     52 C35        0.0735    9.2546    4.4585 C.ar      1 RES1    0.0000
     53 C36        1.0062    8.2203    4.5182 C.ar      1 RES1    0.0000
     54 H18        1.5041    8.0769    5.3136 H         1 RES1    0.0000
     55 C37        1.2085    7.3996    3.4169 C.ar      1 RES1    0.0000
     56 H19        1.8393    6.6923    3.4666 H         1 RES1    0.0000
     57 C38        0.4960    7.6048    2.2461 C.ar      1 RES1    0.0000
     58 H20        0.6309    7.0342    1.4978 H         1 RES1    0.0000
     59 C39       -0.4141    8.6454    2.1721 C.ar      1 RES1    0.0000
     60 H21       -0.8974    8.7958    1.3680 H         1 RES1    0.0000
     61 C40       -0.6232    9.4636    3.2620 C.ar      1 RES1    0.0000
     62 H22       -1.2465   10.1779    3.2007 H         1 RES1    0.0000
@<TRIPOS>BOND
     1    1    2 1
     2    3    1 ar
     3    4    3 1
     4    5    3 ar
     5    6    5 1
     6    7    5 ar
     7    8    7 1
     8    9    7 ar
     9   10    9 1
    10   11    1 ar
    11   12   11 1
    12   13   12 3
    13   14   13 1
    14   15   14 ar
    15   16   15 1
    16   17   15 ar
    17   18   17 1
    18   19   17 ar
    19   20   19 1
    20   21   19 ar
    21   22   21 ar
    22   23   22 1
    23   24   22 ar
    24   25   24 1
    25   26   24 ar
    26   27   26 1
    27   28   26 ar
    28   29   14 ar
    29   30   28 1
    30   31   30 3
    31   32   31 1
    32   33   32 3
    33   34   33 1
    34   35   34 ar
    35   36   35 1
    36   37   35 ar
    37   38   37 1
    38   39   37 ar
    39   40   39 1
    40   41   39 ar
    41   42   41 ar
    42   43   42 1
    43   44   42 ar
    44   45   44 1
    45   46   44 ar
    46   47   46 1
    47   48   46 ar
    48   49   34 ar
    49   50   48 1
    50   51   50 3
    51   52   51 1
    52   53   52 ar
    53   54   53 1
    54   55   53 ar
    55   56   55 1
    56   57   55 ar
    57   58   57 1
    58   59   57 ar
    59   60   59 1
    60   61   52 ar
    61   62   61 1
    62    9   11 ar
    63   21   29 ar
    64   28   29 ar
    65   41   49 ar
    66   48   49 ar
    67   59   61 ar
@<TRIPOS>SUBSTRUCTURE
     1 RES1 1

@<TRIPOS>CRYSIN
  27.2530   12.1238   18.2854  90.0000 118.8280  90.0000  15 1

