# MOL2 file generated by ConQuest
# Please check atom types

@<TRIPOS>MOLECULE
TAPRAF
    78    88     1
SMALL
NO_CHARGES
****
Generated from CSD

@<TRIPOS>ATOM
      1 C1         8.5406   -0.7161   10.7127 C.ar      1 RES1    0.0000
      2 H1         9.0378   -0.0872   11.2232 H         1 RES1    0.0000
      3 C2         9.2083   -1.6507    9.9400 C.ar      1 RES1    0.0000
      4 H2        10.1584   -1.6590    9.9245 H         1 RES1    0.0000
      5 C3         8.4995   -2.5717    9.1906 C.ar      1 RES1    0.0000
      6 H3         8.9601   -3.2242    8.6758 H         1 RES1    0.0000
      7 C4         7.1174   -2.5364    9.1941 C.ar      1 RES1    0.0000
      8 H4         6.6281   -3.1545    8.6636 H         1 RES1    0.0000
      9 C5         6.4428   -1.6077    9.9643 C.ar      1 RES1    0.0000
     10 H5         5.4925   -1.5958    9.9610 H         1 RES1    0.0000
     11 C6         7.1462   -0.6854   10.7490 C.ar      1 RES1    0.0000
     12 C7         6.4413    0.2173   11.6663 C.2       1 RES1    0.0000
     13 H6         6.8209    0.3052   12.5328 H         1 RES1    0.0000
     14 C8         5.3257    0.9361   11.4379 C.2       1 RES1    0.0000
     15 C9         4.7072    1.3237   10.1230 C.ar      1 RES1    0.0000
     16 C10        4.8267    0.9498    8.7930 C.ar      1 RES1    0.0000
     17 H7         5.3705    0.2115    8.5432 H         1 RES1    0.0000
     18 C11        4.1217    1.6895    7.8174 C.ar      1 RES1    0.0000
     19 H8         4.2147    1.4344    6.9076 H         1 RES1    0.0000
     20 C12        3.3032    2.7649    8.1146 C.ar      1 RES1    0.0000
     21 H9         2.8513    3.2286    7.4190 H         1 RES1    0.0000
     22 C13        3.1440    3.1688    9.4579 C.ar      1 RES1    0.0000
     23 C14        3.8624    2.4181   10.3935 C.ar      1 RES1    0.0000
     24 C15        3.8322    2.6973   11.7702 C.ar      1 RES1    0.0000
     25 C16        3.0439    3.7156   12.2974 C.ar      1 RES1    0.0000
     26 C17        2.2881    4.4864   11.3471 C.ar      1 RES1    0.0000
     27 H10        1.7363    5.1928   11.6629 H         1 RES1    0.0000
     28 C18        2.3380    4.2360   10.0000 C.ar      1 RES1    0.0000
     29 H11        1.8297    4.7786    9.4091 H         1 RES1    0.0000
     30 C19        4.6581    1.7939   12.4693 C.ar      1 RES1    0.0000
     31 C20        4.6469    1.9023   13.8509 C.ar      1 RES1    0.0000
     32 C21        3.9001    3.0053   14.4385 C.ar      1 RES1    0.0000
     33 C22        3.1051    3.8808   13.7126 C.ar      1 RES1    0.0000
     34 C23        4.1709    2.9977   15.8942 C.ar      1 RES1    0.0000
     35 C24        3.8412    3.8159   16.9470 C.ar      1 RES1    0.0000
     36 H12        3.3368    4.6085   16.8024 H         1 RES1    0.0000
     37 C25        4.2657    3.4590   18.2538 C.ar      1 RES1    0.0000
     38 H13        4.0453    4.0308   18.9804 H         1 RES1    0.0000
     39 C26        4.9842    2.3149   18.5017 C.ar      1 RES1    0.0000
     40 H14        5.2373    2.0993   19.3917 H         1 RES1    0.0000
     41 C27        5.3489    1.4545   17.4373 C.ar      1 RES1    0.0000
     42 C28        4.9562    1.8515   16.1504 C.ar      1 RES1    0.0000
     43 C29        5.2521    1.1299   14.9637 C.ar      1 RES1    0.0000
     44 C30        5.9272   -0.0645   15.0933 C.ar      1 RES1    0.0000
     45 H15        6.1308   -0.5886   14.3267 H         1 RES1    0.0000
     46 C31        6.3151   -0.5036   16.3869 C.ar      1 RES1    0.0000
     47 H16        6.7729   -1.3320   16.4696 H         1 RES1    0.0000
     48 C32        6.0546    0.2221   17.5211 C.ar      1 RES1    0.0000
     49 H17        6.3465   -0.1003   18.3663 H         1 RES1    0.0000
     50 C33        2.2357    4.9152   14.3541 C.ar      1 RES1    0.0000
     51 C34        0.9663    4.5133   14.7147 C.ar      1 RES1    0.0000
     52 H18        0.7242    3.6014   14.6080 H         1 RES1    0.0000
     53 C35        0.0220    5.4105   15.2329 C.ar      1 RES1    0.0000
     54 H19       -0.8459    5.1056   15.4698 H         1 RES1    0.0000
     55 C36        0.3556    6.7196   15.3946 C.ar      1 RES1    0.0000
     56 H20       -0.2874    7.3270   15.7431 H         1 RES1    0.0000
     57 C37        1.6472    7.1914   15.0514 C.ar      1 RES1    0.0000
     58 C38        2.6196    6.2749   14.5258 C.ar      1 RES1    0.0000
     59 C39        1.9803    8.5515   15.2465 C.ar      1 RES1    0.0000
     60 H21        1.3296    9.1473   15.5983 H         1 RES1    0.0000
     61 C40        3.2251    9.0193   14.9362 C.ar      1 RES1    0.0000
     62 H22        3.4335    9.9386   15.0599 H         1 RES1    0.0000
     63 C41        4.1963    8.1395   14.4345 C.ar      1 RES1    0.0000
     64 H23        5.0626    8.4737   14.2320 H         1 RES1    0.0000
     65 C42        3.9280    6.8012   14.2260 C.ar      1 RES1    0.0000
     66 C43        5.0105    5.9721   13.7556 C.1       1 RES1    0.0000
     67 C44        5.9837    5.3654   13.4048 C.1       1 RES1    0.0000
     68 C45        7.1331    4.5555   13.0946 C.ar      1 RES1    0.0000
     69 C46        7.5918    3.6208   14.0261 C.ar      1 RES1    0.0000
     70 H24        7.1490    3.5294   14.8624 H         1 RES1    0.0000
     71 C47        8.6862    2.8264   13.7383 C.ar      1 RES1    0.0000
     72 H25        8.9821    2.1822   14.3699 H         1 RES1    0.0000
     73 C48        9.3536    2.9659   12.5322 C.ar      1 RES1    0.0000
     74 H26       10.1165    2.4307   12.3461 H         1 RES1    0.0000
     75 C49        8.9093    3.8806   11.6028 C.ar      1 RES1    0.0000
     76 H27        9.3620    3.9720   10.7727 H         1 RES1    0.0000
     77 C50        7.8035    4.6687   11.8768 C.ar      1 RES1    0.0000
     78 H28        7.4985    5.2930   11.2286 H         1 RES1    0.0000
@<TRIPOS>BOND
     1    1    2 1
     2    3    1 ar
     3    4    3 1
     4    5    3 ar
     5    6    5 1
     6    7    5 ar
     7    8    7 1
     8    9    7 ar
     9   10    9 1
    10   11    1 ar
    11   12   11 1
    12   13   12 1
    13   14   12 2
    14   15   14 1
    15   16   15 ar
    16   17   16 1
    17   18   16 ar
    18   19   18 1
    19   20   18 ar
    20   21   20 1
    21   22   20 ar
    22   23   15 ar
    23   24   23 ar
    24   25   24 ar
    25   26   25 ar
    26   27   26 1
    27   28   22 ar
    28   29   28 1
    29   30   14 1
    30   31   30 ar
    31   32   31 ar
    32   33   25 ar
    33   34   32 1
    34   35   34 ar
    35   36   35 1
    36   37   35 ar
    37   38   37 1
    38   39   37 ar
    39   40   39 1
    40   41   39 ar
    41   42   34 ar
    42   43   31 1
    43   44   43 ar
    44   45   44 1
    45   46   44 ar
    46   47   46 1
    47   48   41 ar
    48   49   48 1
    49   50   33 1
    50   51   50 ar
    51   52   51 1
    52   53   51 ar
    53   54   53 1
    54   55   53 ar
    55   56   55 1
    56   57   55 ar
    57   58   50 ar
    58   59   57 ar
    59   60   59 1
    60   61   59 ar
    61   62   61 1
    62   63   61 ar
    63   64   63 1
    64   65   58 ar
    65   66   65 1
    66   67   66 3
    67   68   67 1
    68   69   68 ar
    69   70   69 1
    70   71   69 ar
    71   72   71 1
    72   73   71 ar
    73   74   73 1
    74   75   73 ar
    75   76   75 1
    76   77   68 ar
    77   78   77 1
    78    9   11 ar
    79   22   23 ar
    80   24   30 ar
    81   26   28 ar
    82   32   33 ar
    83   41   42 ar
    84   42   43 ar
    85   46   48 ar
    86   57   58 ar
    87   63   65 ar
    88   75   77 ar
@<TRIPOS>SUBSTRUCTURE
     1 RES1 1

@<TRIPOS>CRYSIN
  10.8735   21.8000   13.6272  90.0000  96.9010  90.0000 231 1

