# MOL2 file generated by ConQuest
# Please check atom types

@<TRIPOS>MOLECULE
TAPRUZ
    96   107     1
SMALL
NO_CHARGES
****
Generated from CSD

@<TRIPOS>ATOM
      1 C1         1.6205    2.4743    6.0663 C.ar      1 RES1    0.0000
      2 H1         1.1599    3.1499    6.5497 H         1 RES1    0.0000
      3 C2         1.3886    1.1446    6.3530 C.ar      1 RES1    0.0000
      4 H2         0.7726    0.9078    7.0363 H         1 RES1    0.0000
      5 C3         2.0477    0.1578    5.6498 C.ar      1 RES1    0.0000
      6 H3         1.8840   -0.7574    5.8488 H         1 RES1    0.0000
      7 C4         2.9492    0.4998    4.6527 C.ar      1 RES1    0.0000
      8 H4         3.3979   -0.1805    4.1665 H         1 RES1    0.0000
      9 C5         3.1937    1.8265    4.3665 C.ar      1 RES1    0.0000
     10 H5         3.8182    2.0562    3.6868 H         1 RES1    0.0000
     11 C6         2.5324    2.8333    5.0664 C.ar      1 RES1    0.0000
     12 C7         2.7608    4.2215    4.7554 C.1       1 RES1    0.0000
     13 C8         2.8676    5.3797    4.4826 C.1       1 RES1    0.0000
     14 C9         3.2019    6.7614    4.2160 C.ar      1 RES1    0.0000
     15 C10        4.5010    7.1305    4.4830 C.ar      1 RES1    0.0000
     16 H6         5.1125    6.4748    4.7968 H         1 RES1    0.0000
     17 C11        4.9474    8.4463    4.3044 C.ar      1 RES1    0.0000
     18 H7         5.8476    8.6759    4.5024 H         1 RES1    0.0000
     19 C12        4.0929    9.3896    3.8498 C.ar      1 RES1    0.0000
     20 H8         4.4020   10.2810    3.7338 H         1 RES1    0.0000
     21 C13        2.7540    9.0781    3.5445 C.ar      1 RES1    0.0000
     22 C14        2.2768    7.7394    3.7272 C.ar      1 RES1    0.0000
     23 C15        0.9109    7.4712    3.4019 C.ar      1 RES1    0.0000
     24 C16        0.1106    8.4889    2.9109 C.ar      1 RES1    0.0000
     25 H9        -0.7943    8.2986    2.6929 H         1 RES1    0.0000
     26 C17        0.5974    9.7932    2.7247 C.ar      1 RES1    0.0000
     27 H10        0.0293   10.4696    2.3791 H         1 RES1    0.0000
     28 C18        1.8832   10.0795    3.0409 C.ar      1 RES1    0.0000
     29 H11        2.2075   10.9645    2.9237 H         1 RES1    0.0000
     30 C19        0.2985    6.1806    3.5750 C.1       1 RES1    0.0000
     31 C20       -0.3777    5.2105    3.7372 C.1       1 RES1    0.0000
     32 C21       -1.0447    3.9453    3.9171 C.ar      1 RES1    0.0000
     33 C22       -0.5176    2.8770    3.2122 C.ar      1 RES1    0.0000
     34 C23        0.5988    2.7986    2.2316 C.ar      1 RES1    0.0000
     35 C24        1.4376    3.6990    1.6149 C.ar      1 RES1    0.0000
     36 H12        1.3765    4.6264    1.8081 H         1 RES1    0.0000
     37 C25        2.3953    3.2172    0.6868 C.ar      1 RES1    0.0000
     38 H13        2.9774    3.8390    0.2668 H         1 RES1    0.0000
     39 C26        2.5162    1.8839    0.3696 C.ar      1 RES1    0.0000
     40 H14        3.1749    1.5996   -0.2530 H         1 RES1    0.0000
     41 C27        1.6558    0.9327    0.9751 C.ar      1 RES1    0.0000
     42 C28        1.6010   -0.4615    0.7168 C.ar      1 RES1    0.0000
     43 H15        2.2214   -0.8586    0.1161 H         1 RES1    0.0000
     44 C29        0.6522   -1.2375    1.3333 C.ar      1 RES1    0.0000
     45 H16        0.6316   -2.1683    1.1474 H         1 RES1    0.0000
     46 C30       -0.3033   -0.6959    2.2418 C.ar      1 RES1    0.0000
     47 H17       -0.9625   -1.2523    2.6403 H         1 RES1    0.0000
     48 C31       -0.2514    0.6368    2.5266 C.ar      1 RES1    0.0000
     49 C32        0.7213    1.4402    1.8851 C.ar      1 RES1    0.0000
     50 C33       -1.0529    1.5580    3.3618 C.ar      1 RES1    0.0000
     51 C34       -2.1526    1.3393    4.1437 C.ar      1 RES1    0.0000
     52 C35       -2.7382    2.4417    4.8422 C.ar      1 RES1    0.0000
     53 C36       -2.1763    3.7536    4.7771 C.ar      1 RES1    0.0000
     54 C37       -2.7963    4.8124    5.5770 C.ar      1 RES1    0.0000
     55 C38       -3.9691    4.5176    6.3407 C.ar      1 RES1    0.0000
     56 C39       -4.5388    3.2166    6.2891 C.ar      1 RES1    0.0000
     57 H18       -5.3512    3.0433    6.7487 H         1 RES1    0.0000
     58 C40       -3.9409    2.2241    5.5956 C.ar      1 RES1    0.0000
     59 H19       -4.3275    1.3562    5.6069 H         1 RES1    0.0000
     60 C41       -2.3121    6.1295    5.6655 C.ar      1 RES1    0.0000
     61 H20       -1.5500    6.3764    5.1535 H         1 RES1    0.0000
     62 C42       -2.9114    7.0764    6.4760 C.ar      1 RES1    0.0000
     63 H21       -2.5538    7.9568    6.5124 H         1 RES1    0.0000
     64 C43       -4.0273    6.7611    7.2349 C.ar      1 RES1    0.0000
     65 H22       -4.4180    7.4100    7.8090 H         1 RES1    0.0000
     66 C44       -4.5593    5.5033    7.1455 C.ar      1 RES1    0.0000
     67 H23       -5.3445    5.2936    7.6390 H         1 RES1    0.0000
     68 C45       -2.7020   -0.0487    4.3007 C.ar      1 RES1    0.0000
     69 C46       -2.1208   -0.8476    5.2648 C.ar      1 RES1    0.0000
     70 H24       -1.4387   -0.4812    5.8143 H         1 RES1    0.0000
     71 C47       -2.5021   -2.1809    5.4601 C.ar      1 RES1    0.0000
     72 H25       -2.0934   -2.7015    6.1419 H         1 RES1    0.0000
     73 C48       -3.4652   -2.7269    4.6639 C.ar      1 RES1    0.0000
     74 H26       -3.7196   -3.6339    4.7927 H         1 RES1    0.0000
     75 C49       -4.0945   -1.9662    3.6478 C.ar      1 RES1    0.0000
     76 C50       -3.7346   -0.5906    3.4651 C.ar      1 RES1    0.0000
     77 C51       -5.0762   -2.5544    2.8158 C.ar      1 RES1    0.0000
     78 H27       -5.2702   -3.4808    2.9085 H         1 RES1    0.0000
     79 C52       -5.7464   -1.8254    1.8862 C.ar      1 RES1    0.0000
     80 H28       -6.4182   -2.2339    1.3520 H         1 RES1    0.0000
     81 C53       -5.4413   -0.4747    1.7223 C.ar      1 RES1    0.0000
     82 H29       -5.9369    0.0328    1.0907 H         1 RES1    0.0000
     83 C54       -4.4440    0.1498    2.4467 C.ar      1 RES1    0.0000
     84 C55       -4.1486    1.5219    2.1291 C.1       1 RES1    0.0000
     85 C56       -3.9307    2.6495    1.7938 C.1       1 RES1    0.0000
     86 C57       -3.5511    3.9981    1.4704 C.ar      1 RES1    0.0000
     87 C58       -4.1522    5.0817    2.1067 C.ar      1 RES1    0.0000
     88 H30       -4.8489    4.9354    2.7357 H         1 RES1    0.0000
     89 C59       -3.7330    6.3747    1.8220 C.ar      1 RES1    0.0000
     90 H31       -4.1364    7.1119    2.2657 H         1 RES1    0.0000
     91 C60       -2.7332    6.5940    0.8985 C.ar      1 RES1    0.0000
     92 H32       -2.4631    7.4810    0.6912 H         1 RES1    0.0000
     93 C61       -2.1299    5.5320    0.2801 C.ar      1 RES1    0.0000
     94 H33       -1.4280    5.6846   -0.3414 H         1 RES1    0.0000
     95 C62       -2.5383    4.2387    0.5571 C.ar      1 RES1    0.0000
     96 H34       -2.1188    3.5081    0.1161 H         1 RES1    0.0000
@<TRIPOS>BOND
     1    1    2 1
     2    3    1 ar
     3    4    3 1
     4    5    3 ar
     5    6    5 1
     6    7    5 ar
     7    8    7 1
     8    9    7 ar
     9   10    9 1
    10   11    1 ar
    11   12   11 1
    12   13   12 3
    13   14   13 1
    14   15   14 ar
    15   16   15 1
    16   17   15 ar
    17   18   17 1
    18   19   17 ar
    19   20   19 1
    20   21   19 ar
    21   22   14 ar
    22   23   22 ar
    23   24   23 ar
    24   25   24 1
    25   26   24 ar
    26   27   26 1
    27   28   21 ar
    28   29   28 1
    29   30   23 1
    30   31   30 3
    31   32   31 1
    32   33   32 ar
    33   34   33 1
    34   35   34 ar
    35   36   35 1
    36   37   35 ar
    37   38   37 1
    38   39   37 ar
    39   40   39 1
    40   41   39 ar
    41   42   41 ar
    42   43   42 1
    43   44   42 ar
    44   45   44 1
    45   46   44 ar
    46   47   46 1
    47   48   46 ar
    48   49   34 ar
    49   50   33 ar
    50   51   50 ar
    51   52   51 ar
    52   53   32 ar
    53   54   53 ar
    54   55   54 ar
    55   56   55 ar
    56   57   56 1
    57   58   52 ar
    58   59   58 1
    59   60   54 ar
    60   61   60 1
    61   62   60 ar
    62   63   62 1
    63   64   62 ar
    64   65   64 1
    65   66   55 ar
    66   67   66 1
    67   68   51 1
    68   69   68 ar
    69   70   69 1
    70   71   69 ar
    71   72   71 1
    72   73   71 ar
    73   74   73 1
    74   75   73 ar
    75   76   68 ar
    76   77   75 ar
    77   78   77 1
    78   79   77 ar
    79   80   79 1
    80   81   79 ar
    81   82   81 1
    82   83   76 ar
    83   84   83 1
    84   85   84 3
    85   86   85 1
    86   87   86 ar
    87   88   87 1
    88   89   87 ar
    89   90   89 1
    90   91   89 ar
    91   92   91 1
    92   93   91 ar
    93   94   93 1
    94   95   86 ar
    95   96   95 1
    96    9   11 ar
    97   21   22 ar
    98   26   28 ar
    99   41   49 ar
   100   48   49 ar
   101   48   50 1
   102   52   53 ar
   103   56   58 ar
   104   64   66 ar
   105   75   76 ar
   106   81   83 ar
   107   93   95 ar
@<TRIPOS>SUBSTRUCTURE
     1 RES1 1

@<TRIPOS>CRYSIN
  10.6144   27.3430   14.4095  90.0000 106.3930  90.0000 231 1

