# MOL2 file generated by ConQuest
# Please check atom types

@<TRIPOS>MOLECULE
TAPSEK
    60    67     1
SMALL
NO_CHARGES
****
Generated from CSD

@<TRIPOS>ATOM
      1 C1         7.5755   -4.3247    6.4619 C.ar      1 RES1    0.0000
      2 C2         7.7015   -5.1119    5.3130 C.ar      1 RES1    0.0000
      3 H1         7.6688   -4.7068    4.4544 H         1 RES1    0.0000
      4 C3         7.8747   -6.4891    5.4262 C.ar      1 RES1    0.0000
      5 H2         7.9618   -7.0222    4.6438 H         1 RES1    0.0000
      6 C4         7.9211   -7.0807    6.6726 C.ar      1 RES1    0.0000
      7 H3         8.0506   -8.0194    6.7488 H         1 RES1    0.0000
      8 C5         7.7780   -6.3071    7.8081 C.ar      1 RES1    0.0000
      9 H4         7.7972   -6.7166    8.6655 H         1 RES1    0.0000
     10 C6         7.6076   -4.9408    7.7038 C.ar      1 RES1    0.0000
     11 H5         7.5116   -4.4168    8.4918 H         1 RES1    0.0000
     12 C7         7.3849   -2.9001    6.3576 C.1       1 RES1    0.0000
     13 C8         7.1773   -1.7234    6.2926 C.1       1 RES1    0.0000
     14 C9         6.9735   -0.3152    6.0606 C.ar      1 RES1    0.0000
     15 C10        7.6742    0.2260    4.9902 C.ar      1 RES1    0.0000
     16 C11        8.6470   -0.3661    4.0453 C.ar      1 RES1    0.0000
     17 C12        9.2278   -1.6088    3.8738 C.ar      1 RES1    0.0000
     18 H6         9.0207   -2.3199    4.4690 H         1 RES1    0.0000
     19 C13       10.1295   -1.8098    2.8089 C.ar      1 RES1    0.0000
     20 H7        10.5285   -2.6657    2.6991 H         1 RES1    0.0000
     21 C14       10.4493   -0.8002    1.9167 C.ar      1 RES1    0.0000
     22 H8        11.0546   -0.9659    1.2027 H         1 RES1    0.0000
     23 C15        9.8686    0.4852    2.0770 C.ar      1 RES1    0.0000
     24 C16       10.0854    1.6275    1.2520 C.ar      1 RES1    0.0000
     25 H9        10.6720    1.5682    0.5066 H         1 RES1    0.0000
     26 C17        9.4566    2.8053    1.5278 C.ar      1 RES1    0.0000
     27 H10        9.6047    3.5513    0.9572 H         1 RES1    0.0000
     28 C18        8.5810    2.9541    2.6464 C.ar      1 RES1    0.0000
     29 H11        8.1664    3.7900    2.8235 H         1 RES1    0.0000
     30 C19        8.3482    1.8883    3.4534 C.ar      1 RES1    0.0000
     31 C20        8.9996    0.6536    3.1486 C.ar      1 RES1    0.0000
     32 C21        7.4997    1.6057    4.6180 C.ar      1 RES1    0.0000
     33 C22        6.6084    2.3955    5.2939 C.ar      1 RES1    0.0000
     34 C23        5.8195    1.8218    6.3464 C.ar      1 RES1    0.0000
     35 C24        6.0313    0.4894    6.7903 C.ar      1 RES1    0.0000
     36 C25        5.2697    0.0201    7.9347 C.ar      1 RES1    0.0000
     37 C26        5.5579   -1.1867    8.6409 C.ar      1 RES1    0.0000
     38 H12        6.3103   -1.7087    8.3876 H         1 RES1    0.0000
     39 C27        4.7673   -1.6068    9.6777 C.ar      1 RES1    0.0000
     40 H13        4.9800   -2.4181   10.1261 H         1 RES1    0.0000
     41 C28        3.6506   -0.8655   10.0913 C.ar      1 RES1    0.0000
     42 H14        3.0860   -1.1890   10.7829 H         1 RES1    0.0000
     43 C29        3.3885    0.3214    9.4883 C.ar      1 RES1    0.0000
     44 H15        2.6432    0.8343    9.7775 H         1 RES1    0.0000
     45 C30        4.1936    0.8080    8.4481 C.ar      1 RES1    0.0000
     46 C31        3.9710    2.1085    7.9011 C.ar      1 RES1    0.0000
     47 H16        3.2424    2.6278    8.2217 H         1 RES1    0.0000
     48 C32        4.7650    2.6148    6.9483 C.ar      1 RES1    0.0000
     49 H17        4.6352    3.5111    6.6603 H         1 RES1    0.0000
     50 C33        6.4893    3.8495    4.9431 C.ar      1 RES1    0.0000
     51 C34        5.4248    4.3363    4.1921 C.ar      1 RES1    0.0000
     52 H18        4.7519    3.7387    3.8872 H         1 RES1    0.0000
     53 C35        5.3386    5.6863    3.8839 C.ar      1 RES1    0.0000
     54 H19        4.6017    6.0117    3.3817 H         1 RES1    0.0000
     55 C36        6.3278    6.5596    4.3098 C.ar      1 RES1    0.0000
     56 H20        6.2707    7.4840    4.0979 H         1 RES1    0.0000
     57 C37        7.3974    6.0793    5.0428 C.ar      1 RES1    0.0000
     58 H21        8.0802    6.6743    5.3287 H         1 RES1    0.0000
     59 C38        7.4776    4.7380    5.3634 C.ar      1 RES1    0.0000
     60 H22        8.2124    4.4190    5.8745 H         1 RES1    0.0000
@<TRIPOS>BOND
     1    1    2 ar
     2    2    3 1
     3    4    2 ar
     4    5    4 1
     5    6    4 ar
     6    7    6 1
     7    8    6 ar
     8    9    8 1
     9   10    1 ar
    10   11   10 1
    11   12    1 1
    12   13   12 3
    13   14   13 1
    14   15   14 ar
    15   16   15 1
    16   17   16 ar
    17   18   17 1
    18   19   17 ar
    19   20   19 1
    20   21   19 ar
    21   22   21 1
    22   23   21 ar
    23   24   23 ar
    24   25   24 1
    25   26   24 ar
    26   27   26 1
    27   28   26 ar
    28   29   28 1
    29   30   28 ar
    30   31   16 ar
    31   32   15 ar
    32   33   32 ar
    33   34   33 ar
    34   35   14 ar
    35   36   35 ar
    36   37   36 ar
    37   38   37 1
    38   39   37 ar
    39   40   39 1
    40   41   39 ar
    41   42   41 1
    42   43   41 ar
    43   44   43 1
    44   45   36 ar
    45   46   45 ar
    46   47   46 1
    47   48   34 ar
    48   49   48 1
    49   50   33 1
    50   51   50 ar
    51   52   51 1
    52   53   51 ar
    53   54   53 1
    54   55   53 ar
    55   56   55 1
    56   57   55 ar
    57   58   57 1
    58   59   50 ar
    59   60   59 1
    60    8   10 ar
    61   23   31 ar
    62   30   31 ar
    63   30   32 1
    64   34   35 ar
    65   43   45 ar
    66   46   48 ar
    67   57   59 ar
@<TRIPOS>SUBSTRUCTURE
     1 RES1 1

@<TRIPOS>CRYSIN
   9.6169   22.3070   11.2104  90.0000  90.9610  90.0000 231 1

