# MOL2 file generated by ConQuest
# Please check atom types

@<TRIPOS>MOLECULE
TAPSAG
    60    67     1
SMALL
NO_CHARGES
****
Generated from CSD

@<TRIPOS>ATOM
      1 C1         4.0909    8.5276    5.5050 C.ar      1 RES1    0.0000
      2 C2         3.7444    7.6496    4.4756 C.ar      1 RES1    0.0000
      3 H1         2.9780    7.0956    4.5632 H         1 RES1    0.0000
      4 C3         4.5152    7.5845    3.3286 C.ar      1 RES1    0.0000
      5 H2         4.2720    6.9865    2.6309 H         1 RES1    0.0000
      6 C4         5.6366    8.3819    3.1884 C.ar      1 RES1    0.0000
      7 H3         6.1588    8.3355    2.3960 H         1 RES1    0.0000
      8 C5         5.9932    9.2468    4.2035 C.ar      1 RES1    0.0000
      9 H4         6.7680    9.7889    4.1138 H         1 RES1    0.0000
     10 C6         5.2272    9.3261    5.3494 C.ar      1 RES1    0.0000
     11 H5         5.4755    9.9291    6.0399 H         1 RES1    0.0000
     12 C7         3.2825    8.6902    6.6798 C.1       1 RES1    0.0000
     13 C8         2.5955    8.9195    7.6413 C.1       1 RES1    0.0000
     14 C9         1.7689    9.4855    8.6692 C.ar      1 RES1    0.0000
     15 C10        1.8278   10.8726    8.7759 C.ar      1 RES1    0.0000
     16 H6         2.4345   11.3529    8.2246 H         1 RES1    0.0000
     17 C11        1.0150   11.5808    9.6766 C.ar      1 RES1    0.0000
     18 H7         1.0743   12.5274    9.7323 H         1 RES1    0.0000
     19 C12        0.1429   10.9035   10.4670 C.ar      1 RES1    0.0000
     20 H8        -0.4161   11.3872   11.0637 H         1 RES1    0.0000
     21 C13        0.0493    9.4879   10.4217 C.ar      1 RES1    0.0000
     22 C14       -0.8713    8.8208   11.2574 C.ar      1 RES1    0.0000
     23 H9        -1.4345    9.3247   11.8345 H         1 RES1    0.0000
     24 C15       -0.9605    7.4598   11.2451 C.ar      1 RES1    0.0000
     25 H10       -1.5809    7.0161   11.8118 H         1 RES1    0.0000
     26 C16       -0.1307    6.7173   10.3918 C.ar      1 RES1    0.0000
     27 H11       -0.1860    5.7683   10.4052 H         1 RES1    0.0000
     28 C17        0.7590    7.3164    9.5369 C.ar      1 RES1    0.0000
     29 C18        0.8826    8.7426    9.5213 C.ar      1 RES1    0.0000
     30 C19        1.5657    6.4455    8.6233 C.ar      1 RES1    0.0000
     31 C20        2.8808    5.9959    9.0006 C.ar      1 RES1    0.0000
     32 C21        3.4623    6.3701   10.2351 C.ar      1 RES1    0.0000
     33 H12        2.9825    6.9398   10.8256 H         1 RES1    0.0000
     34 C22        4.7132    5.9204   10.5907 C.ar      1 RES1    0.0000
     35 H13        5.0942    6.1889   11.4182 H         1 RES1    0.0000
     36 C23        5.4295    5.0661    9.7343 C.ar      1 RES1    0.0000
     37 H14        6.2880    4.7511    9.9899 H         1 RES1    0.0000
     38 C24        4.8913    4.6865    8.5307 C.ar      1 RES1    0.0000
     39 H15        5.3809    4.1016    7.9639 H         1 RES1    0.0000
     40 C25        3.6211    5.1490    8.1185 C.ar      1 RES1    0.0000
     41 C26        3.0839    4.8110    6.8447 C.ar      1 RES1    0.0000
     42 H16        3.5887    4.2807    6.2388 H         1 RES1    0.0000
     43 C27        1.8429    5.2521    6.4985 C.ar      1 RES1    0.0000
     44 C28        1.0497    5.0758    5.2629 C.ar      1 RES1    0.0000
     45 C29        1.3047    4.5619    4.0170 C.ar      1 RES1    0.0000
     46 H17        2.1589    4.2028    3.8057 H         1 RES1    0.0000
     47 C30        0.2667    4.5785    3.0493 C.ar      1 RES1    0.0000
     48 H18        0.4374    4.2215    2.1857 H         1 RES1    0.0000
     49 C31       -0.9812    5.0951    3.3224 C.ar      1 RES1    0.0000
     50 H19       -1.6576    5.0689    2.6567 H         1 RES1    0.0000
     51 C32       -1.2634    5.6671    4.5910 C.ar      1 RES1    0.0000
     52 C33       -0.2152    5.6521    5.5174 C.ar      1 RES1    0.0000
     53 C34       -2.4622    6.2902    5.0228 C.ar      1 RES1    0.0000
     54 H20       -3.2158    6.3167    4.4446 H         1 RES1    0.0000
     55 C35       -2.5385    6.8541    6.2687 C.ar      1 RES1    0.0000
     56 H21       -3.3544    7.2607    6.5335 H         1 RES1    0.0000
     57 C36       -1.4534    6.8569    7.1807 C.ar      1 RES1    0.0000
     58 H22       -1.5368    7.2685    8.0329 H         1 RES1    0.0000
     59 C37       -0.2744    6.2491    6.8025 C.ar      1 RES1    0.0000
     60 C38        1.0450    6.0268    7.4249 C.ar      1 RES1    0.0000
@<TRIPOS>BOND
     1    1    2 ar
     2    2    3 1
     3    4    2 ar
     4    5    4 1
     5    6    4 ar
     6    7    6 1
     7    8    6 ar
     8    9    8 1
     9   10    1 ar
    10   11   10 1
    11   12    1 1
    12   13   12 3
    13   14   13 1
    14   15   14 ar
    15   16   15 1
    16   17   15 ar
    17   18   17 1
    18   19   17 ar
    19   20   19 1
    20   21   19 ar
    21   22   21 ar
    22   23   22 1
    23   24   22 ar
    24   25   24 1
    25   26   24 ar
    26   27   26 1
    27   28   26 ar
    28   29   14 ar
    29   30   28 1
    30   31   30 ar
    31   32   31 ar
    32   33   32 1
    33   34   32 ar
    34   35   34 1
    35   36   34 ar
    36   37   36 1
    37   38   36 ar
    38   39   38 1
    39   40   31 ar
    40   41   40 ar
    41   42   41 1
    42   43   41 ar
    43   44   43 1
    44   45   44 ar
    45   46   45 1
    46   47   45 ar
    47   48   47 1
    48   49   47 ar
    49   50   49 1
    50   51   49 ar
    51   52   44 ar
    52   53   51 ar
    53   54   53 1
    54   55   53 ar
    55   56   55 1
    56   57   55 ar
    57   58   57 1
    58   59   52 ar
    59   60   30 ar
    60    8   10 ar
    61   21   29 ar
    62   28   29 ar
    63   38   40 ar
    64   43   60 ar
    65   51   52 ar
    66   57   59 ar
    67   59   60 1
@<TRIPOS>SUBSTRUCTURE
     1 RES1 1

@<TRIPOS>CRYSIN
  15.5297   15.5775   10.6412  90.0000 104.4360  90.0000  14 1

