# MOL2 file generated by ConQuest
# Please check atom types

@<TRIPOS>MOLECULE
TAVHEE
    33    39     1
SMALL
NO_CHARGES
****
Generated from CSD

@<TRIPOS>ATOM
      1 C1        -1.2563    8.9751    1.9310 C.ar      1 RES1    0.0000
      2 C2        -1.1913   10.3599    1.9333 C.ar      1 RES1    0.0000
      3 C3        -2.1541   11.1497    2.5495 C.ar      1 RES1    0.0000
      4 C4        -3.2765   10.4767    3.0409 C.ar      1 RES1    0.0000
      5 C5        -3.3447    9.0529    3.0432 C.ar      1 RES1    0.0000
      6 C6        -2.2930    8.2833    2.5487 C.ar      1 RES1    0.0000
      7 C7        -1.5001   12.5273    2.8345 C.3       1 RES1    0.0000
      8 H1        -3.9104   10.9234    3.5585 H         1 RES1    0.0000
      9 H2        -4.0852    8.6609    3.5739 H         1 RES1    0.0000
     10 H3        -1.6640   12.8256    3.7434 H         1 RES1    0.0000
     11 H4        -1.9053   13.2724    2.2722 H         1 RES1    0.0000
     12 C1C        0.0807   11.0113    1.9310 C.ar      1 RES1    0.0000
     13 C2C        1.2475   10.2625    1.9333 C.ar      1 RES1    0.0000
     14 C1A        1.1756    8.8353    1.9310 C.ar      1 RES1    0.0000
     15 C2A       -0.0562    8.1992    1.9333 C.ar      1 RES1    0.0000
     16 C6C        0.0000   12.2550    2.5487 C.ar      1 RES1    0.0000
     17 C5C        1.1923   12.7810    3.0432 C.ar      1 RES1    0.0000
     18 C4C        2.3912   12.0100    3.0409 C.ar      1 RES1    0.0000
     19 C3C        2.4128   10.7015    2.5495 C.ar      1 RES1    0.0000
     20 C7C        3.2790    9.4463    2.8345 C.3       1 RES1    0.0000
     21 C6A        2.2930    8.2833    2.5487 C.ar      1 RES1    0.0000
     22 C5A        2.1524    6.9878    3.0432 C.ar      1 RES1    0.0000
     23 C4A        0.8853    6.3350    3.0409 C.ar      1 RES1    0.0000
     24 C3A       -0.2588    6.9705    2.5495 C.ar      1 RES1    0.0000
     25 C7A       -1.7788    6.8480    2.8345 C.3       1 RES1    0.0000
     26 H3A       -1.9552    6.5569    3.7434 H         1 RES1    0.0000
     27 H4A       -2.2215    6.1246    2.2722 H         1 RES1    0.0000
     28 H1A        0.8154    5.5626    3.5585 H         1 RES1    0.0000
     29 H2A        2.8621    6.5425    3.5739 H         1 RES1    0.0000
     30 H3C        3.6192    9.4391    3.7434 H         1 RES1    0.0000
     31 H4C        4.1268    9.4247    2.2722 H         1 RES1    0.0000
     32 H1C        3.0951   12.3357    3.5585 H         1 RES1    0.0000
     33 H2C        1.2231   13.6182    3.5739 H         1 RES1    0.0000
@<TRIPOS>BOND
     1    1    2 ar
     2    2    3 ar
     3    3    4 ar
     4    4    5 ar
     5    5    6 ar
     6    6    1 ar
     7    7    3 1
     8    8    4 1
     9    9    5 1
    10   10    7 1
    11   11    7 1
    12   12    2 ar
    13   13   12 ar
    14   14   13 ar
    15   15    1 ar
    16   16    7 1
    17   17   16 ar
    18   18   17 ar
    19   19   13 ar
    20   20   19 1
    21   21   14 ar
    22   22   21 ar
    23   23   22 ar
    24   24   15 ar
    25   25    6 1
    26   26   25 1
    27   27   25 1
    28   28   23 1
    29   29   22 1
    30   30   20 1
    31   31   20 1
    32   32   18 1
    33   33   17 1
    34   12   16 ar
    35   14   15 ar
    36   18   19 ar
    37   20   21 1
    38   23   24 ar
    39   24   25 1
@<TRIPOS>SUBSTRUCTURE
     1 RES1 1

@<TRIPOS>CRYSIN
  16.6402   16.6402    7.7024  90.0000  90.0000 120.0000 236 1

