# MOL2 file generated by ConQuest
# Please check atom types

@<TRIPOS>MOLECULE
TAVHEE02
    33    39     1
SMALL
NO_CHARGES
****
Generated from CSD

@<TRIPOS>ATOM
      1 C1        -7.0931   13.6117    1.6514 C.ar      1 RES1    0.0000
      2 C2        -7.0358   14.9935    1.6517 C.ar      1 RES1    0.0000
      3 C3        -6.0028   15.6954    1.0294 C.ar      1 RES1    0.0000
      4 C4        -4.9434   14.9259    0.5366 C.ar      1 RES1    0.0000
      5 C5        -5.0012   13.4962    0.5385 C.ar      1 RES1    0.0000
      6 C6        -6.1225   12.8211    1.0345 C.ar      1 RES1    0.0000
      7 C7        -6.7706   11.4450    0.7457 C.3       1 RES1    0.0000
      8 H1        -4.0635   15.4221    0.1461 H         1 RES1    0.0000
      9 H2        -4.1647   12.9280    0.1509 H         1 RES1    0.0000
     10 H3        -6.6116   11.1427   -0.2915 H         1 RES1    0.0000
     11 H4        -6.3721   10.6742    1.4086 H         1 RES1    0.0000
     12 C1A       -8.2415   15.7608    1.6514 C.ar      1 RES1    0.0000
     13 C1B       -9.5285   13.6917    1.6514 C.ar      1 RES1    0.0000
     14 C2A       -9.4669   15.1195    1.6517 C.ar      1 RES1    0.0000
     15 C2B       -8.3605   12.9511    1.6517 C.ar      1 RES1    0.0000
     16 C3A      -10.5913   15.6631    1.0294 C.ar      1 RES1    0.0000
     17 C3B       -8.2691   11.7056    1.0294 C.ar      1 RES1    0.0000
     18 C4A      -10.4545   16.9654    0.5366 C.ar      1 RES1    0.0000
     19 C4B       -9.4652   11.1729    0.5366 C.ar      1 RES1    0.0000
     20 C5A       -9.1874   17.6302    0.5385 C.ar      1 RES1    0.0000
     21 C5B      -10.6745   11.9378    0.5385 C.ar      1 RES1    0.0000
     22 C6A       -8.0421   16.9967    1.0345 C.ar      1 RES1    0.0000
     23 C6B      -10.6985   13.2464    1.0345 C.ar      1 RES1    0.0000
     24 C7A       -6.5264   17.1235    0.7457 C.3       1 RES1    0.0000
     25 C7B      -11.5661   14.4957    0.7457 C.3       1 RES1    0.0000
     26 H1A      -11.3242   17.4793    0.1461 H         1 RES1    0.0000
     27 H1B       -9.4754   10.1627    0.1461 H         1 RES1    0.0000
     28 H2A       -9.1137   18.6387    0.1509 H         1 RES1    0.0000
     29 H2B      -11.5848   11.4974    0.1509 H         1 RES1    0.0000
     30 H3A       -6.3441   17.4123   -0.2915 H         1 RES1    0.0000
     31 H3B      -11.9074   14.5092   -0.2915 H         1 RES1    0.0000
     32 H4A       -6.0581   17.8540    1.4086 H         1 RES1    0.0000
     33 H4B      -12.4330   14.5360    1.4086 H         1 RES1    0.0000
@<TRIPOS>BOND
     1    1    2 ar
     2    2    3 ar
     3    3    4 ar
     4    4    5 ar
     5    5    6 ar
     6    6    1 ar
     7    7    6 1
     8    8    4 1
     9    9    5 1
    10   10    7 1
    11   11    7 1
    12   12    2 ar
    13   13   14 ar
    14   14   12 ar
    15   15    1 ar
    16   16   14 ar
    17   17    7 1
    18   18   16 ar
    19   19   17 ar
    20   20   18 ar
    21   21   19 ar
    22   22   12 ar
    23   23   13 ar
    24   24    3 1
    25   25   16 1
    26   26   18 1
    27   27   19 1
    28   28   20 1
    29   29   21 1
    30   30   24 1
    31   31   25 1
    32   32   24 1
    33   33   25 1
    34   13   15 ar
    35   15   17 ar
    36   20   22 ar
    37   21   23 ar
    38   22   24 1
    39   23   25 1
@<TRIPOS>SUBSTRUCTURE
     1 RES1 1

@<TRIPOS>CRYSIN
  16.5754   16.5754    7.5796  90.0000  90.0000 120.0000 236 1

