# MOL2 file generated by ConQuest
# Please check atom types

@<TRIPOS>MOLECULE
TAVPIR
   200   220     4
SMALL
NO_CHARGES
****
Generated from CSD

@<TRIPOS>ATOM
      1 C1        -5.9971   -1.2077    4.4304 C.ar      1 RES1    0.0000
      2 C2        -5.6460   -0.7835    5.7027 C.ar      1 RES1    0.0000
      3 H1        -4.7435   -0.8500    5.9905 H         1 RES1    0.0000
      4 C3        -6.5977   -0.2645    6.5486 C.ar      1 RES1    0.0000
      5 H2        -6.3521    0.0145    7.4225 H         1 RES1    0.0000
      6 C4        -7.9130   -0.1489    6.1306 C.ar      1 RES1    0.0000
      7 H3        -8.5665    0.2138    6.7181 H         1 RES1    0.0000
      8 C5        -8.2727   -0.5518    4.8816 C.ar      1 RES1    0.0000
      9 H4        -9.1740   -0.4734    4.5903 H         1 RES1    0.0000
     10 C6        -7.3080   -1.0807    4.0409 C.ar      1 RES1    0.0000
     11 H5        -7.5597   -1.3628    3.1699 H         1 RES1    0.0000
     12 C7        -5.0061   -1.8129    3.4959 C.ar      1 RES1    0.0000
     13 C8        -3.8800   -1.0760    3.0224 C.ar      1 RES1    0.0000
     14 C9        -3.0016   -1.6842    2.1546 C.ar      1 RES1    0.0000
     15 H6        -2.2487   -1.1943    1.8477 H         1 RES1    0.0000
     16 C10       -3.1831   -3.0146    1.7030 C.ar      1 RES1    0.0000
     17 C11       -2.2727   -3.6629    0.8240 C.ar      1 RES1    0.0000
     18 H7        -1.5175   -3.1900    0.4966 H         1 RES1    0.0000
     19 C12       -2.4737   -4.9616    0.4466 C.ar      1 RES1    0.0000
     20 H8        -1.8536   -5.3855   -0.1357 H         1 RES1    0.0000
     21 C13       -3.5811   -5.6660    0.9083 C.ar      1 RES1    0.0000
     22 H9        -3.7057   -6.5689    0.6409 H         1 RES1    0.0000
     23 C14       -4.4955   -5.0771    1.7435 C.ar      1 RES1    0.0000
     24 H10       -5.2529   -5.5694    2.0382 H         1 RES1    0.0000
     25 C15       -4.3140   -3.7333    2.1676 C.ar      1 RES1    0.0000
     26 C16       -5.2004   -3.0939    3.0533 C.ar      1 RES1    0.0000
     27 H11       -5.9648   -3.5707    3.3576 H         1 RES1    0.0000
     28 C17       -3.6504    0.3387    3.4194 C.ar      1 RES1    0.0000
     29 C18       -4.4818    1.3482    2.8769 C.ar      1 RES1    0.0000
     30 C19       -5.5476    1.0636    1.9649 C.ar      1 RES1    0.0000
     31 H12       -5.7118    0.1645    1.7091 H         1 RES1    0.0000
     32 C20       -6.3273    2.0501    1.4594 C.ar      1 RES1    0.0000
     33 H13       -7.0314    1.8314    0.8603 H         1 RES1    0.0000
     34 C21       -6.1060    3.3898    1.8090 C.ar      1 RES1    0.0000
     35 H14       -6.6611    4.0712    1.4493 H         1 RES1    0.0000
     36 C22       -5.1105    3.7116    2.6523 C.ar      1 RES1    0.0000
     37 H15       -4.9731    4.6246    2.8783 H         1 RES1    0.0000
     38 C23       -4.2564    2.7204    3.2147 C.ar      1 RES1    0.0000
     39 C24       -3.2112    3.0462    4.0629 C.ar      1 RES1    0.0000
     40 H16       -3.0556    3.9595    4.2757 H         1 RES1    0.0000
     41 C25       -2.3835    2.0743    4.6108 C.ar      1 RES1    0.0000
     42 C26       -1.3023    2.4102    5.4819 C.ar      1 RES1    0.0000
     43 H17       -1.1313    3.3244    5.6788 H         1 RES1    0.0000
     44 C27       -0.5216    1.4638    6.0278 C.ar      1 RES1    0.0000
     45 H18        0.1957    1.7128    6.5968 H         1 RES1    0.0000
     46 C28       -0.7632    0.1115    5.7607 C.ar      1 RES1    0.0000
     47 H19       -0.2174   -0.5521    6.1667 H         1 RES1    0.0000
     48 C29       -1.7787   -0.2704    4.9174 C.ar      1 RES1    0.0000
     49 H20       -1.9223   -1.1938    4.7462 H         1 RES1    0.0000
     50 C30       -2.6169    0.6978    4.2988 C.ar      1 RES1    0.0000
     51 C31       -8.4853   -4.2518    9.8880 C.ar      2 RES2    0.0000
     52 C32       -8.0396   -3.7520    8.6729 C.ar      2 RES2    0.0000
     53 H21       -7.1157   -3.7939    8.4589 H         2 RES2    0.0000
     54 C33       -8.9344   -3.1930    7.7663 C.ar      2 RES2    0.0000
     55 H22       -8.6186   -2.8614    6.9346 H         2 RES2    0.0000
     56 C34      -10.2735   -3.1174    8.0689 C.ar      2 RES2    0.0000
     57 H23      -10.8836   -2.7371    7.4485 H         2 RES2    0.0000
     58 C35      -10.7265   -3.5954    9.2757 C.ar      2 RES2    0.0000
     59 H24      -11.6478   -3.5334    9.4954 H         2 RES2    0.0000
     60 C36       -9.8342   -4.1692   10.1692 C.ar      2 RES2    0.0000
     61 H25      -10.1585   -4.5117   10.9937 H         2 RES2    0.0000
     62 C37       -7.5518   -4.8757   10.8638 C.ar      2 RES2    0.0000
     63 C38       -6.4254   -4.1744   11.3716 C.ar      2 RES2    0.0000
     64 C39       -5.5935   -4.7924   12.2790 C.ar      2 RES2    0.0000
     65 H26       -4.8351   -4.3182   12.6018 H         2 RES2    0.0000
     66 C40       -5.8247   -6.1044   12.7490 C.ar      2 RES2    0.0000
     67 C41       -4.9568   -6.7580   13.6587 C.ar      2 RES2    0.0000
     68 H27       -4.2050   -6.2943   14.0078 H         2 RES2    0.0000
     69 C42       -5.1951   -8.0522   14.0401 C.ar      2 RES2    0.0000
     70 H28       -4.6020   -8.4839   14.6429 H         2 RES2    0.0000
     71 C43       -6.3050   -8.7397   13.5435 C.ar      2 RES2    0.0000
     72 H29       -6.4658   -9.6349   13.8201 H         2 RES2    0.0000
     73 C44       -7.1631   -8.1421   12.6673 C.ar      2 RES2    0.0000
     74 H30       -7.9106   -8.6271   12.3362 H         2 RES2    0.0000
     75 C45       -6.9514   -6.8047   12.2421 C.ar      2 RES2    0.0000
     76 C46       -7.7929   -6.1556   11.3185 C.ar      2 RES2    0.0000
     77 H31       -8.5565   -6.6188   10.9966 H         2 RES2    0.0000
     78 C47       -6.1268   -2.7727   10.9680 C.ar      2 RES2    0.0000
     79 C48       -6.8938   -1.7211   11.5001 C.ar      2 RES2    0.0000
     80 C49       -8.0097   -1.9475   12.3668 C.ar      2 RES2    0.0000
     81 H32       -8.2506   -2.8382   12.5931 H         2 RES2    0.0000
     82 C50       -8.7333   -0.9120   12.8746 C.ar      2 RES2    0.0000
     83 H33       -9.4696   -1.0825   13.4506 H         2 RES2    0.0000
     84 C51       -8.3842    0.4228   12.5438 C.ar      2 RES2    0.0000
     85 H34       -8.9016    1.1398   12.8905 H         2 RES2    0.0000
     86 C52       -7.3442    0.6862   11.7556 C.ar      2 RES2    0.0000
     87 H35       -7.1218    1.5905   11.5654 H         2 RES2    0.0000
     88 C53       -6.5515   -0.3641   11.1880 C.ar      2 RES2    0.0000
     89 C54       -5.4766   -0.1031   10.3647 C.ar      2 RES2    0.0000
     90 H36       -5.2439    0.7988   10.1796 H         2 RES2    0.0000
     91 C55       -4.7250   -1.1264    9.7994 C.ar      2 RES2    0.0000
     92 C56       -3.6065   -0.8732    8.9304 C.ar      2 RES2    0.0000
     93 H37       -3.3513    0.0244    8.7476 H         2 RES2    0.0000
     94 C57       -2.9148   -1.8835    8.3689 C.ar      2 RES2    0.0000
     95 H38       -2.1775   -1.6896    7.8007 H         2 RES2    0.0000
     96 C58       -3.2717   -3.2160    8.6128 C.ar      2 RES2    0.0000
     97 H39       -2.7902   -3.9162    8.1876 H         2 RES2    0.0000
     98 C59       -4.3014   -3.5193    9.4527 C.ar      2 RES2    0.0000
     99 H40       -4.5186   -4.4304    9.6166 H         2 RES2    0.0000
    100 C60       -5.0590   -2.4906   10.0921 C.ar      2 RES2    0.0000
    101 C61       -3.3266    4.3768    9.9761 C.ar      3 RES3    0.0000
    102 C62       -2.8802    3.6529    8.8764 C.ar      3 RES3    0.0000
    103 H41       -1.9505    3.6188    8.6841 H         3 RES3    0.0000
    104 C63       -3.7717    2.9811    8.0600 C.ar      3 RES3    0.0000
    105 H42       -3.4513    2.4911    7.3128 H         3 RES3    0.0000
    106 C64       -5.1249    3.0182    8.3261 C.ar      3 RES3    0.0000
    107 H43       -5.7355    2.5501    7.7689 H         3 RES3    0.0000
    108 C65       -5.5828    3.7381    9.4033 C.ar      3 RES3    0.0000
    109 H44       -6.5148    3.7776    9.5820 H         3 RES3    0.0000
    110 C66       -4.6955    4.4023   10.2258 C.ar      3 RES3    0.0000
    111 H45       -5.0237    4.8860   10.9735 H         3 RES3    0.0000
    112 C67       -2.4016    5.0826   10.9086 C.ar      3 RES3    0.0000
    113 C68       -1.2514    4.4433   11.4406 C.ar      3 RES3    0.0000
    114 C69       -0.4502    5.1063   12.3388 C.ar      3 RES3    0.0000
    115 H46        0.3141    4.6624   12.6884 H         3 RES3    0.0000
    116 C70       -0.7255    6.4256   12.7603 C.ar      3 RES3    0.0000
    117 C71        0.1133    7.1287   13.6587 C.ar      3 RES3    0.0000
    118 H47        0.8806    6.7025   14.0251 H         3 RES3    0.0000
    119 C72       -0.1813    8.4197   14.0017 C.ar      3 RES3    0.0000
    120 H48        0.3931    8.8871   14.5967 H         3 RES3    0.0000
    121 C73       -1.3096    9.0606   13.4916 C.ar      3 RES3    0.0000
    122 H49       -1.5052    9.9520   13.7537 H         3 RES3    0.0000
    123 C74       -2.1394    8.4087   12.6113 C.ar      3 RES3    0.0000
    124 H50       -2.8994    8.8590   12.2611 H         3 RES3    0.0000
    125 C75       -1.8740    7.0723   12.2170 C.ar      3 RES3    0.0000
    126 C76       -2.6807    6.3699   11.3156 C.ar      3 RES3    0.0000
    127 H51       -3.4554    6.7978   10.9706 H         3 RES3    0.0000
    128 C77       -0.8651    3.0542   11.0702 C.ar      3 RES3    0.0000
    129 C78       -1.5549    1.9555   11.6142 C.ar      3 RES3    0.0000
    130 C79       -2.6856    2.1263   12.4849 C.ar      3 RES3    0.0000
    131 H52       -2.9767    3.0016   12.7115 H         3 RES3    0.0000
    132 C80       -3.3434    1.0457   12.9855 C.ar      3 RES3    0.0000
    133 H53       -4.0910    1.1764   13.5574 H         3 RES3    0.0000
    134 C81       -2.9315   -0.2616   12.6717 C.ar      3 RES3    0.0000
    135 H54       -3.4068   -1.0069   13.0204 H         3 RES3    0.0000
    136 C82       -1.8579   -0.4574   11.8714 C.ar      3 RES3    0.0000
    137 H55       -1.5847   -1.3473   11.6780 H         3 RES3    0.0000
    138 C83       -1.1329    0.6166   11.3139 C.ar      3 RES3    0.0000
    139 C84       -0.0228    0.4359   10.4957 C.ar      3 RES3    0.0000
    140 H56        0.2771   -0.4468   10.3153 H         3 RES3    0.0000
    141 C85        0.6567    1.4950    9.9377 C.ar      3 RES3    0.0000
    142 C86        1.7983    1.3170    9.0889 C.ar      3 RES3    0.0000
    143 H57        2.1415    0.4437    8.9468 H         3 RES3    0.0000
    144 C87        2.3947    2.3679    8.4875 C.ar      3 RES3    0.0000
    145 H58        3.1468    2.2252    7.9248 H         3 RES3    0.0000
    146 C88        1.9134    3.6611    8.6856 C.ar      3 RES3    0.0000
    147 H59        2.3255    4.3852    8.2309 H         3 RES3    0.0000
    148 C89        0.8670    3.9054    9.5165 C.ar      3 RES3    0.0000
    149 H60        0.5660    4.7978    9.6455 H         3 RES3    0.0000
    150 C90        0.2150    2.8390   10.1966 C.ar      3 RES3    0.0000
    151 C91      -12.0626    7.4848    4.6002 C.ar      4 RES4    0.0000
    152 C92      -11.6032    6.8828    5.7607 C.ar      4 RES4    0.0000
    153 H61      -10.6707    6.8680    5.9415 H         4 RES4    0.0000
    154 C93      -12.4807    6.3051    6.6606 C.ar      4 RES4    0.0000
    155 H62      -12.1486    5.9003    7.4543 H         4 RES4    0.0000
    156 C94      -13.8377    6.3139    6.4086 C.ar      4 RES4    0.0000
    157 H63      -14.4388    5.9165    7.0270 H         4 RES4    0.0000
    158 C95      -14.3171    6.8991    5.2624 C.ar      4 RES4    0.0000
    159 H64      -15.2507    6.9034    5.0840 H         4 RES4    0.0000
    160 C96      -13.4325    7.4836    4.3654 C.ar      4 RES4    0.0000
    161 H65      -13.7701    7.8898    3.5770 H         4 RES4    0.0000
    162 C97      -11.1570    8.1407    3.6154 C.ar      4 RES4    0.0000
    163 C98      -10.0200    7.4808    3.0715 C.ar      4 RES4    0.0000
    164 C99       -9.2483    8.1159    2.1257 C.ar      4 RES4    0.0000
    165 H66       -8.4991    7.6574    1.7640 H         4 RES4    0.0000
    166 C100      -9.5300    9.4232    1.6713 C.ar      4 RES4    0.0000
    167 C101      -8.7184   10.0942    0.7272 C.ar      4 RES4    0.0000
    168 H67       -7.9713    9.6492    0.3436 H         4 RES4    0.0000
    169 C102      -9.0083   11.3832    0.3646 C.ar      4 RES4    0.0000
    170 H68       -8.4557   11.8281   -0.2656 H         4 RES4    0.0000
    171 C103     -10.1069   12.0495    0.9132 C.ar      4 RES4    0.0000
    172 H69      -10.2939   12.9457    0.6554 H         4 RES4    0.0000
    173 C104     -10.9153   11.4182    1.8180 C.ar      4 RES4    0.0000
    174 H70      -11.6669   11.8779    2.1739 H         4 RES4    0.0000
    175 C105     -10.6476   10.0897    2.2308 C.ar      4 RES4    0.0000
    176 C106     -11.4390    9.4225    3.1809 C.ar      4 RES4    0.0000
    177 H71      -12.1984    9.8691    3.5395 H         4 RES4    0.0000
    178 C107      -9.6377    6.0952    3.4823 C.ar      4 RES4    0.0000
    179 C108     -10.3203    4.9893    2.9583 C.ar      4 RES4    0.0000
    180 C109     -11.4635    5.1360    2.0951 C.ar      4 RES4    0.0000
    181 H72      -11.7785    6.0050    1.8766 H         4 RES4    0.0000
    182 C110     -12.0940    4.0498    1.5905 C.ar      4 RES4    0.0000
    183 H73      -12.8449    4.1643    1.0191 H         4 RES4    0.0000
    184 C111     -11.6446    2.7432    1.9063 C.ar      4 RES4    0.0000
    185 H74      -12.0992    1.9882    1.5503 H         4 RES4    0.0000
    186 C112     -10.5901    2.5661    2.7005 C.ar      4 RES4    0.0000
    187 H75      -10.3001    1.6827    2.8928 H         4 RES4    0.0000
    188 C113      -9.8870    3.6614    3.2687 C.ar      4 RES4    0.0000
    189 C114      -8.7948    3.4841    4.1102 C.ar      4 RES4    0.0000
    190 H76       -8.5020    2.6041    4.3103 H         4 RES4    0.0000
    191 C115      -8.1241    4.5616    4.6619 C.ar      4 RES4    0.0000
    192 C116      -7.0002    4.3986    5.5425 C.ar      4 RES4    0.0000
    193 H77       -6.6806    3.5236    5.7307 H         4 RES4    0.0000
    194 C117      -6.3905    5.4548    6.1060 C.ar      4 RES4    0.0000
    195 H78       -5.6554    5.3140    6.6892 H         4 RES4    0.0000
    196 C118      -6.8271    6.7600    5.8433 C.ar      4 RES4    0.0000
    197 H79       -6.3968    7.4967    6.2619 H         4 RES4    0.0000
    198 C119      -7.8768    6.9763    4.9827 C.ar      4 RES4    0.0000
    199 H80       -8.1544    7.8674    4.8011 H         4 RES4    0.0000
    200 C120      -8.5514    5.8976    4.3605 C.ar      4 RES4    0.0000
@<TRIPOS>BOND
     1    1    2 ar
     2    2    3 1
     3    4    2 ar
     4    5    4 1
     5    6    4 ar
     6    7    6 1
     7    8    6 ar
     8    9    8 1
     9   10    1 ar
    10   11   10 1
    11   12    1 1
    12   13   12 ar
    13   14   13 ar
    14   15   14 1
    15   16   14 ar
    16   17   16 ar
    17   18   17 1
    18   19   17 ar
    19   20   19 1
    20   21   19 ar
    21   22   21 1
    22   23   21 ar
    23   24   23 1
    24   25   16 ar
    25   26   12 ar
    26   27   26 1
    27   28   13 1
    28   29   28 ar
    29   30   29 ar
    30   31   30 1
    31   32   30 ar
    32   33   32 1
    33   34   32 ar
    34   35   34 1
    35   36   34 ar
    36   37   36 1
    37   38   29 ar
    38   39   38 ar
    39   40   39 1
    40   41   39 ar
    41   42   41 ar
    42   43   42 1
    43   44   42 ar
    44   45   44 1
    45   46   44 ar
    46   47   46 1
    47   48   46 ar
    48   49   48 1
    49   50   28 ar
    50   51   52 ar
    51   52   53 1
    52   54   52 ar
    53   55   54 1
    54   56   54 ar
    55   57   56 1
    56   58   56 ar
    57   59   58 1
    58   60   51 ar
    59   61   60 1
    60   62   51 1
    61   63   62 ar
    62   64   63 ar
    63   65   64 1
    64   66   64 ar
    65   67   66 ar
    66   68   67 1
    67   69   67 ar
    68   70   69 1
    69   71   69 ar
    70   72   71 1
    71   73   71 ar
    72   74   73 1
    73   75   66 ar
    74   76   62 ar
    75   77   76 1
    76   78   63 1
    77   79   78 ar
    78   80   79 ar
    79   81   80 1
    80   82   80 ar
    81   83   82 1
    82   84   82 ar
    83   85   84 1
    84   86   84 ar
    85   87   86 1
    86   88   79 ar
    87   89   88 ar
    88   90   89 1
    89   91   89 ar
    90   92   91 ar
    91   93   92 1
    92   94   92 ar
    93   95   94 1
    94   96   94 ar
    95   97   96 1
    96   98   96 ar
    97   99   98 1
    98  100   78 ar
    99  101  102 ar
   100  102  103 1
   101  104  102 ar
   102  105  104 1
   103  106  104 ar
   104  107  106 1
   105  108  106 ar
   106  109  108 1
   107  110  101 ar
   108  111  110 1
   109  112  101 1
   110  113  112 ar
   111  114  113 ar
   112  115  114 1
   113  116  114 ar
   114  117  116 ar
   115  118  117 1
   116  119  117 ar
   117  120  119 1
   118  121  119 ar
   119  122  121 1
   120  123  121 ar
   121  124  123 1
   122  125  116 ar
   123  126  112 ar
   124  127  126 1
   125  128  113 1
   126  129  128 ar
   127  130  129 ar
   128  131  130 1
   129  132  130 ar
   130  133  132 1
   131  134  132 ar
   132  135  134 1
   133  136  134 ar
   134  137  136 1
   135  138  129 ar
   136  139  138 ar
   137  140  139 1
   138  141  139 ar
   139  142  141 ar
   140  143  142 1
   141  144  142 ar
   142  145  144 1
   143  146  144 ar
   144  147  146 1
   145  148  146 ar
   146  149  148 1
   147  150  128 ar
   148  151  152 ar
   149  152  153 1
   150  154  152 ar
   151  155  154 1
   152  156  154 ar
   153  157  156 1
   154  158  156 ar
   155  159  158 1
   156  160  151 ar
   157  161  160 1
   158  162  151 1
   159  163  162 ar
   160  164  163 ar
   161  165  164 1
   162  166  164 ar
   163  167  166 ar
   164  168  167 1
   165  169  167 ar
   166  170  169 1
   167  171  169 ar
   168  172  171 1
   169  173  171 ar
   170  174  173 1
   171  175  166 ar
   172  176  162 ar
   173  177  176 1
   174  178  163 1
   175  179  178 ar
   176  180  179 ar
   177  181  180 1
   178  182  180 ar
   179  183  182 1
   180  184  182 ar
   181  185  184 1
   182  186  184 ar
   183  187  186 1
   184  188  179 ar
   185  189  188 ar
   186  190  189 1
   187  191  189 ar
   188  192  191 ar
   189  193  192 1
   190  194  192 ar
   191  195  194 1
   192  196  194 ar
   193  197  196 1
   194  198  196 ar
   195  199  198 1
   196  200  178 ar
   197    8   10 ar
   198   23   25 ar
   199   25   26 ar
   200   36   38 ar
   201   41   50 ar
   202   48   50 ar
   203   58   60 ar
   204   73   75 ar
   205   75   76 ar
   206   86   88 ar
   207   91  100 ar
   208   98  100 ar
   209  108  110 ar
   210  123  125 ar
   211  125  126 ar
   212  136  138 ar
   213  141  150 ar
   214  148  150 ar
   215  158  160 ar
   216  173  175 ar
   217  175  176 ar
   218  186  188 ar
   219  191  200 ar
   220  198  200 ar
@<TRIPOS>SUBSTRUCTURE
     1 RES1 1
     2 RES2 51
     3 RES3 101
     4 RES4 151

@<TRIPOS>CRYSIN
  11.2876   12.5281   29.9493 101.4370  99.7010  92.5050   2 1

