# MOL2 file generated by ConQuest
# Please check atom types

@<TRIPOS>MOLECULE
TAVPOX
    74    85     1
SMALL
NO_CHARGES
****
Generated from CSD

@<TRIPOS>ATOM
      1 C1        10.3109    3.2571    6.1917 C.2       1 RES1    0.0000
      2 C2        11.2337    3.0708    5.1667 C.2       1 RES1    0.0000
      3 C3        11.8390    1.7479    5.3426 C.2       1 RES1    0.0000
      4 C4        12.5216    1.1346    4.3514 C.2       1 RES1    0.0000
      5 H1        12.9287    0.2903    4.5101 H         1 RES1    0.0000
      6 C5         9.3328    4.3133    6.4100 C.2       1 RES1    0.0000
      7 C6         8.5024    4.9760    5.5139 C.2       1 RES1    0.0000
      8 C7         7.9497    6.1475    6.1858 C.2       1 RES1    0.0000
      9 C8         7.3800    7.1582    5.4999 C.2       1 RES1    0.0000
     10 H2         7.0177    7.9023    5.9675 H         1 RES1    0.0000
     11 C9        10.3584    2.0710    7.0666 C.ar      1 RES1    0.0000
     12 C10       11.3342    1.1891    6.5901 C.ar      1 RES1    0.0000
     13 C11       11.5637   -0.0218    7.2080 C.ar      1 RES1    0.0000
     14 H3        12.2454   -0.6025    6.8918 H         1 RES1    0.0000
     15 C12       10.7882   -0.3795    8.2927 C.ar      1 RES1    0.0000
     16 H4        10.9510   -1.2029    8.7382 H         1 RES1    0.0000
     17 C13        9.7751    0.4538    8.7341 C.ar      1 RES1    0.0000
     18 H5         9.2291    0.1813    9.4615 H         1 RES1    0.0000
     19 C14        9.5431    1.6796    8.1310 C.ar      1 RES1    0.0000
     20 H6         8.8419    2.2444    8.4367 H         1 RES1    0.0000
     21 C15       12.6331    1.7499    3.0664 C.ar      1 RES1    0.0000
     22 C16       13.2106    1.0830    2.0059 C.ar      1 RES1    0.0000
     23 H7        13.5603    0.2101    2.1392 H         1 RES1    0.0000
     24 C17       13.2927    1.6706    0.7296 C.ar      1 RES1    0.0000
     25 H8        13.6721    1.1811    0.0087 H         1 RES1    0.0000
     26 C18       12.8371    2.9261    0.5201 C.ar      1 RES1    0.0000
     27 H9        12.8864    3.3066   -0.3496 H         1 RES1    0.0000
     28 C19       12.2831    3.6851    1.5921 C.ar      1 RES1    0.0000
     29 C20       11.8972    5.0060    1.4107 C.ar      1 RES1    0.0000
     30 H10       11.9012    5.3756    0.5354 H         1 RES1    0.0000
     31 C21       11.5052    5.7987    2.4810 C.ar      1 RES1    0.0000
     32 C22       11.2598    7.1899    2.2985 C.ar      1 RES1    0.0000
     33 H11       11.3026    7.5605    1.4247 H         1 RES1    0.0000
     34 C23       10.9665    7.9905    3.3485 C.ar      1 RES1    0.0000
     35 H12       10.7819    8.9121    3.2077 H         1 RES1    0.0000
     36 C24       10.9367    7.4535    4.6466 C.ar      1 RES1    0.0000
     37 H13       10.7653    8.0252    5.3841 H         1 RES1    0.0000
     38 C25       11.1509    6.1247    4.8636 C.ar      1 RES1    0.0000
     39 H14       11.1466    5.7908    5.7534 H         1 RES1    0.0000
     40 C26       11.3813    5.2299    3.7844 C.ar      1 RES1    0.0000
     41 C27       11.5759    3.8248    3.9594 C.ar      1 RES1    0.0000
     42 C28       12.1474    3.0886    2.8872 C.ar      1 RES1    0.0000
     43 C29        9.2302    4.9931    7.7147 C.ar      1 RES1    0.0000
     44 C30        8.3535    6.0890    7.5865 C.ar      1 RES1    0.0000
     45 C31        8.1212    6.9372    8.6580 C.ar      1 RES1    0.0000
     46 H15        7.5245    7.6705    8.5744 H         1 RES1    0.0000
     47 C32        8.7775    6.6915    9.8524 C.ar      1 RES1    0.0000
     48 H16        8.6235    7.2612   10.5978 H         1 RES1    0.0000
     49 C33        9.6547    5.6273    9.9768 C.ar      1 RES1    0.0000
     50 H17       10.0949    5.4786   10.8053 H         1 RES1    0.0000
     51 C34        9.9016    4.7781    8.9122 C.ar      1 RES1    0.0000
     52 H18       10.5187    4.0607    8.9983 H         1 RES1    0.0000
     53 C35        7.3190    7.1156    4.0689 C.ar      1 RES1    0.0000
     54 C36        6.8452    8.1848    3.3412 C.ar      1 RES1    0.0000
     55 H19        6.5244    8.9527    3.7999 H         1 RES1    0.0000
     56 C37        6.8268    8.1659    1.9432 C.ar      1 RES1    0.0000
     57 H20        6.5041    8.9200    1.4640 H         1 RES1    0.0000
     58 C38        7.2698    7.0690    1.2656 C.ar      1 RES1    0.0000
     59 H21        7.2631    7.0720    0.3147 H         1 RES1    0.0000
     60 C39        7.7443    5.9186    1.9624 C.ar      1 RES1    0.0000
     61 C40        8.1986    4.7900    1.2837 C.ar      1 RES1    0.0000
     62 H22        8.2920    4.8227    0.3387 H         1 RES1    0.0000
     63 C41        8.5202    3.6148    1.9594 C.ar      1 RES1    0.0000
     64 C42        8.8598    2.4118    1.2658 C.ar      1 RES1    0.0000
     65 H23        8.9875    2.4346    0.3256 H         1 RES1    0.0000
     66 C43        9.0030    1.2416    1.9305 C.ar      1 RES1    0.0000
     67 H24        9.2415    0.4548    1.4553 H         1 RES1    0.0000
     68 C44        8.7995    1.1871    3.3185 C.ar      1 RES1    0.0000
     69 H25        8.8382    0.3508    3.7671 H         1 RES1    0.0000
     70 C45        8.5465    2.3246    4.0309 C.ar      1 RES1    0.0000
     71 H26        8.4317    2.2711    4.9711 H         1 RES1    0.0000
     72 C46        8.4539    3.5850    3.3867 C.ar      1 RES1    0.0000
     73 C47        8.2406    4.8048    4.0966 C.ar      1 RES1    0.0000
     74 C48        7.7696    5.9325    3.3871 C.ar      1 RES1    0.0000
@<TRIPOS>BOND
     1    1    2 2
     2    2    3 1
     3    3    4 2
     4    4    5 1
     5    6    1 1
     6    7    6 2
     7    8    7 1
     8    9    8 2
     9   10    9 1
    10   11    1 1
    11   12    3 1
    12   13   12 ar
    13   14   13 1
    14   15   13 ar
    15   16   15 1
    16   17   15 ar
    17   18   17 1
    18   19   11 ar
    19   20   19 1
    20   21    4 1
    21   22   21 ar
    22   23   22 1
    23   24   22 ar
    24   25   24 1
    25   26   24 ar
    26   27   26 1
    27   28   26 ar
    28   29   28 ar
    29   30   29 1
    30   31   29 ar
    31   32   31 ar
    32   33   32 1
    33   34   32 ar
    34   35   34 1
    35   36   34 ar
    36   37   36 1
    37   38   36 ar
    38   39   38 1
    39   40   31 ar
    40   41    2 1
    41   42   21 ar
    42   43    6 1
    43   44    8 1
    44   45   44 ar
    45   46   45 1
    46   47   45 ar
    47   48   47 1
    48   49   47 ar
    49   50   49 1
    50   51   43 ar
    51   52   51 1
    52   53    9 1
    53   54   53 ar
    54   55   54 1
    55   56   54 ar
    56   57   56 1
    57   58   56 ar
    58   59   58 1
    59   60   58 ar
    60   61   60 ar
    61   62   61 1
    62   63   61 ar
    63   64   63 ar
    64   65   64 1
    65   66   64 ar
    66   67   66 1
    67   68   66 ar
    68   69   68 1
    69   70   68 ar
    70   71   70 1
    71   72   63 ar
    72   73    7 1
    73   74   53 ar
    74   11   12 ar
    75   17   19 ar
    76   28   42 ar
    77   38   40 ar
    78   40   41 ar
    79   41   42 ar
    80   43   44 ar
    81   49   51 ar
    82   60   74 ar
    83   70   72 ar
    84   72   73 ar
    85   73   74 ar
@<TRIPOS>SUBSTRUCTURE
     1 RES1 1

@<TRIPOS>CRYSIN
  13.7249    9.9089   21.9189  90.0000  94.5090  90.0000  14 1

