# MOL2 file generated by ConQuest
# Please check atom types

@<TRIPOS>MOLECULE
TAYFUU
   108   122     2
SMALL
NO_CHARGES
****
Generated from CSD

@<TRIPOS>ATOM
      1 C1         6.8440    7.6937    8.6086 C.ar      1 RES1    0.0000
      2 C2         7.1573    7.2018    7.3593 C.ar      1 RES1    0.0000
      3 C3         6.2505    7.3690    6.2909 C.ar      1 RES1    0.0000
      4 C4         5.0501    8.0404    6.4847 C.ar      1 RES1    0.0000
      5 C5         4.0804    8.2085    5.3840 C.ar      1 RES1    0.0000
      6 C6         2.9218    8.8810    5.6554 C.ar      1 RES1    0.0000
      7 C7         2.6661    9.3621    6.9791 C.ar      1 RES1    0.0000
      8 C8         1.7234    9.2658    4.8746 C.2       1 RES1    0.0000
      9 C9         0.8807    9.9138    5.7265 C.2       1 RES1    0.0000
     10 C10        1.4496    9.9859    7.0674 C.ar      1 RES1    0.0000
     11 C11        1.0146   10.5087    8.3200 C.ar      1 RES1    0.0000
     12 C12       -0.1983   11.1820    8.4837 C.ar      1 RES1    0.0000
     13 C13       -0.6013   11.6585    9.6900 C.ar      1 RES1    0.0000
     14 C14        0.1946   11.4729   10.7907 C.ar      1 RES1    0.0000
     15 C15        1.3950   10.8390   10.7164 C.ar      1 RES1    0.0000
     16 C16        1.8581   10.3269    9.4595 C.ar      1 RES1    0.0000
     17 C17        3.1358    9.6684    9.3292 C.ar      1 RES1    0.0000
     18 C18        4.0645    9.4559   10.3771 C.ar      1 RES1    0.0000
     19 C19        5.2448    8.8410   10.1628 C.ar      1 RES1    0.0000
     20 C20        5.6442    8.3466    8.8703 C.ar      1 RES1    0.0000
     21 C21        4.7481    8.5321    7.7987 C.ar      1 RES1    0.0000
     22 C22        3.5301    9.1891    8.0572 C.ar      1 RES1    0.0000
     23 C23        4.3686    7.6312    4.0453 C.ar      1 RES1    0.0000
     24 C24        5.4058    8.1219    3.2440 C.ar      1 RES1    0.0000
     25 C25        5.5836    7.6634    1.9656 C.ar      1 RES1    0.0000
     26 C26        4.7344    6.7064    1.4475 C.ar      1 RES1    0.0000
     27 C27        3.7363    6.1834    2.2327 C.ar      1 RES1    0.0000
     28 C28        3.5562    6.6356    3.5165 C.ar      1 RES1    0.0000
     29 C29        1.4333    8.9939    3.4551 C.ar      1 RES1    0.0000
     30 C30        2.2028    9.5253    2.4287 C.ar      1 RES1    0.0000
     31 C31        1.9093    9.2458    1.1072 C.ar      1 RES1    0.0000
     32 C32        0.8453    8.4307    0.7981 C.ar      1 RES1    0.0000
     33 C33        0.0806    7.9019    1.7975 C.ar      1 RES1    0.0000
     34 C34        0.3726    8.1768    3.1126 C.ar      1 RES1    0.0000
     35 H1         7.4682    7.5822    9.3152 H         1 RES1    0.0000
     36 H2         7.9821    6.7532    7.2182 H         1 RES1    0.0000
     37 H3         6.4628    7.0189    5.4325 H         1 RES1    0.0000
     38 H4         0.0357   10.2708    5.4799 H         1 RES1    0.0000
     39 H5        -0.7602   11.3101    7.7276 H         1 RES1    0.0000
     40 H6        -1.4290   12.1188    9.7707 H         1 RES1    0.0000
     41 H7        -0.1027   11.7991   11.6318 H         1 RES1    0.0000
     42 H8         1.9272   10.7361   11.4962 H         1 RES1    0.0000
     43 H9         3.8516    9.7535   11.2527 H         1 RES1    0.0000
     44 H10        5.8394    8.7269   10.8962 H         1 RES1    0.0000
     45 H11        5.9964    8.7799    3.5919 H         1 RES1    0.0000
     46 H12        6.2927    8.0059    1.4335 H         1 RES1    0.0000
     47 H13        4.8405    6.4095    0.5514 H         1 RES1    0.0000
     48 H14        3.1676    5.5076    1.8859 H         1 RES1    0.0000
     49 H15        2.9198    6.2889    3.9592 H         1 RES1    0.0000
     50 H16        2.9394   10.0860    2.6376 H         1 RES1    0.0000
     51 H17        2.4437    9.6151    0.4125 H         1 RES1    0.0000
     52 H18        0.6423    8.2373   -0.1099 H         1 RES1    0.0000
     53 H19       -0.6563    7.3440    1.5843 H         1 RES1    0.0000
     54 H20       -0.1634    7.7955    3.7987 H         1 RES1    0.0000
     55 C35        8.6906   10.1151    2.4782 C.ar      2 RES2    0.0000
     56 C36        7.6707   10.8464    1.9505 C.ar      2 RES2    0.0000
     57 C37        6.7949   11.5582    2.7841 C.ar      2 RES2    0.0000
     58 C38        6.9447   11.5440    4.1616 C.ar      2 RES2    0.0000
     59 C39        6.0280   12.2792    5.0555 C.ar      2 RES2    0.0000
     60 C40        6.2448   12.2194    6.4072 C.ar      2 RES2    0.0000
     61 C41        7.3193   11.4059    6.9037 C.ar      2 RES2    0.0000
     62 C42        5.5789   12.7631    7.6124 C.2       2 RES2    0.0000
     63 C43        6.2235   12.2336    8.6959 C.2       2 RES2    0.0000
     64 C44        7.3363   11.4007    8.2769 C.ar      2 RES2    0.0000
     65 C45        8.3530   10.6612    8.9457 C.ar      2 RES2    0.0000
     66 C46        8.4538   10.6284   10.3502 C.ar      2 RES2    0.0000
     67 C47        9.4159    9.8811   10.9716 C.ar      2 RES2    0.0000
     68 C48       10.3094    9.1337   10.2102 C.ar      2 RES2    0.0000
     69 C49       10.2505    9.1373    8.8542 C.ar      2 RES2    0.0000
     70 C50        9.2869    9.9149    8.1509 C.ar      2 RES2    0.0000
     71 C51        9.2142    9.9326    6.7141 C.ar      2 RES2    0.0000
     72 C52       10.0786    9.2246    5.8256 C.ar      2 RES2    0.0000
     73 C53        9.9127    9.2820    4.4826 C.ar      2 RES2    0.0000
     74 C54        8.8940   10.0370    3.8622 C.ar      2 RES2    0.0000
     75 C55        8.0135   10.7672    4.7044 C.ar      2 RES2    0.0000
     76 C56        8.2042   10.6896    6.0981 C.ar      2 RES2    0.0000
     77 C57        4.8813   13.0284    4.4912 C.ar      2 RES2    0.0000
     78 C58        3.5836   12.6097    4.7658 C.ar      2 RES2    0.0000
     79 C59        2.5093   13.3404    4.3512 C.ar      2 RES2    0.0000
     80 C60        2.6886   14.5105    3.6500 C.ar      2 RES2    0.0000
     81 C61        3.9682   14.9426    3.3614 C.ar      2 RES2    0.0000
     82 C62        5.0486   14.2038    3.7706 C.ar      2 RES2    0.0000
     83 C63        4.4607   13.7057    7.6932 C.ar      2 RES2    0.0000
     84 C64        3.3367   13.3933    8.4417 C.ar      2 RES2    0.0000
     85 C65        2.2821   14.2526    8.5246 C.ar      2 RES2    0.0000
     86 C66        2.3165   15.4606    7.8946 C.ar      2 RES2    0.0000
     87 C67        3.4333   15.8063    7.1525 C.ar      2 RES2    0.0000
     88 C68        4.4912   14.9366    7.0609 C.ar      2 RES2    0.0000
     89 H21        9.2759    9.6471    1.8945 H         2 RES2    0.0000
     90 H22        7.5512   10.8773    1.0081 H         2 RES2    0.0000
     91 H23        6.0854   12.0585    2.3974 H         2 RES2    0.0000
     92 H24        5.9780   12.3899    9.5995 H         2 RES2    0.0000
     93 H25        7.8431   11.1336   10.8736 H         2 RES2    0.0000
     94 H26        9.4740    9.8739   11.9205 H         2 RES2    0.0000
     95 H27       10.9725    8.6117   10.6474 H         2 RES2    0.0000
     96 H28       10.8665    8.6078    8.3620 H         2 RES2    0.0000
     97 H29       10.7859    8.7005    6.1832 H         2 RES2    0.0000
     98 H30       10.5112    8.7925    3.9311 H         2 RES2    0.0000
     99 H31        3.4432   11.8029    5.2494 H         2 RES2    0.0000
    100 H32        1.6296   13.0396    4.5493 H         2 RES2    0.0000
    101 H33        1.9383   15.0191    3.3668 H         2 RES2    0.0000
    102 H34        4.0994   15.7494    2.8778 H         2 RES2    0.0000
    103 H35        5.9252   14.5018    3.5596 H         2 RES2    0.0000
    104 H36        3.3007   12.5647    8.9059 H         2 RES2    0.0000
    105 H37        1.5130   14.0075    9.0265 H         2 RES2    0.0000
    106 H38        1.5824   16.0592    7.9646 H         2 RES2    0.0000
    107 H39        3.4666   16.6442    6.7066 H         2 RES2    0.0000
    108 H40        5.2572   15.1855    6.5569 H         2 RES2    0.0000
@<TRIPOS>BOND
     1    1    2 ar
     2    2    3 ar
     3    3    4 ar
     4    4    5 ar
     5    5    6 ar
     6    6    7 ar
     7    7   10 ar
     8    8    6 1
     9    9    8 2
    10   10    9 1
    11   11   10 ar
    12   12   11 ar
    13   13   12 ar
    14   14   13 ar
    15   15   14 ar
    16   16   11 ar
    17   17   16 ar
    18   18   17 ar
    19   19   18 ar
    20   20    1 ar
    21   21    4 ar
    22   22    7 ar
    23   23    5 1
    24   24   23 ar
    25   25   24 ar
    26   26   25 ar
    27   27   26 ar
    28   28   23 ar
    29   29    8 1
    30   30   29 ar
    31   31   30 ar
    32   32   31 ar
    33   33   32 ar
    34   34   29 ar
    35   35    1 1
    36   36    2 1
    37   37    3 1
    38   38    9 1
    39   39   12 1
    40   40   13 1
    41   41   14 1
    42   42   15 1
    43   43   18 1
    44   44   19 1
    45   45   24 1
    46   46   25 1
    47   47   26 1
    48   48   27 1
    49   49   28 1
    50   50   30 1
    51   51   31 1
    52   52   32 1
    53   53   33 1
    54   54   34 1
    55   55   56 ar
    56   56   57 ar
    57   57   58 ar
    58   58   59 ar
    59   59   60 ar
    60   60   61 ar
    61   61   64 ar
    62   62   60 1
    63   63   62 2
    64   64   63 1
    65   65   64 ar
    66   66   65 ar
    67   67   66 ar
    68   68   67 ar
    69   69   68 ar
    70   70   65 ar
    71   71   70 ar
    72   72   71 ar
    73   73   72 ar
    74   74   55 ar
    75   75   58 ar
    76   76   61 ar
    77   77   59 1
    78   78   77 ar
    79   79   78 ar
    80   80   79 ar
    81   81   80 ar
    82   82   77 ar
    83   83   62 1
    84   84   83 ar
    85   85   84 ar
    86   86   85 ar
    87   87   86 ar
    88   88   83 ar
    89   89   55 1
    90   90   56 1
    91   91   57 1
    92   92   63 1
    93   93   66 1
    94   94   67 1
    95   95   68 1
    96   96   69 1
    97   97   72 1
    98   98   73 1
    99   99   78 1
   100  100   79 1
   101  101   80 1
   102  102   81 1
   103  103   82 1
   104  104   84 1
   105  105   85 1
   106  106   86 1
   107  107   87 1
   108  108   88 1
   109   15   16 ar
   110   17   22 ar
   111   19   20 ar
   112   20   21 ar
   113   21   22 ar
   114   27   28 ar
   115   33   34 ar
   116   69   70 ar
   117   71   76 ar
   118   73   74 ar
   119   74   75 ar
   120   75   76 ar
   121   81   82 ar
   122   87   88 ar
@<TRIPOS>SUBSTRUCTURE
     1 RES1 1
     2 RES2 55

@<TRIPOS>CRYSIN
  12.9980   16.1490   12.8200  98.2200 119.4500  99.7000   2 1

