# MOL2 file generated by ConQuest
# Please check atom types

@<TRIPOS>MOLECULE
TAYGIJ
    49    54     1
SMALL
NO_CHARGES
****
Generated from CSD

@<TRIPOS>ATOM
      1 C1         7.4762    1.3056    2.5825 C.ar      1 RES1    0.0000
      2 C2         8.6906    1.4656    3.1534 C.ar      1 RES1    0.0000
      3 C3         9.1819    2.7504    3.4133 C.ar      1 RES1    0.0000
      4 C4         8.4569    3.8517    3.0788 C.ar      1 RES1    0.0000
      5 C5         7.1915    3.7272    2.4481 C.ar      1 RES1    0.0000
      6 C6         6.4041    4.8501    2.0588 C.ar      1 RES1    0.0000
      7 C7         5.1541    4.6720    1.4820 C.ar      1 RES1    0.0000
      8 C8         4.3811    5.8612    1.0132 C.ar      1 RES1    0.0000
      9 C9         4.9579    6.7725    0.1275 C.ar      1 RES1    0.0000
     10 C10        4.2639    7.8968   -0.2746 C.ar      1 RES1    0.0000
     11 C11        2.9991    8.1265    0.1991 C.ar      1 RES1    0.0000
     12 C12        2.4025    7.2227    1.0495 C.ar      1 RES1    0.0000
     13 C13        3.0766    6.0796    1.4516 C.ar      1 RES1    0.0000
     14 C14        2.3912    5.0033    2.2480 C.3       1 RES1    0.0000
     15 C15        2.1544    3.8450    1.3094 C.ar      1 RES1    0.0000
     16 C16        0.8828    3.5522    0.8582 C.ar      1 RES1    0.0000
     17 C17        0.6563    2.5305   -0.0441 C.ar      1 RES1    0.0000
     18 C18        1.7225    1.7996   -0.5198 C.ar      1 RES1    0.0000
     19 C19        2.9969    2.0887   -0.1020 C.ar      1 RES1    0.0000
     20 C20        3.2460    3.1060    0.8268 C.ar      1 RES1    0.0000
     21 C21        4.6253    3.3516    1.3251 C.ar      1 RES1    0.0000
     22 C22        5.4048    2.2817    1.6713 C.ar      1 RES1    0.0000
     23 C23        6.6877    2.4233    2.2167 C.ar      1 RES1    0.0000
     24 C24        6.9223    6.2278    2.3265 C.ar      1 RES1    0.0000
     25 C25        7.9841    6.7567    1.6144 C.ar      1 RES1    0.0000
     26 C26        8.4051    8.0533    1.8351 C.ar      1 RES1    0.0000
     27 C27        7.7862    8.8340    2.7797 C.ar      1 RES1    0.0000
     28 C28        6.7542    8.3057    3.5182 C.ar      1 RES1    0.0000
     29 C29        6.3235    7.0154    3.2995 C.ar      1 RES1    0.0000
     30 H1         7.1455    0.4298    2.4246 H         1 RES1    0.0000
     31 H2         9.2120    0.7035    3.3799 H         1 RES1    0.0000
     32 H3        10.0311    2.8545    3.8262 H         1 RES1    0.0000
     33 H4         8.8027    4.7163    3.2691 H         1 RES1    0.0000
     34 H5         5.8356    6.6187   -0.2030 H         1 RES1    0.0000
     35 H6         4.6642    8.5114   -0.8788 H         1 RES1    0.0000
     36 H7         2.5308    8.9123   -0.0608 H         1 RES1    0.0000
     37 H8         1.5214    7.3839    1.3643 H         1 RES1    0.0000
     38 H9         0.1482    4.0649    1.1740 H         1 RES1    0.0000
     39 H10       -0.2278    2.3341   -0.3335 H         1 RES1    0.0000
     40 H11        1.5756    1.0948   -1.1387 H         1 RES1    0.0000
     41 H12        3.7261    1.5882   -0.4512 H         1 RES1    0.0000
     42 H13        5.0613    1.4051    1.5379 H         1 RES1    0.0000
     43 H14        8.4290    6.2216    0.9661 H         1 RES1    0.0000
     44 H15        9.1278    8.4073    1.3300 H         1 RES1    0.0000
     45 H16        8.0684    9.7295    2.9219 H         1 RES1    0.0000
     46 H17        6.3340    8.8352    4.1862 H         1 RES1    0.0000
     47 H18        5.6108    6.6611    3.8183 H         1 RES1    0.0000
     48 H19        2.9445    4.7298    2.9709 H         1 RES1    0.0000
     49 H20        1.5645    5.3235    2.5864 H         1 RES1    0.0000
@<TRIPOS>BOND
     1    1    2 ar
     2    2    3 ar
     3    3    4 ar
     4    4    5 ar
     5    5    6 ar
     6    6    7 ar
     7    7    8 1
     8    8    9 ar
     9    9   10 ar
    10   10   11 ar
    11   11   12 ar
    12   12   13 ar
    13   13    8 ar
    14   14   13 1
    15   15   14 1
    16   16   15 ar
    17   17   16 ar
    18   18   17 ar
    19   19   18 ar
    20   20   15 ar
    21   21    7 ar
    22   22   21 ar
    23   23    1 ar
    24   24    6 1
    25   25   24 ar
    26   26   25 ar
    27   27   26 ar
    28   28   27 ar
    29   29   24 ar
    30   30    1 1
    31   31    2 1
    32   32    3 1
    33   33    4 1
    34   34    9 1
    35   35   10 1
    36   36   11 1
    37   37   12 1
    38   38   16 1
    39   39   17 1
    40   40   18 1
    41   41   19 1
    42   42   22 1
    43   43   25 1
    44   44   26 1
    45   45   27 1
    46   46   28 1
    47   47   29 1
    48   48   14 1
    49   49   14 1
    50    5   23 ar
    51   19   20 ar
    52   20   21 1
    53   22   23 ar
    54   28   29 ar
@<TRIPOS>SUBSTRUCTURE
     1 RES1 1

@<TRIPOS>CRYSIN
  10.4730   19.2740    9.9670  90.0000 100.2400  90.0000  14 1

