# MOL2 file generated by ConQuest
# Please check atom types

@<TRIPOS>MOLECULE
TAYSUJ
   272   304     2
SMALL
NO_CHARGES
****
Generated from CSD

@<TRIPOS>ATOM
      1 C1         4.0906   -0.7234   22.5586 C.2       1 RES1    0.0000
      2 C2         3.7378   -2.1404   27.2321 C.2       1 RES1    0.0000
      3 C3        -2.2136    3.8959   35.1875 C.2       2 RES2    0.0000
      4 C4         2.6858    1.2409   21.7548 C.ar      1 RES1    0.0000
      5 C5        -2.5950    2.4582   39.8291 C.2       2 RES2    0.0000
      6 C6         4.5980   -3.2920   26.9724 C.2       1 RES1    0.0000
      7 C7        -2.4295    3.1454   37.4513 C.2       2 RES2    0.0000
      8 C8        -4.1231    3.7216   41.3630 C.ar      2 RES2    0.0000
      9 C9        -1.2199    0.5920   40.6282 C.2       2 RES2    0.0000
     10 C10        5.1735   -3.4222   25.6938 C.2       1 RES1    0.0000
     11 C11        2.4282   -0.1091   26.5050 C.ar      1 RES1    0.0000
     12 C12        3.8979   -1.4662   24.8982 C.2       1 RES1    0.0000
     13 C13       -1.3387    2.8069   34.8812 C.2       2 RES2    0.0000
     14 C14        4.8040   -4.3156   28.0346 C.ar      1 RES1    0.0000
     15 C15        5.6125   -1.8986   21.0044 C.2       1 RES1    0.0000
     16 C16       -3.1415    2.6058   41.1244 C.2       2 RES2    0.0000
     17 C17       -1.2056   -0.9987   47.8892 C.ar      2 RES2    0.0000
     18 C18       -1.0020    1.9097   35.9134 C.2       2 RES2    0.0000
     19 C19        0.3719    2.3587   33.1044 C.ar      2 RES2    0.0000
     20 H1         1.0688    2.5025   33.7345 H         2 RES2    0.0000
     21 C20        3.5654   -0.5688   23.8788 C.2       1 RES1    0.0000
     22 H2         2.9801    0.1551   24.0661 H         1 RES1    0.0000
     23 C21        6.0994   -4.5612   25.4109 C.ar      1 RES1    0.0000
     24 C22       -0.9633    2.5023   33.4920 C.ar      2 RES2    0.0000
     25 C23        3.2986   -1.8870   28.6613 C.ar      1 RES1    0.0000
     26 C24        3.3394   -1.2885   26.2349 C.2       1 RES1    0.0000
     27 C25       -1.0387   -0.4042   45.4418 C.ar      2 RES2    0.0000
     28 C26        1.9926   -1.7018   29.0509 C.ar      1 RES1    0.0000
     29 H3         1.2977   -1.8041   28.4099 H         1 RES1    0.0000
     30 C27        1.1912    0.7295   36.1127 C.ar      2 RES2    0.0000
     31 H4         1.5023    1.4637   36.6304 H         2 RES2    0.0000
     32 C28       -1.6636    1.3724   39.5699 C.2       2 RES2    0.0000
     33 C29        1.9839    2.0258   27.4734 C.ar      1 RES1    0.0000
     34 H5         2.2802    2.7607   27.9973 H         1 RES1    0.0000
     35 C30       -1.4895    2.0889   37.1979 C.2       2 RES2    0.0000
     36 C31        5.0611   -1.7180   22.2994 C.2       1 RES1    0.0000
     37 C32        4.8282   -2.5176   24.6347 C.2       1 RES1    0.0000
     38 C33       -3.7613    5.1491   36.7117 C.ar      2 RES2    0.0000
     39 C34        4.1515    0.4695   17.7917 C.ar      1 RES1    0.0000
     40 C35       -0.5401   -0.3235   34.8462 C.ar      2 RES2    0.0000
     41 H6        -1.4169   -0.3127   34.4818 H         2 RES2    0.0000
     42 C36        4.3258   -1.7066   29.6083 C.ar      1 RES1    0.0000
     43 H7         5.2344   -1.8308   29.3635 H         1 RES1    0.0000
     44 C37        5.3123   -2.6620   23.3713 C.2       1 RES1    0.0000
     45 H8         5.8454   -3.4251   23.1786 H         1 RES1    0.0000
     46 C38        1.8018    4.2489   18.0626 C.ar      1 RES1    0.0000
     47 H9         2.0136    5.0135   18.5857 H         1 RES1    0.0000
     48 C39        2.8578    0.9582   27.2212 C.ar      1 RES1    0.0000
     49 H10        3.7480    0.9840   27.5497 H         1 RES1    0.0000
     50 C40       -2.7808    4.0626   36.4163 C.2       2 RES2    0.0000
     51 C41        1.2905   -1.2266   45.6150 C.ar      2 RES2    0.0000
     52 H11        1.5142   -0.4342   46.0887 H         2 RES2    0.0000
     53 C42        7.4415   -4.2653   25.1462 C.ar      1 RES1    0.0000
     54 H12        7.7299   -3.3605   25.1559 H         1 RES1    0.0000
     55 C43       -2.0831    1.1910   47.0073 C.ar      2 RES2    0.0000
     56 C44       -0.2245   -0.5163   40.3775 C.ar      2 RES2    0.0000
     57 C45        3.7107    0.1992   21.4936 C.2       1 RES1    0.0000
     58 C46        5.6828   -5.8939   25.4541 C.ar      1 RES1    0.0000
     59 H13        4.7834   -6.1135   25.6658 H         1 RES1    0.0000
     60 C47        6.0965   -4.6606   28.4321 C.ar      1 RES1    0.0000
     61 H14        6.8517   -4.2226   28.0557 H         1 RES1    0.0000
     62 C48        4.3021    0.0177   20.2575 C.2       1 RES1    0.0000
     63 C49        2.6628   -1.1871   31.2952 C.ar      1 RES1    0.0000
     64 H15        2.4423   -0.9590   32.1893 H         1 RES1    0.0000
     65 C50       -1.1166    1.2565   38.2761 C.2       2 RES2    0.0000
     66 H16       -0.4637    0.5841   38.1211 H         2 RES2    0.0000
     67 C51       -0.0992    0.7587   35.6445 C.ar      2 RES2    0.0000
     68 C52        6.6405   -2.9391   20.7417 C.ar      1 RES1    0.0000
     69 C53       -2.4487    4.9460   34.1230 C.ar      2 RES2    0.0000
     70 C54       -0.3090    1.8143   30.8461 C.ar      2 RES2    0.0000
     71 H17       -0.0841    1.5615   29.9590 H         2 RES2    0.0000
     72 C55       -5.0720    4.8797   37.0352 C.ar      2 RES2    0.0000
     73 H18       -5.3628    3.9777   37.0936 H         2 RES2    0.0000
     74 C56        1.6702   -1.3707   30.3478 C.ar      1 RES1    0.0000
     75 H19        0.7589   -1.2675   30.5934 H         1 RES1    0.0000
     76 C57       -1.9327    2.3259   32.5061 C.ar      2 RES2    0.0000
     77 H20       -2.8456    2.4372   32.7459 H         2 RES2    0.0000
     78 C58       -2.5169    1.3236   44.6108 C.ar      2 RES2    0.0000
     79 C59       -3.7024    5.3093   33.6855 C.ar      2 RES2    0.0000
     80 H21       -4.4569    4.8551   34.0420 H         2 RES2    0.0000
     81 C60        3.7094   -4.9888   28.5803 C.ar      1 RES1    0.0000
     82 H22        2.8311   -4.7660   28.2931 H         1 RES1    0.0000
     83 C61       -5.5255    5.0492   46.4261 C.ar      2 RES2    0.0000
     84 H23       -6.1546    5.7539   46.5285 H         2 RES2    0.0000
     85 C62        2.0143   -3.2711   44.5676 C.ar      2 RES2    0.0000
     86 H24        2.7044   -3.8845   44.3410 H         2 RES2    0.0000
     87 C63        1.5937   -1.3921   35.0980 C.ar      2 RES2    0.0000
     88 H25        2.1724   -2.1234   34.9217 H         2 RES2    0.0000
     89 C64       -2.7073    1.8096   42.1575 C.2       2 RES2    0.0000
     90 C65        0.7077    2.0209   26.9744 C.ar      1 RES1    0.0000
     91 H26        0.1277    2.7568   27.1332 H         1 RES1    0.0000
     92 C66       -2.9882    3.2800   38.7750 C.2       2 RES2    0.0000
     93 H27       -3.6436    3.9490   38.9307 H         2 RES2    0.0000
     94 C67       -5.9857    5.9160   37.2792 C.ar      2 RES2    0.0000
     95 H28       -6.8862    5.7068   37.4984 H         2 RES2    0.0000
     96 C68       -1.3407    5.5793   33.5816 C.ar      2 RES2    0.0000
     97 H29       -0.4637    5.3462   33.8591 H         2 RES2    0.0000
     98 C69       -4.2531    7.5120   36.9056 C.ar      2 RES2    0.0000
     99 H30       -3.9609    8.4153   36.8600 H         2 RES2    0.0000
    100 C70       -3.9143    6.3152   32.7451 C.ar      2 RES2    0.0000
    101 H31       -4.7925    6.5504   32.4695 H         2 RES2    0.0000
    102 C71        0.6769    2.0031   31.7981 C.ar      2 RES2    0.0000
    103 H32        1.5870    1.8868   31.5509 H         2 RES2    0.0000
    104 C72        7.9070   -6.5972   24.9181 C.ar      1 RES1    0.0000
    105 H33        8.5291   -7.2992   24.7628 H         1 RES1    0.0000
    106 C73       -1.5474    6.5955   32.5914 C.ar      2 RES2    0.0000
    107 H34       -0.8034    7.0236   32.1854 H         2 RES2    0.0000
    108 C74       -3.3644    6.4910   36.6787 C.ar      2 RES2    0.0000
    109 H35       -2.4556    6.6998   36.4942 H         2 RES2    0.0000
    110 C75       -1.1479   -1.4326   50.2892 C.ar      2 RES2    0.0000
    111 C76       -0.5470   -1.7781   40.0751 C.ar      2 RES2    0.0000
    112 H36       -1.4651   -1.9482   39.9038 H         2 RES2    0.0000
    113 C77        5.1484   -6.3011   29.9609 C.ar      1 RES1    0.0000
    114 H37        5.2668   -6.9543   30.6402 H         1 RES1    0.0000
    115 C78        0.2900    0.9739   26.2675 C.ar      1 RES1    0.0000
    116 H38       -0.6067    0.9657   25.9538 H         1 RES1    0.0000
    117 C79        3.9916   -1.3440   30.9083 C.ar      1 RES1    0.0000
    118 H39        4.6822   -1.1995   31.5432 H         1 RES1    0.0000
    119 C80       -2.8272    6.9476   32.2329 C.ar      2 RES2    0.0000
    120 H40       -2.9541    7.6528   31.6093 H         2 RES2    0.0000
    121 C81       -1.6329    2.0010   31.2150 C.ar      2 RES2    0.0000
    122 H41       -2.3266    1.9042   30.5740 H         2 RES2    0.0000
    123 C82        3.8853   -5.9567   29.5110 C.ar      1 RES1    0.0000
    124 H42        3.1266   -6.4083   29.8617 H         1 RES1    0.0000
    125 C83        5.2881   -1.0233   16.2227 C.ar      1 RES1    0.0000
    126 C84        4.8934   -2.1829   13.4261 C.ar      1 RES1    0.0000
    127 H43        5.0846   -2.8021   14.1212 H         1 RES1    0.0000
    128 C85       -3.6895    2.9847   46.1007 C.ar      2 RES2    0.0000
    129 C86       -4.3538    5.2217   45.8606 C.ar      2 RES2    0.0000
    130 H44       -4.1234    6.0990   45.5788 H         2 RES2    0.0000
    131 C87        6.2551   -5.6459   29.3755 C.ar      1 RES1    0.0000
    132 H45        7.1329   -5.8946   29.6398 H         1 RES1    0.0000
    133 C88        2.0553   -0.3134   35.8679 C.ar      2 RES2    0.0000
    134 H46        2.9409   -0.3039   36.2100 H         2 RES2    0.0000
    135 C89       -5.5923    7.2225   37.2037 C.ar      2 RES2    0.0000
    136 H47       -6.2163    7.9240   37.3505 H         2 RES2    0.0000
    137 C90        5.9741   -3.4037   16.4543 C.ar      1 RES1    0.0000
    138 H48        5.1189   -3.5969   16.8186 H         1 RES1    0.0000
    139 C91        1.5948   -2.5498   39.8645 C.ar      2 RES2    0.0000
    140 H49        2.2049   -3.1796   39.4990 H         2 RES2    0.0000
    141 C92        8.3503   -5.2608   24.8698 C.ar      1 RES1    0.0000
    142 H50        9.2516   -5.0530   24.6538 H         1 RES1    0.0000
    143 C93        1.1213   -0.1189   25.9694 C.ar      1 RES1    0.0000
    144 H51        0.8154   -0.8372   25.4284 H         1 RES1    0.0000
    145 C94        3.8839    1.3404   12.9473 C.ar      1 RES1    0.0000
    146 C95        6.2520   -2.1070   16.0565 C.ar      1 RES1    0.0000
    147 C96        3.9459    0.8619   15.4026 C.ar      1 RES1    0.0000
    148 C97        6.6192   -6.9016   25.1785 C.ar      1 RES1    0.0000
    149 H52        6.3426   -7.8113   25.1754 H         1 RES1    0.0000
    150 C98        3.7351    1.7467   10.5493 C.ar      1 RES1    0.0000
    151 H53        3.5541    2.3235    9.8164 H         1 RES1    0.0000
    152 C99        2.5367    2.2151   17.0331 C.ar      1 RES1    0.0000
    153 C100      -1.6832    1.2831   50.8205 C.ar      2 RES2    0.0000
    154 C101       0.2978   -1.4019   34.5920 C.ar      2 RES2    0.0000
    155 H54       -0.0109   -2.1386   34.0770 H         2 RES2    0.0000
    156 C102       0.7944    3.2701   22.1736 C.ar      1 RES1    0.0000
    157 H55        0.1355    3.9452   22.0615 H         1 RES1    0.0000
    158 C103       8.4989   -4.9850   20.3567 C.ar      1 RES1    0.0000
    159 H56        9.1627   -5.5463   19.9714 H         1 RES1    0.0000
    160 C104       2.1158    3.5063   22.1744 C.ar      1 RES1    0.0000
    161 H57        2.4021    4.3744   22.4352 H         1 RES1    0.0000
    162 C105       5.2717   -0.9747   20.0138 C.2       1 RES1    0.0000
    163 C106      -1.7119    0.7775   41.8866 C.2       2 RES2    0.0000
    164 C107      -0.2055   -2.5572   44.3589 C.ar      2 RES2    0.0000
    165 H58       -1.0733   -2.7085   44.0024 H         2 RES2    0.0000
    166 C108       5.6883   -1.2499   18.6577 C.2       1 RES1    0.0000
    167 H59        6.3438   -1.9201   18.5040 H         1 RES1    0.0000
    168 C109       4.6562   -0.8958   13.7585 C.ar      1 RES1    0.0000
    169 C110       3.4429    3.6363   12.0867 C.ar      1 RES1    0.0000
    170 H60        3.2680    4.2340   11.3694 H         1 RES1    0.0000
    171 C111       0.0306   -1.4063   45.1643 C.ar      2 RES2    0.0000
    172 C112      -6.0124    5.7384   41.7562 C.ar      2 RES2    0.0000
    173 H61       -6.6431    6.4284   41.5892 H         2 RES2    0.0000
    174 C113       8.3889   -2.9428   15.1936 C.ar      1 RES1    0.0000
    175 H62        9.1987   -2.8053   14.7168 H         1 RES1    0.0000
    176 C114      -1.6664    0.8683   49.4964 C.ar      2 RES2    0.0000
    177 C115      -2.7052    1.8075   45.9365 C.ar      2 RES2    0.0000
    178 C116      -1.3769   -0.0676   46.7827 C.ar      2 RES2    0.0000
    179 C117       7.4495   -1.8608   15.3672 C.ar      1 RES1    0.0000
    180 H63        7.6386   -0.9963   15.0204 H         1 RES1    0.0000
    181 C118       1.1091   -0.3125   40.5071 C.ar      2 RES2    0.0000
    182 H64        1.4161    0.5462   40.7757 H         2 RES2    0.0000
    183 C119       3.5423    1.1605   16.7081 C.ar      1 RES1    0.0000
    184 C120       4.2361    1.1570   19.2046 C.2       1 RES1    0.0000
    185 H65        4.2436    2.0917   19.3797 H         1 RES1    0.0000
    186 C121       7.8382   -2.8528   21.1780 C.ar      1 RES1    0.0000
    187 H66        8.0967   -2.0501   21.6139 H         1 RES1    0.0000
    188 C122       2.7852    3.2774   17.7726 C.ar      1 RES1    0.0000
    189 H67        3.6598    3.3951   18.1225 H         1 RES1    0.0000
    190 C123       3.5826    3.2017   14.4509 C.ar      1 RES1    0.0000
    191 H68        3.5494    3.5502   15.3356 H         1 RES1    0.0000
    192 C124       2.2855   -2.2197   45.3822 C.ar      2 RES2    0.0000
    193 H69        3.1371   -2.1462   45.7968 H         2 RES2    0.0000
    194 C125       5.1417   -0.5423   17.5430 C.ar      1 RES1    0.0000
    195 C126      -6.3915    4.3793   41.9975 C.ar      2 RES2    0.0000
    196 H70       -7.2609    4.1644   42.3131 H         2 RES2    0.0000
    197 C127      -1.0736    0.1513   43.0465 C.2       2 RES2    0.0000
    198 H71       -0.2798   -0.3545   42.9126 H         2 RES2    0.0000
    199 C128      -2.0445    1.6988   48.3828 C.ar      2 RES2    0.0000
    200 C129      -4.9441    2.7196   46.7313 C.ar      2 RES2    0.0000
    201 H72       -5.1694    1.8492   47.0384 H         2 RES2    0.0000
    202 C130       0.2310    2.9362   16.8007 C.ar      1 RES1    0.0000
    203 H73       -0.6576    2.7771   16.5072 H         1 RES1    0.0000
    204 C131      -5.4726    3.4062   41.7616 C.ar      2 RES2    0.0000
    205 H74       -5.7256    2.4957   41.8616 H         2 RES2    0.0000
    206 C132       0.5151    1.9905   22.3484 C.ar      1 RES1    0.0000
    207 H75       -0.3480    1.7524   22.6648 H         1 RES1    0.0000
    208 C133       6.3236   -4.1968   20.5202 C.ar      1 RES1    0.0000
    209 H76        5.4056   -4.4407   20.5358 H         1 RES1    0.0000
    210 C134      -1.3725    0.4212   51.9115 C.ar      2 RES2    0.0000
    211 H77       -1.3215    0.7880   52.7873 H         2 RES2    0.0000
    212 C135       4.2176   -0.0145   12.7177 C.ar      1 RES1    0.0000
    213 C136      -0.9702   -2.3774   47.7308 C.ar      2 RES2    0.0000
    214 H78       -0.8779   -2.7162   46.8477 H         2 RES2    0.0000
    215 C137       4.8708   -2.6525   12.0996 C.ar      1 RES1    0.0000
    216 H79        5.0816   -3.5622   11.9299 H         1 RES1    0.0000
    217 C138      -2.3961    3.0376   48.7144 C.ar      2 RES2    0.0000
    218 H80       -2.6991    3.6147   48.0231 H         2 RES2    0.0000
    219 C139       0.7956   -3.4476   44.0880 C.ar      2 RES2    0.0000
    220 H81        0.6117   -4.2055   43.5470 H         2 RES2    0.0000
    221 C140       4.0428    0.4273   10.3158 C.ar      1 RES1    0.0000
    222 H82        4.1765    0.1422    9.4194 H         1 RES1    0.0000
    223 C141      -3.4303    4.2084   45.6481 C.ar      2 RES2    0.0000
    224 H83       -2.6209    4.3869   45.1818 H         2 RES2    0.0000
    225 C142      -4.6807    5.9537   41.7877 C.ar      2 RES2    0.0000
    226 H84       -4.3668    6.8465   41.8733 H         2 RES2    0.0000
    227 C143      -1.9112    2.6437   51.0475 C.ar      2 RES2    0.0000
    228 H85       -1.7960    2.9918   51.9232 H         2 RES2    0.0000
    229 C144       3.7481    1.8389   14.2695 C.ar      1 RES1    0.0000
    230 C145       6.8918   -4.4207   16.3399 C.ar      1 RES1    0.0000
    231 H86        6.6890   -5.2838   16.6824 H         1 RES1    0.0000
    232 C146       0.5245    4.0613   17.5683 C.ar      1 RES1    0.0000
    233 H87       -0.1545    4.7008   17.7528 H         1 RES1    0.0000
    234 C147       4.6567   -0.3412   15.1247 C.ar      1 RES1    0.0000
    235 C148       1.2171    2.0746   16.4800 C.ar      1 RES1    0.0000
    236 H88        1.0367    1.3630   15.8767 H         1 RES1    0.0000
    237 C149      -2.3133    3.5269   49.9961 C.ar      2 RES2    0.0000
    238 H89       -2.5203    4.4357   50.1795 H         2 RES2    0.0000
    239 C150      -5.7752    3.7351   46.8671 C.ar      2 RES2    0.0000
    240 H90       -6.6069    3.5670   47.2953 H         2 RES2    0.0000
    241 C151      -0.8684   -3.2384   48.7491 C.ar      2 RES2    0.0000
    242 H91       -0.7715   -4.1675   48.5720 H         2 RES2    0.0000
    243 C152      -1.6007    0.2705   44.3710 C.ar      2 RES2    0.0000
    244 C153       4.5759   -1.8950   11.1152 C.ar      1 RES1    0.0000
    245 H92        4.6231   -2.2165   10.2212 H         1 RES1    0.0000
    246 C154       3.4597    4.0999   13.3436 C.ar      1 RES1    0.0000
    247 H93        3.3888    5.0335   13.5024 H         1 RES1    0.0000
    248 C155       3.1287    2.5603   21.8202 C.ar      1 RES1    0.0000
    249 H94        4.0279    2.8117   21.6412 H         1 RES1    0.0000
    250 C156       4.1719   -0.5498   11.3885 C.ar      1 RES1    0.0000
    251 C157       3.6880    2.2300   11.8069 C.ar      1 RES1    0.0000
    252 C158      -1.3358   -0.5234   49.2434 C.ar      2 RES2    0.0000
    253 C159       8.0899   -4.1939   15.7369 C.ar      1 RES1    0.0000
    254 H95        8.7301   -4.8935   15.6860 H         1 RES1    0.0000
    255 C160      -3.7600    4.9398   41.7059 C.ar      2 RES2    0.0000
    256 H96       -2.8467    5.1195   41.8967 H         2 RES2    0.0000
    257 C161       8.7989   -3.8735   21.0534 C.ar      1 RES1    0.0000
    258 H97        9.6529   -3.7784   21.4582 H         1 RES1    0.0000
    259 C162       7.2925   -5.2165   20.2594 C.ar      1 RES1    0.0000
    260 H98        7.0015   -6.0848   20.0025 H         1 RES1    0.0000
    261 C163      -1.1529   -0.8769   51.7481 C.ar      2 RES2    0.0000
    262 H99       -1.0031   -1.4479   52.4915 H         2 RES2    0.0000
    263 C164       1.4500    0.9580   22.0822 C.ar      1 RES1    0.0000
    264 H100       1.1763    0.0493   22.1433 H         1 RES1    0.0000
    265 C165       0.3071   -2.8676   39.9894 C.ar      2 RES2    0.0000
    266 H101      -0.0007   -3.7662   40.0167 H         2 RES2    0.0000
    267 C166      -0.9038   -2.7736   50.1110 C.ar      2 RES2    0.0000
    268 H102      -0.7658   -3.3604   50.8451 H         2 RES2    0.0000
    269 C167      -3.3600    1.7743   43.4910 C.2       2 RES2    0.0000
    270 H103      -4.2675    2.0271   43.6132 H         2 RES2    0.0000
    271 C168       2.0457   -1.3083   40.2658 C.ar      2 RES2    0.0000
    272 H104       2.9741   -1.1403   40.3748 H         2 RES2    0.0000
@<TRIPOS>BOND
     1    1   21 1
     2    2    6 1
     3    3   13 1
     4    4   57 1
     5    5   16 2
     6    6   10 2
     7    7   35 1
     8    8   16 1
     9    9   32 2
    10   10   23 1
    11   11   26 1
    12   12   21 2
    13   13   18 2
    14   14    6 1
    15   15   36 2
    16   16   89 1
    17   17  178 ar
    18   18   35 1
    19   19   20 1
    20   21   22 1
    21   23   53 ar
    22   24   13 1
    23   25    2 1
    24   26    2 2
    25   27  171 1
    26   28   25 ar
    27   29   28 1
    28   30   31 1
    29   32    5 1
    30   33   34 1
    31   35   65 2
    32   36    1 1
    33   37   10 1
    34   38   50 1
    35   39  183 ar
    36   40   41 1
    37   42   25 ar
    38   43   42 1
    39   44   36 1
    40   45   44 1
    41   46   47 1
    42   48   11 ar
    43   49   48 1
    44   50    3 2
    45   51   52 1
    46   53   54 1
    47   55  177 ar
    48   56    9 1
    49   57    1 2
    50   58   23 ar
    51   59   58 1
    52   60   14 ar
    53   61   60 1
    54   62   57 1
    55   63   64 1
    56   65   32 1
    57   66   65 1
    58   67   18 1
    59   68   15 1
    60   69    3 1
    61   70   71 1
    62   72   38 ar
    63   73   72 1
    64   74   28 ar
    65   75   74 1
    66   76   24 ar
    67   77   76 1
    68   78  177 ar
    69   79   69 ar
    70   80   79 1
    71   81   14 ar
    72   82   81 1
    73   83   84 1
    74   85   86 1
    75   87   88 1
    76   89  163 1
    77   90   33 ar
    78   91   90 1
    79   92    5 1
    80   93   92 1
    81   94   72 ar
    82   95   94 1
    83   96   69 ar
    84   97   96 1
    85   98   99 1
    86  100   79 ar
    87  101  100 1
    88  102   19 ar
    89  103  102 1
    90  104  105 1
    91  106   96 ar
    92  107  106 1
    93  108   38 ar
    94  109  108 1
    95  110  252 ar
    96  111   56 ar
    97  112  111 1
    98  113  114 1
    99  115   90 ar
   100  116  115 1
   101  117   42 ar
   102  118  117 1
   103  119  100 ar
   104  120  119 1
   105  121   70 ar
   106  122  121 1
   107  123   81 ar
   108  124  123 1
   109  125  146 1
   110  126  127 1
   111  128  177 1
   112  129   83 ar
   113  130  129 1
   114  131   60 ar
   115  132  131 1
   116  133   30 ar
   117  134  133 1
   118  135   94 ar
   119  136  135 1
   120  137  138 1
   121  139  140 1
   122  141   53 ar
   123  142  141 1
   124  143   11 ar
   125  144  143 1
   126  145  212 ar
   127  146  137 ar
   128  147  183 ar
   129  148   58 ar
   130  149  148 1
   131  150  151 1
   132  152  183 1
   133  153  176 ar
   134  154   40 ar
   135  155  154 1
   136  156  157 1
   137  158  159 1
   138  160  156 ar
   139  161  160 1
   140  162   15 1
   141  163    9 1
   142  164  165 1
   143  166  162 2
   144  167  166 1
   145  168  126 ar
   146  169  170 1
   147  171   51 ar
   148  172  173 1
   149  174  175 1
   150  176  199 ar
   151  178   27 ar
   152  179  146 ar
   153  180  179 1
   154  181   56 ar
   155  182  181 1
   156  184   39 1
   157  185  184 1
   158  186   68 ar
   159  187  186 1
   160  188   46 ar
   161  189  188 1
   162  190  191 1
   163  192   51 ar
   164  193  192 1
   165  194   39 ar
   166  195  172 ar
   167  196  195 1
   168  197  163 2
   169  198  197 1
   170  199   55 ar
   171  200  128 ar
   172  201  200 1
   173  202  203 1
   174  204    8 ar
   175  205  204 1
   176  206  156 ar
   177  207  206 1
   178  208   68 ar
   179  209  208 1
   180  210  153 ar
   181  211  210 1
   182  212  168 ar
   183  213   17 ar
   184  214  213 1
   185  215  126 ar
   186  216  215 1
   187  217  199 ar
   188  218  217 1
   189  219   85 ar
   190  220  219 1
   191  221  150 ar
   192  222  221 1
   193  223  128 ar
   194  224  223 1
   195  225  172 ar
   196  226  225 1
   197  227  153 ar
   198  228  227 1
   199  229  145 ar
   200  230  137 ar
   201  231  230 1
   202  232   46 ar
   203  233  232 1
   204  234  125 ar
   205  235  152 ar
   206  236  235 1
   207  237  217 ar
   208  238  237 1
   209  239   83 ar
   210  240  239 1
   211  241  213 ar
   212  242  241 1
   213  243   27 ar
   214  244  215 ar
   215  245  244 1
   216  246  169 ar
   217  247  246 1
   218  248    4 ar
   219  249  248 1
   220  250  212 ar
   221  251  145 ar
   222  252   17 ar
   223  253  174 ar
   224  254  253 1
   225  255    8 ar
   226  256  255 1
   227  257  158 ar
   228  258  257 1
   229  259  158 ar
   230  260  259 1
   231  261  110 ar
   232  262  261 1
   233  263    4 ar
   234  264  263 1
   235  265  111 ar
   236  266  265 1
   237  267  110 ar
   238  268  267 1
   239  269   78 1
   240  270  269 1
   241  271  139 ar
   242  272  271 1
   243    7   50 1
   244    7   92 2
   245   12   26 1
   246   12   37 1
   247   19   24 ar
   248   30   67 ar
   249   33   48 ar
   250   37   44 2
   251   40   67 ar
   252   55  178 ar
   253   62  162 1
   254   62  184 2
   255   63   74 ar
   256   63  117 ar
   257   70  102 ar
   258   76  121 ar
   259   78  243 ar
   260   85  192 ar
   261   87  133 ar
   262   87  154 ar
   263   89  269 2
   264   98  108 ar
   265   98  135 ar
   266  104  141 ar
   267  104  148 ar
   268  106  119 ar
   269  113  123 ar
   270  113  131 ar
   271  115  143 ar
   272  125  194 ar
   273  129  223 ar
   274  139  265 ar
   275  147  229 ar
   276  147  234 ar
   277  150  251 ar
   278  152  188 ar
   279  160  248 ar
   280  164  171 ar
   281  164  219 ar
   282  166  194 1
   283  168  234 ar
   284  169  251 ar
   285  174  179 ar
   286  176  252 ar
   287  181  271 ar
   288  186  257 ar
   289  190  229 ar
   290  190  246 ar
   291  195  204 ar
   292  197  243 1
   293  200  239 ar
   294  202  232 ar
   295  202  235 ar
   296  206  263 ar
   297  208  259 ar
   298  210  261 ar
   299  221  250 ar
   300  225  255 ar
   301  227  237 ar
   302  230  253 ar
   303  241  267 ar
   304  244  250 ar
@<TRIPOS>SUBSTRUCTURE
     1 RES1 1
     2 RES2 3

@<TRIPOS>CRYSIN
   6.4811   11.3196   39.0621  93.3690  92.5570 103.8840   1 1

