# MOL2 file generated by ConQuest
# Please check atom types

@<TRIPOS>MOLECULE
TBHEPH
    44    53     1
SMALL
NO_CHARGES
****
Generated from CSD

@<TRIPOS>ATOM
      1 C1         3.1372    1.7278   -1.4079 C.ar      1 RES1    0.0000
      2 C2         8.0072    2.4829   -1.1843 C.ar      1 RES1    0.0000
      3 C3         7.3668    0.2832   -2.1760 C.ar      1 RES1    0.0000
      4 C4         6.5150   -0.8023   -2.2494 C.ar      1 RES1    0.0000
      5 C5         4.5547   -2.0930   -1.3892 C.ar      1 RES1    0.0000
      6 C6         3.5598   -2.2736   -0.3787 C.ar      1 RES1    0.0000
      7 C7         2.8771   -1.7688    1.9842 C.ar      1 RES1    0.0000
      8 C8         3.0592   -1.0794    3.1522 C.ar      1 RES1    0.0000
      9 C9         4.0410   -0.0882    3.2542 C.ar      1 RES1    0.0000
     10 C10        4.7530    0.2668    2.1050 C.ar      1 RES1    0.0000
     11 C11        4.5254   -0.3509    0.8668 C.ar      1 RES1    0.0000
     12 C12        2.0351    1.2599   -2.0952 C.ar      1 RES1    0.0000
     13 C13        3.6314   -1.4385    0.8203 C.ar      1 RES1    0.0000
     14 C14        5.2991    0.0041   -0.3248 C.ar      1 RES1    0.0000
     15 C15        5.4682   -0.9644   -1.3100 C.ar      1 RES1    0.0000
     16 C16        5.9818    1.2661   -0.4603 C.ar      1 RES1    0.0000
     17 C17        7.1164    1.3420   -1.2823 C.ar      1 RES1    0.0000
     18 C18        5.5332    2.4870    0.2277 C.ar      1 RES1    0.0000
     19 C19        6.4857    3.4617    0.5199 C.ar      1 RES1    0.0000
     20 C20        4.1678    2.7004    0.6595 C.ar      1 RES1    0.0000
     21 C21        3.9272    3.5766    1.7140 C.ar      1 RES1    0.0000
     22 C22        3.0299    2.1300   -0.0628 C.ar      1 RES1    0.0000
     23 C23        0.7997    1.1450   -1.4569 C.ar      1 RES1    0.0000
     24 C24        1.7653    2.1156    0.5566 C.ar      1 RES1    0.0000
     25 C25        0.3739    2.6368    2.5923 C.ar      1 RES1    0.0000
     26 C26        0.1918    3.3468    3.7586 C.ar      1 RES1    0.0000
     27 C27        1.1866    4.1717    4.2361 C.ar      1 RES1    0.0000
     28 C28        2.3960    4.2661    3.5766 C.ar      1 RES1    0.0000
     29 C29        2.6138   -3.2832   -0.5273 C.ar      1 RES1    0.0000
     30 C30        2.6496   -4.1266   -1.6291 C.ar      1 RES1    0.0000
     31 C31        3.6216   -3.9686   -2.6200 C.ar      1 RES1    0.0000
     32 C32        4.5481   -2.9590   -2.5106 C.ar      1 RES1    0.0000
     33 C33        9.1841    2.5917   -1.9646 C.ar      1 RES1    0.0000
     34 C34        0.6535    1.5903   -0.1657 C.ar      1 RES1    0.0000
     35 C35       10.0683    3.6423   -1.7752 C.ar      1 RES1    0.0000
     36 C36        9.7953    4.6232   -0.8374 C.ar      1 RES1    0.0000
     37 C37        8.6769    4.5370   -0.0555 C.ar      1 RES1    0.0000
     38 C38        1.5832    2.7374    1.8650 C.ar      1 RES1    0.0000
     39 C39        2.6203    3.5500    2.3800 C.ar      1 RES1    0.0000
     40 C40        4.9643    4.4303    2.1393 C.ar      1 RES1    0.0000
     41 C41        6.1769    4.4508    1.4920 C.ar      1 RES1    0.0000
     42 C42        7.7471    3.4946   -0.2285 C.ar      1 RES1    0.0000
     43 H1         4.1938    1.8058   -1.9507 H         1 RES1    0.0000
     44 H2         5.5267    1.0465    2.1793 H         1 RES1    0.0000
@<TRIPOS>BOND
     1    1   12 ar
     2    2   17 ar
     3    3    4 ar
     4    4   15 ar
     5    5    6 ar
     6    6   13 ar
     7    7    8 ar
     8    8    9 ar
     9    9   10 ar
    10   10   11 ar
    11   11   13 ar
    12   12   23 ar
    13   13    7 ar
    14   14   11 ar
    15   15    5 ar
    16   16   14 ar
    17   17    3 ar
    18   18   16 ar
    19   19   18 ar
    20   20   18 ar
    21   21   20 ar
    22   22    1 ar
    23   23   34 ar
    24   24   22 ar
    25   25   26 ar
    26   26   27 ar
    27   27   28 ar
    28   28   39 ar
    29   29    6 ar
    30   30   29 ar
    31   31   30 ar
    32   32    5 ar
    33   33    2 ar
    34   34   24 ar
    35   35   33 ar
    36   36   35 ar
    37   37   36 ar
    38   38   24 ar
    39   39   21 ar
    40   40   21 ar
    41   41   19 ar
    42   42    2 ar
    43   43    1 1
    44   44   10 1
    45   14   15 ar
    46   16   17 ar
    47   19   42 ar
    48   20   22 ar
    49   25   38 ar
    50   31   32 ar
    51   37   42 ar
    52   38   39 ar
    53   40   41 ar
@<TRIPOS>SUBSTRUCTURE
     1 RES1 1

@<TRIPOS>CRYSIN
  32.5100   20.5200    8.1620  90.0000  90.0000  90.0000  61 1

