# MOL2 file generated by ConQuest
# Please check atom types

@<TRIPOS>MOLECULE
TBUNAP
    66    67     1
SMALL
NO_CHARGES
****
Generated from CSD

@<TRIPOS>ATOM
      1 C1        -1.6187   -0.0624   -2.5635 C.ar      1 RES1    0.0000
      2 C2        -2.1933    0.9494   -1.8283 C.ar      1 RES1    0.0000
      3 C3        -3.5891    1.1369   -1.6746 C.ar      1 RES1    0.0000
      4 C4        -4.3908    0.3142   -2.4073 C.ar      1 RES1    0.0000
      5 C5        -4.7571   -1.5819   -3.8957 C.ar      1 RES1    0.0000
      6 C6        -4.3276   -2.6820   -4.5720 C.ar      1 RES1    0.0000
      7 C7        -3.0280   -3.1452   -4.2369 C.ar      1 RES1    0.0000
      8 C8        -2.1586   -2.4918   -3.3924 C.ar      1 RES1    0.0000
      9 C9        -2.4853   -1.1387   -3.0128 C.ar      1 RES1    0.0000
     10 C10       -3.8756   -0.8048   -3.1029 C.ar      1 RES1    0.0000
     11 C11       -5.1924   -3.4905   -5.5282 C.3       1 RES1    0.0000
     12 C12       -6.5668   -2.8451   -5.7577 C.3       1 RES1    0.0000
     13 C13       -5.3368   -4.9174   -5.0417 C.3       1 RES1    0.0000
     14 C14       -4.4697   -3.5025   -6.9073 C.3       1 RES1    0.0000
     15 C15       -4.1048    2.3199   -0.8601 C.3       1 RES1    0.0000
     16 C16       -5.6330    2.2739   -0.7075 C.3       1 RES1    0.0000
     17 C17       -3.7251    3.6151   -1.5749 C.3       1 RES1    0.0000
     18 C18       -3.4820    2.2923    0.5358 C.3       1 RES1    0.0000
     19 C19       -0.2275    0.2935   -3.1653 C.3       1 RES1    0.0000
     20 C20        0.3864   -0.7712   -4.0879 C.3       1 RES1    0.0000
     21 C21        0.8064    0.6812   -2.1094 C.3       1 RES1    0.0000
     22 C22       -0.4971    1.5087   -4.0711 C.3       1 RES1    0.0000
     23 C23       -1.1460   -3.4224   -2.6620 C.3       1 RES1    0.0000
     24 C24       -0.4286   -2.7473   -1.4872 C.3       1 RES1    0.0000
     25 C25       -1.9769   -4.5591   -2.0145 C.3       1 RES1    0.0000
     26 C26       -0.1531   -4.1034   -3.6278 C.3       1 RES1    0.0000
     27 H1        -1.5800    1.6731   -1.5496 H         1 RES1    0.0000
     28 H2        -5.3821    0.4482   -2.4986 H         1 RES1    0.0000
     29 H3        -5.6883   -1.2874   -3.9402 H         1 RES1    0.0000
     30 H4        -2.8025   -4.0857   -4.5528 H         1 RES1    0.0000
     31 H5        -6.9630   -3.0622   -4.7690 H         1 RES1    0.0000
     32 H6        -7.1186   -3.4197   -6.4388 H         1 RES1    0.0000
     33 H7        -6.4893   -1.8351   -6.0664 H         1 RES1    0.0000
     34 H8        -5.8922   -4.7271   -4.1924 H         1 RES1    0.0000
     35 H9        -4.3681   -5.3963   -4.9492 H         1 RES1    0.0000
     36 H10       -5.8276   -5.4439   -5.7180 H         1 RES1    0.0000
     37 H11       -4.9859   -4.0606   -7.5560 H         1 RES1    0.0000
     38 H12       -4.2428   -2.3996   -7.2076 H         1 RES1    0.0000
     39 H13       -3.5989   -4.0866   -6.7391 H         1 RES1    0.0000
     40 H14       -6.1811    2.3444   -1.6457 H         1 RES1    0.0000
     41 H15       -5.9645    1.3893   -0.2162 H         1 RES1    0.0000
     42 H16       -5.9343    3.1080   -0.1442 H         1 RES1    0.0000
     43 H17       -2.6955    3.6928   -1.5256 H         1 RES1    0.0000
     44 H18       -4.0535    3.5954   -2.5587 H         1 RES1    0.0000
     45 H19       -4.0191    4.4057   -1.0811 H         1 RES1    0.0000
     46 H20       -3.8059    3.0619    1.1052 H         1 RES1    0.0000
     47 H21       -2.4608    2.5236    0.4565 H         1 RES1    0.0000
     48 H22       -3.7323    1.3899    1.0091 H         1 RES1    0.0000
     49 H23       -0.2808   -1.1639   -4.7690 H         1 RES1    0.0000
     50 H24        0.7722   -1.6437   -3.5077 H         1 RES1    0.0000
     51 H25        1.0436   -0.2123   -4.6609 H         1 RES1    0.0000
     52 H26        0.5136    1.5176   -1.5256 H         1 RES1    0.0000
     53 H27        1.6472    0.9838   -2.5707 H         1 RES1    0.0000
     54 H28        0.8954   -0.0193   -1.4776 H         1 RES1    0.0000
     55 H29       -1.2763    1.1034   -4.8291 H         1 RES1    0.0000
     56 H30        0.2641    1.8268   -4.5528 H         1 RES1    0.0000
     57 H31       -0.7850    2.3391   -3.4356 H         1 RES1    0.0000
     58 H32       -1.1200   -2.4035   -0.7928 H         1 RES1    0.0000
     59 H33        0.0618   -3.4850   -0.9130 H         1 RES1    0.0000
     60 H34        0.2248   -1.8767   -1.8139 H         1 RES1    0.0000
     61 H35       -2.7203   -4.1484   -1.3574 H         1 RES1    0.0000
     62 H36       -2.3726   -5.1554   -2.7389 H         1 RES1    0.0000
     63 H37       -1.3380   -5.2063   -1.3574 H         1 RES1    0.0000
     64 H38       -0.6299   -4.6047   -4.4207 H         1 RES1    0.0000
     65 H39        0.4501   -3.3742   -4.1204 H         1 RES1    0.0000
     66 H40        0.4221   -4.7964   -3.1473 H         1 RES1    0.0000
@<TRIPOS>BOND
     1    1    2 ar
     2    2    3 ar
     3    3    4 ar
     4    4   10 ar
     5    5    6 ar
     6    6    7 ar
     7    7    8 ar
     8    8    9 ar
     9    9    1 ar
    10   10    5 ar
    11   11    6 1
    12   12   11 1
    13   13   11 1
    14   14   11 1
    15   15    3 1
    16   16   15 1
    17   17   15 1
    18   18   15 1
    19   19    1 1
    20   20   19 1
    21   21   19 1
    22   22   19 1
    23   23    8 1
    24   24   23 1
    25   25   23 1
    26   26   23 1
    27   27    2 1
    28   28    4 1
    29   29    5 1
    30   30    7 1
    31   31   12 1
    32   32   12 1
    33   33   12 1
    34   34   13 1
    35   35   13 1
    36   36   13 1
    37   37   14 1
    38   38   14 1
    39   39   14 1
    40   40   16 1
    41   41   16 1
    42   42   16 1
    43   43   17 1
    44   44   17 1
    45   45   17 1
    46   46   18 1
    47   47   18 1
    48   48   18 1
    49   49   20 1
    50   50   20 1
    51   51   20 1
    52   52   21 1
    53   53   21 1
    54   54   21 1
    55   55   22 1
    56   56   22 1
    57   57   22 1
    58   58   24 1
    59   59   24 1
    60   60   24 1
    61   61   25 1
    62   62   25 1
    63   63   25 1
    64   64   26 1
    65   65   26 1
    66   66   26 1
    67    9   10 ar
@<TRIPOS>SUBSTRUCTURE
     1 RES1 1

@<TRIPOS>CRYSIN
   9.8860   10.4370   12.1250  82.4800  85.6300  71.3200   2 1

