# MOL2 file generated by ConQuest
# Please check atom types

@<TRIPOS>MOLECULE
TBZHCE
   128   148     2
SMALL
NO_CHARGES
****
Generated from CSD

@<TRIPOS>ATOM
      1 C1        10.2767    0.1621   17.9857 C.ar      1 RES1    0.0000
      2 C2         9.0035   -0.2702   18.2562 C.ar      1 RES1    0.0000
      3 C3         8.5043   -0.2779   19.5494 C.ar      1 RES1    0.0000
      4 C4         9.2669    0.1312   20.6339 C.ar      1 RES1    0.0000
      5 C5        10.5417    0.5906   20.3479 C.ar      1 RES1    0.0000
      6 C6        11.0638    0.6601   19.0470 C.ar      1 RES1    0.0000
      7 C7        12.6237    1.5672   21.2392 C.ar      1 RES1    0.0000
      8 C8        11.3779    1.0962   21.4350 C.ar      1 RES1    0.0000
      9 C9        14.4682    2.1191   19.6679 C.ar      1 RES1    0.0000
     10 C10       14.9833    2.1809   18.3876 C.ar      1 RES1    0.0000
     11 C11       14.2139    1.7447   17.3211 C.ar      1 RES1    0.0000
     12 C12       12.9226    1.2506   17.4808 C.ar      1 RES1    0.0000
     13 C13       12.0865    0.8029   16.3448 C.ar      1 RES1    0.0000
     14 C14       10.7849    0.2355   16.6050 C.ar      1 RES1    0.0000
     15 C15       10.0802   -0.2355   15.5308 C.ar      1 RES1    0.0000
     16 C16       10.5069   -0.1235   14.1526 C.ar      1 RES1    0.0000
     17 C17       11.7902    0.4439   13.9517 C.ar      1 RES1    0.0000
     18 C18       12.4946    0.9187   15.0517 C.ar      1 RES1    0.0000
     19 C19        9.7565   -0.6330   13.1171 C.ar      1 RES1    0.0000
     20 C20        3.0428   -1.0461   15.4406 C.ar      2 RES2    0.0000
     21 C21        2.8306   -0.8067   16.7905 C.ar      2 RES2    0.0000
     22 C22        3.8606   -0.9650   17.6921 C.ar      2 RES2    0.0000
     23 C23        5.0344   -1.5054   17.3340 C.ar      2 RES2    0.0000
     24 C24        5.2946   -1.8798   15.9713 C.ar      2 RES2    0.0000
     25 C25        4.2844   -1.5749   15.0207 C.ar      2 RES2    0.0000
     26 C26        4.5058   -1.9609   13.6529 C.ar      2 RES2    0.0000
     27 C27        5.7385   -2.5051   13.3206 C.ar      2 RES2    0.0000
     28 C28        6.7792   -2.7252   14.2376 C.ar      2 RES2    0.0000
     29 C29        6.5540   -2.4202   15.5231 C.ar      2 RES2    0.0000
     30 C30        5.9469   -2.8911   11.9115 C.ar      2 RES2    0.0000
     31 C31        5.0166   -2.7213   10.9738 C.ar      2 RES2    0.0000
     32 C32        3.7315   -2.1809   11.3370 C.ar      2 RES2    0.0000
     33 C33        3.5163   -1.8489   12.6688 C.ar      2 RES2    0.0000
     34 C34        2.1874   -1.2854   13.0269 C.ar      2 RES2    0.0000
     35 C35        1.9927   -0.8415   14.4231 C.ar      2 RES2    0.0000
     36 C36        0.7943   -0.2663   14.7322 C.ar      2 RES2    0.0000
     37 C37       -0.2855   -0.1158   13.8126 C.ar      2 RES2    0.0000
     38 C38       -0.1077   -0.6176   12.4859 C.ar      2 RES2    0.0000
     39 C39        1.1710   -1.1387   12.1614 C.ar      2 RES2    0.0000
     40 C40       -1.5230    0.4632   14.1681 C.ar      2 RES2    0.0000
     41 H1         8.4465   -0.5636   17.5427 H         1 RES1    0.0000
     42 H2         7.6174   -0.5829   19.7014 H         1 RES1    0.0000
     43 H3         8.9229    0.1081   21.5174 H         1 RES1    0.0000
     44 H4        13.1465    1.8605   21.9734 H         1 RES1    0.0000
     45 H5        11.0338    1.0924   22.3186 H         1 RES1    0.0000
     46 H6        15.0014    2.4164   20.3969 H         1 RES1    0.0000
     47 H7        15.8606    2.5129   18.2330 H         1 RES1    0.0000
     48 H8        14.5722    1.7872   16.4427 H         1 RES1    0.0000
     49 H9         9.2484   -0.6639   15.6982 H         1 RES1    0.0000
     50 H10       13.3287    1.3471   14.8868 H         1 RES1    0.0000
     51 H11        8.9418   -1.1310   13.3334 H         1 RES1    0.0000
     52 H12        1.9752   -0.5250   17.0919 H         2 RES2    0.0000
     53 H13        3.7294   -0.6832   18.5885 H         2 RES2    0.0000
     54 H14        5.7052   -1.6444   17.9935 H         2 RES2    0.0000
     55 H15        7.6199   -3.0687   13.9594 H         2 RES2    0.0000
     56 H16        7.2365   -2.5746   16.1645 H         2 RES2    0.0000
     57 H17        6.7746   -3.2810   11.6642 H         2 RES2    0.0000
     58 H18        5.2000   -2.9606   10.0722 H         2 RES2    0.0000
     59 H19        3.0601   -2.0342   10.6827 H         2 RES2    0.0000
     60 H20        0.6743    0.0656   15.6158 H         2 RES2    0.0000
     61 H21        1.3197   -1.4089   11.2623 H         2 RES2    0.0000
     62 H22       -1.6685    0.7527   15.0594 H         2 RES2    0.0000
     63 C41       12.3779    1.1426   18.8332 C.ar      1 RES1    0.0000
     64 C42       13.1785    1.6328   19.9074 C.ar      1 RES1    0.0000
     65 C19B      12.2172    0.6330   12.6431 C.ar      1 RES1    0.0000
     66 C17B      10.1835   -0.4439   11.8084 C.ar      1 RES1    0.0000
     67 C16B      11.4667    0.1235   11.6075 C.ar      1 RES1    0.0000
     68 H11B      13.0319    1.1310   12.4267 H         1 RES1    0.0000
     69 C18B       9.4790   -0.9187   10.7085 C.ar      1 RES1    0.0000
     70 C15B      11.8934    0.2355   10.2294 C.ar      1 RES1    0.0000
     71 C13B       9.8872   -0.8029    9.4153 C.ar      1 RES1    0.0000
     72 H10B       8.6450   -1.3471   10.8734 H         1 RES1    0.0000
     73 C14B      11.1888   -0.2355    9.1552 C.ar      1 RES1    0.0000
     74 H9B       12.7253    0.6639   10.0619 H         1 RES1    0.0000
     75 C12B       9.0511   -1.2506    8.2793 C.ar      1 RES1    0.0000
     76 C1B       11.6970   -0.1621    7.7744 C.ar      1 RES1    0.0000
     77 C11B       7.7597   -1.7447    8.4390 C.ar      1 RES1    0.0000
     78 C41B       9.5957   -1.1426    6.9269 C.ar      1 RES1    0.0000
     79 C2B       12.9701    0.2702    7.5039 C.ar      1 RES1    0.0000
     80 C6B       10.9098   -0.6601    6.7131 C.ar      1 RES1    0.0000
     81 C10B       6.9903   -2.1809    7.3726 C.ar      1 RES1    0.0000
     82 H8B        7.4015   -1.7872    9.3174 H         1 RES1    0.0000
     83 C42B       8.7951   -1.6328    5.8527 C.ar      1 RES1    0.0000
     84 C3B       13.4694    0.2779    6.2108 C.ar      1 RES1    0.0000
     85 H1B       13.5271    0.5636    8.2175 H         1 RES1    0.0000
     86 C5B       11.4320   -0.5906    5.4122 C.ar      1 RES1    0.0000
     87 C9B        7.5055   -2.1191    6.0923 C.ar      1 RES1    0.0000
     88 H7B        6.1130   -2.5129    7.5271 H         1 RES1    0.0000
     89 C7B        9.3500   -1.5672    4.5209 C.ar      1 RES1    0.0000
     90 C4B       12.7067   -0.1312    5.1263 C.ar      1 RES1    0.0000
     91 H2B       14.3562    0.5829    6.0588 H         1 RES1    0.0000
     92 C8B       10.5958   -1.0962    4.3251 C.ar      1 RES1    0.0000
     93 H6B        6.9722   -2.4164    5.3633 H         1 RES1    0.0000
     94 H4B        8.8271   -1.8605    3.7867 H         1 RES1    0.0000
     95 H3B       13.0508   -0.1081    4.2427 H         1 RES1    0.0000
     96 H5B       10.9398   -1.0924    3.4416 H         1 RES1    0.0000
     97 C40B      -1.1163   -0.4632   11.5921 C.ar      2 RES2    0.0000
     98 C38B      -2.5316    0.6176   13.2742 C.ar      2 RES2    0.0000
     99 C37B      -2.3539    0.1158   11.9476 C.ar      2 RES2    0.0000
    100 H22B      -0.9709   -0.7527   10.7008 H         2 RES2    0.0000
    101 C39B      -3.8103    1.1387   13.5988 C.ar      2 RES2    0.0000
    102 C36B      -3.4337    0.2663   11.0279 C.ar      2 RES2    0.0000
    103 C34B      -4.8267    1.2854   12.7332 C.ar      2 RES2    0.0000
    104 H21B      -3.9590    1.4089   14.4978 H         2 RES2    0.0000
    105 C35B      -4.6320    0.8415   11.3370 C.ar      2 RES2    0.0000
    106 H20B      -3.3136   -0.0656   10.1443 H         2 RES2    0.0000
    107 C33B      -6.1556    1.8489   13.0913 C.ar      2 RES2    0.0000
    108 C20B      -5.6821    1.0461   10.3195 C.ar      2 RES2    0.0000
    109 C26B      -7.1451    1.9609   12.1073 C.ar      2 RES2    0.0000
    110 C32B      -6.3708    2.1809   14.4231 C.ar      2 RES2    0.0000
    111 C21B      -5.4700    0.8067    8.9697 C.ar      2 RES2    0.0000
    112 C25B      -6.9238    1.5749   10.7394 C.ar      2 RES2    0.0000
    113 C27B      -8.3778    2.5051   12.4396 C.ar      2 RES2    0.0000
    114 C31B      -7.6559    2.7213   14.7863 C.ar      2 RES2    0.0000
    115 H19B      -5.6995    2.0342   15.0774 H         2 RES2    0.0000
    116 C22B      -6.4999    0.9650    8.0681 C.ar      2 RES2    0.0000
    117 H12B      -4.6145    0.5250    8.6683 H         2 RES2    0.0000
    118 C24B      -7.9340    1.8798    9.7889 C.ar      2 RES2    0.0000
    119 C28B      -9.4185    2.7252   11.5225 C.ar      2 RES2    0.0000
    120 C30B      -8.5862    2.8911   13.8487 C.ar      2 RES2    0.0000
    121 H18B      -7.8394    2.9606   15.6879 H         2 RES2    0.0000
    122 C23B      -7.6737    1.5054    8.4261 C.ar      2 RES2    0.0000
    123 H13B      -6.3687    0.6832    7.1716 H         2 RES2    0.0000
    124 C29B      -9.1933    2.4202   10.2371 C.ar      2 RES2    0.0000
    125 H15B     -10.2593    3.0687   11.8007 H         2 RES2    0.0000
    126 H17B      -9.4139    3.2810   14.0959 H         2 RES2    0.0000
    127 H14B      -8.3446    1.6444    7.7667 H         2 RES2    0.0000
    128 H16B      -9.8758    2.5746    9.5957 H         2 RES2    0.0000
@<TRIPOS>BOND
     1    1    2 ar
     2    2    3 ar
     3    3    4 ar
     4    4    5 ar
     5    5    6 ar
     6    6    1 ar
     7    7    8 ar
     8    8    5 ar
     9    9   10 ar
    10   10   11 ar
    11   11   12 ar
    12   12   13 ar
    13   13   14 ar
    14   14    1 ar
    15   15   14 ar
    16   16   15 ar
    17   17   16 ar
    18   18   13 ar
    19   19   16 ar
    20   20   21 ar
    21   21   22 ar
    22   22   23 ar
    23   23   24 ar
    24   24   25 ar
    25   25   20 ar
    26   26   25 ar
    27   27   26 ar
    28   28   27 ar
    29   29   24 ar
    30   30   27 ar
    31   31   30 ar
    32   32   31 ar
    33   33   26 ar
    34   34   33 ar
    35   35   20 ar
    36   36   35 ar
    37   37   36 ar
    38   38   37 ar
    39   39   34 ar
    40   40   37 ar
    41   41    2 1
    42   42    3 1
    43   43    4 1
    44   44    7 1
    45   45    8 1
    46   46    9 1
    47   47   10 1
    48   48   11 1
    49   49   15 1
    50   50   18 1
    51   51   19 1
    52   52   21 1
    53   53   22 1
    54   54   23 1
    55   55   28 1
    56   56   29 1
    57   57   30 1
    58   58   31 1
    59   59   32 1
    60   60   36 1
    61   61   39 1
    62   62   40 1
    63   63    6 ar
    64   64    7 ar
    65   65   17 ar
    66   66   19 ar
    67   67   65 ar
    68   68   65 1
    69   69   66 ar
    70   70   67 ar
    71   71   69 ar
    72   72   69 1
    73   73   70 ar
    74   74   70 1
    75   75   71 ar
    76   76   73 ar
    77   77   75 ar
    78   78   75 ar
    79   79   76 ar
    80   80   76 ar
    81   81   77 ar
    82   82   77 1
    83   83   78 ar
    84   84   79 ar
    85   85   79 1
    86   86   80 ar
    87   87   81 ar
    88   88   81 1
    89   89   83 ar
    90   90   84 ar
    91   91   84 1
    92   92   86 ar
    93   93   87 1
    94   94   89 1
    95   95   90 1
    96   96   92 1
    97   97   38 ar
    98   98   40 ar
    99   99   97 ar
   100  100   97 1
   101  101   98 ar
   102  102   99 ar
   103  103  101 ar
   104  104  101 1
   105  105  102 ar
   106  106  102 1
   107  107  103 ar
   108  108  105 ar
   109  109  107 ar
   110  110  107 ar
   111  111  108 ar
   112  112  108 ar
   113  113  109 ar
   114  114  110 ar
   115  115  110 1
   116  116  111 ar
   117  117  111 1
   118  118  112 ar
   119  119  113 ar
   120  120  113 ar
   121  121  114 1
   122  122  116 ar
   123  123  116 1
   124  124  118 ar
   125  125  119 1
   126  126  120 1
   127  127  122 1
   128  128  124 1
   129    9   64 ar
   130   12   63 ar
   131   17   18 ar
   132   28   29 ar
   133   32   33 ar
   134   34   35 ar
   135   38   39 ar
   136   63   64 ar
   137   66   67 ar
   138   71   73 ar
   139   78   80 ar
   140   83   87 ar
   141   86   90 ar
   142   89   92 ar
   143   98   99 ar
   144  103  105 ar
   145  109  112 ar
   146  114  120 ar
   147  118  122 ar
   148  119  124 ar
@<TRIPOS>SUBSTRUCTURE
     1 RES1 1
     2 RES2 20

@<TRIPOS>CRYSIN
  24.6130    3.8600   25.8950  90.0000  95.8500  90.0000 231 1

