# MOL2 file generated by ConQuest
# Please check atom types

@<TRIPOS>MOLECULE
TBZPYR
    44    50     1
SMALL
NO_CHARGES
****
Generated from CSD

@<TRIPOS>ATOM
      1 C1         0.6482    1.7750    9.1698 C.ar      1 RES1    0.0000
      2 C2         0.6804    2.9727    8.4796 C.ar      1 RES1    0.0000
      3 C3         0.7287    4.2237    9.1501 C.ar      1 RES1    0.0000
      4 C4         0.6079    5.4855    8.4007 C.ar      1 RES1    0.0000
      5 C5         0.0886    6.5655    9.1304 C.ar      1 RES1    0.0000
      6 C6        -0.3704    7.7417    8.4599 C.ar      1 RES1    0.0000
      7 C7        -0.9542    8.8110    9.1895 C.ar      1 RES1    0.0000
      8 C8        -0.2697    7.7952    7.0992 C.ar      1 RES1    0.0000
      9 C9         0.4026    6.8007    6.3696 C.ar      1 RES1    0.0000
     10 C10        0.9381    5.6245    7.0006 C.ar      1 RES1    0.0000
     11 C11        0.6442    6.9611    4.9694 C.ar      1 RES1    0.0000
     12 C12        1.3729    6.0736    4.2792 C.ar      1 RES1    0.0000
     13 C13        1.9325    4.9722    4.9300 C.ar      1 RES1    0.0000
     14 C14        1.7433    4.7477    6.2512 C.ar      1 RES1    0.0000
     15 H1         0.6281    0.9089    8.6768 H         1 RES1    0.0000
     16 H2         0.6683    2.9620    7.4936 H         1 RES1    0.0000
     17 H3        -1.3688    9.5702    8.6965 H         1 RES1    0.0000
     18 H4        -0.6884    8.5544    6.6062 H         1 RES1    0.0000
     19 H5         0.2617    7.7631    4.4962 H         1 RES1    0.0000
     20 H6         1.5138    6.1912    3.2932 H         1 RES1    0.0000
     21 H7         2.4921    4.3307    4.3976 H         1 RES1    0.0000
     22 H8         2.1740    3.9564    6.6851 H         1 RES1    0.0000
     23 C1B        0.6482    1.7750   10.5502 C.ar      1 RES1    0.0000
     24 C3B        0.7287    4.2237   10.5699 C.ar      1 RES1    0.0000
     25 C5B        0.0886    6.5655   10.5896 C.ar      1 RES1    0.0000
     26 C7B       -0.9542    8.8110   10.5305 C.ar      1 RES1    0.0000
     27 C2B        0.6804    2.9727   11.2404 C.ar      1 RES1    0.0000
     28 H1B        0.6281    0.9089   11.0432 H         1 RES1    0.0000
     29 C4B        0.6079    5.4855   11.3193 C.ar      1 RES1    0.0000
     30 C6B       -0.3704    7.7417   11.2601 C.ar      1 RES1    0.0000
     31 H3B       -1.3688    9.5702   11.0235 H         1 RES1    0.0000
     32 H2B        0.6683    2.9620   12.2264 H         1 RES1    0.0000
     33 C10B       0.9381    5.6245   12.7194 C.ar      1 RES1    0.0000
     34 C8B       -0.2697    7.7952   12.6208 C.ar      1 RES1    0.0000
     35 C9B        0.4026    6.8007   13.3504 C.ar      1 RES1    0.0000
     36 C14B       1.7433    4.7477   13.4688 C.ar      1 RES1    0.0000
     37 H4B       -0.6884    8.5544   13.1138 H         1 RES1    0.0000
     38 C11B       0.6442    6.9611   14.7506 C.ar      1 RES1    0.0000
     39 C13B       1.9325    4.9722   14.7900 C.ar      1 RES1    0.0000
     40 H8B        2.1740    3.9564   13.0349 H         1 RES1    0.0000
     41 C12B       1.3729    6.0736   15.4408 C.ar      1 RES1    0.0000
     42 H5B        0.2617    7.7631   15.2238 H         1 RES1    0.0000
     43 H7B        2.4921    4.3307   15.3224 H         1 RES1    0.0000
     44 H6B        1.5138    6.1912   16.4268 H         1 RES1    0.0000
@<TRIPOS>BOND
     1    1    2 ar
     2    2    3 ar
     3    3    4 ar
     4    4    5 ar
     5    5    6 ar
     6    6    7 ar
     7    7   17 1
     8    8    6 ar
     9    9    8 ar
    10   10    4 ar
    11   11    9 ar
    12   12   11 ar
    13   13   12 ar
    14   14   10 ar
    15   15    1 1
    16   16    2 1
    17   18    8 1
    18   19   11 1
    19   20   12 1
    20   21   13 1
    21   22   14 1
    22   23    1 ar
    23   24    3 ar
    24   25    5 ar
    25   26    7 ar
    26   27   23 ar
    27   28   23 1
    28   29   24 ar
    29   30   25 ar
    30   31   26 1
    31   32   27 1
    32   33   29 ar
    33   34   30 ar
    34   35   33 ar
    35   36   33 ar
    36   37   34 1
    37   38   35 ar
    38   39   36 ar
    39   40   36 1
    40   41   38 ar
    41   42   38 1
    42   43   39 1
    43   44   41 1
    44    9   10 ar
    45   13   14 ar
    46   24   27 ar
    47   25   29 ar
    48   26   30 ar
    49   34   35 ar
    50   39   41 ar
@<TRIPOS>SUBSTRUCTURE
     1 RES1 1

@<TRIPOS>CRYSIN
   4.0260   10.6930   19.7200  90.0000  90.0000  90.0000  31 3

