# MOL2 file generated by ConQuest
# Please check atom types

@<TRIPOS>MOLECULE
TBZPER
    52    60     1
SMALL
NO_CHARGES
****
Generated from CSD

@<TRIPOS>ATOM
      1 C1         5.6232    2.6156    2.0258 C.ar      1 RES1    0.0000
      2 C2         0.1160    1.2891    2.6298 C.ar      1 RES1    0.0000
      3 C3        -0.7099    2.1761    3.2546 C.ar      1 RES1    0.0000
      4 C4        -0.2360    3.3933    3.6718 C.ar      1 RES1    0.0000
      5 C5         1.0558    3.7848    3.3564 C.ar      1 RES1    0.0000
      6 C6         1.8997    2.9165    2.6429 C.ar      1 RES1    0.0000
      7 C7         3.2795    3.3081    2.3075 C.ar      1 RES1    0.0000
      8 C8         4.2314    2.3093    2.0311 C.ar      1 RES1    0.0000
      9 C9         3.7714    0.9748    1.7004 C.ar      1 RES1    0.0000
     10 C10        3.6834    4.6531    2.2057 C.ar      1 RES1    0.0000
     11 C11        2.7496    5.7292    1.9324 C.ar      1 RES1    0.0000
     12 C12        6.5230    1.5954    1.5863 C.ar      1 RES1    0.0000
     13 C13        3.1715    7.0077    1.7257 C.ar      1 RES1    0.0000
     14 C14        4.5393    7.3566    1.7892 C.ar      1 RES1    0.0000
     15 C15        4.9613    8.6750    1.5771 C.ar      1 RES1    0.0000
     16 C16        6.2791    8.9973    1.6568 C.ar      1 RES1    0.0000
     17 C17        7.2369    8.0331    1.8941 C.ar      1 RES1    0.0000
     18 C18        6.8750    6.6854    2.0924 C.ar      1 RES1    0.0000
     19 C19        7.8348    5.6599    2.4423 C.ar      1 RES1    0.0000
     20 C20        9.1906    5.9662    2.7340 C.ar      1 RES1    0.0000
     21 C21       10.0465    5.0234    3.2040 C.ar      1 RES1    0.0000
     22 C22        9.6066    3.7475    3.4498 C.ar      1 RES1    0.0000
     23 C23        6.0491    0.3489    1.2112 C.ar      1 RES1    0.0000
     24 C24        8.3108    3.3800    3.1504 C.ar      1 RES1    0.0000
     25 C25        7.4209    4.3255    2.5939 C.ar      1 RES1    0.0000
     26 C26        6.0311    3.9473    2.2792 C.ar      1 RES1    0.0000
     27 C27        5.0612    4.9781    2.1973 C.ar      1 RES1    0.0000
     28 C28        5.4972    6.3578    2.0503 C.ar      1 RES1    0.0000
     29 C29        4.6893    0.0027    1.2617 C.ar      1 RES1    0.0000
     30 C30        4.2394   -1.2838    0.8399 C.ar      1 RES1    0.0000
     31 C31        2.9276   -1.5635    0.9072 C.ar      1 RES1    0.0000
     32 C32        1.9817   -0.6312    1.3298 C.ar      1 RES1    0.0000
     33 C33        2.3956    0.6472    1.7593 C.ar      1 RES1    0.0000
     34 C34        1.4678    1.6167    2.3244 C.ar      1 RES1    0.0000
     35 H1        -0.1600    0.5860    2.3121 H         1 RES1    0.0000
     36 H2        -1.6797    1.7845    3.5294 H         1 RES1    0.0000
     37 H3        -0.8999    4.1551    4.0041 H         1 RES1    0.0000
     38 H4         1.4798    4.7943    3.5294 H         1 RES1    0.0000
     39 H5         1.6398    5.4335    1.7685 H         1 RES1    0.0000
     40 H6         7.4989    1.8645    1.5542 H         1 RES1    0.0000
     41 H7         2.4196    7.7774    1.1331 H         1 RES1    0.0000
     42 H8         4.2994    9.3489    1.4010 H         1 RES1    0.0000
     43 H9         6.5790    9.8550    1.3475 H         1 RES1    0.0000
     44 H10        8.2388    8.2569    1.9370 H         1 RES1    0.0000
     45 H11        9.4986    6.8985    2.7102 H         1 RES1    0.0000
     46 H12       10.9584    5.4335    3.5371 H         1 RES1    0.0000
     47 H13       10.1585    3.0364    3.8816 H         1 RES1    0.0000
     48 H14        6.7190   -0.3463    0.8268 H         1 RES1    0.0000
     49 H15        7.9588    2.3439    3.2461 H         1 RES1    0.0000
     50 H16        5.0792   -1.8378    0.4364 H         1 RES1    0.0000
     51 H17        2.4796   -2.4771    0.4747 H         1 RES1    0.0000
     52 H18        0.8399   -0.9056    1.4546 H         1 RES1    0.0000
@<TRIPOS>BOND
     1    1    8 ar
     2    2    3 ar
     3    3    4 ar
     4    4    5 ar
     5    5    6 ar
     6    6    7 ar
     7    7    8 ar
     8    8    9 ar
     9    9   29 ar
    10   10    7 ar
    11   11   10 ar
    12   12    1 ar
    13   13   11 ar
    14   14   13 ar
    15   15   14 ar
    16   16   15 ar
    17   17   16 ar
    18   18   17 ar
    19   19   18 ar
    20   20   19 ar
    21   21   20 ar
    22   22   21 ar
    23   23   12 ar
    24   24   22 ar
    25   25   19 ar
    26   26    1 ar
    27   27   10 ar
    28   28   14 ar
    29   29   23 ar
    30   30   29 ar
    31   31   30 ar
    32   32   31 ar
    33   33    9 ar
    34   34    2 ar
    35   35    2 1
    36   36    3 1
    37   37    4 1
    38   38    5 1
    39   39   11 1
    40   40   12 1
    41   41   13 1
    42   42   15 1
    43   43   16 1
    44   44   17 1
    45   45   20 1
    46   46   21 1
    47   47   22 1
    48   48   23 1
    49   49   24 1
    50   50   30 1
    51   51   31 1
    52   52   32 1
    53    6   34 ar
    54   18   28 ar
    55   24   25 ar
    56   25   26 ar
    57   26   27 ar
    58   27   28 ar
    59   32   33 ar
    60   33   34 ar
@<TRIPOS>SUBSTRUCTURE
     1 RES1 1

@<TRIPOS>CRYSIN
  19.9970   26.6350    7.6560  90.0000  90.0000  90.0000  61 3

