# MOL2 file generated by ConQuest
# Please check atom types

@<TRIPOS>MOLECULE
TEBNAP12
    42    47     1
SMALL
NO_CHARGES
****
Generated from CSD

@<TRIPOS>ATOM
      1 C1         4.0157    6.2724    6.4085 C.ar      1 RES1    0.0000
      2 C2         4.9734    5.9200    7.3886 C.ar      1 RES1    0.0000
      3 C3         4.6016    5.4247    8.6161 C.ar      1 RES1    0.0000
      4 C4         3.2573    5.2237    8.9160 C.ar      1 RES1    0.0000
      5 C5         2.3028    5.5165    7.9718 C.ar      1 RES1    0.0000
      6 C6         2.6527    6.0448    6.7144 C.ar      1 RES1    0.0000
      7 C7         1.6388    6.3393    5.7145 C.ar      1 RES1    0.0000
      8 C8         0.2856    6.4891    6.0541 C.ar      1 RES1    0.0000
      9 C9        -0.6544    6.8403    5.1170 C.ar      1 RES1    0.0000
     10 C10       -0.2564    7.0769    3.8030 C.ar      1 RES1    0.0000
     11 C11        1.0635    6.9280    3.4370 C.ar      1 RES1    0.0000
     12 C12        2.0417    6.5328    4.3721 C.ar      1 RES1    0.0000
     13 C13        3.4604    6.4859    4.0329 C.ar      1 RES1    0.0000
     14 C14        3.9308    6.2487    2.6715 C.ar      1 RES1    0.0000
     15 C15        3.1162    5.5908    1.7232 C.ar      1 RES1    0.0000
     16 C16        3.5912    5.2593    0.4740 C.ar      1 RES1    0.0000
     17 C17        4.9080    5.5583    0.1306 C.ar      1 RES1    0.0000
     18 C18        5.7377    6.1537    1.0516 C.ar      1 RES1    0.0000
     19 C19        5.2819    6.5000    2.3396 C.ar      1 RES1    0.0000
     20 C20        6.1620    7.0846    3.3440 C.ar      1 RES1    0.0000
     21 C21        7.4149    7.6360    3.0076 C.ar      1 RES1    0.0000
     22 C22        8.2179    8.2269    3.9570 C.ar      1 RES1    0.0000
     23 C23        7.7812    8.3069    5.2765 C.ar      1 RES1    0.0000
     24 C24        6.5617    7.7772    5.6334 C.ar      1 RES1    0.0000
     25 C25        5.7323    7.1229    4.6927 C.ar      1 RES1    0.0000
     26 C26        4.3971    6.6443    5.0450 C.ar      1 RES1    0.0000
     27 H1         5.9276    5.9803    7.1901 H         1 RES1    0.0000
     28 H2         5.3029    5.1877    9.2640 H         1 RES1    0.0000
     29 H3         2.9775    4.8550    9.7763 H         1 RES1    0.0000
     30 H4         1.3423    5.3239    8.1694 H         1 RES1    0.0000
     31 H5         0.0066    6.3962    7.0100 H         1 RES1    0.0000
     32 H6        -1.5981    6.9429    5.3839 H         1 RES1    0.0000
     33 H7        -0.9146    7.3725    3.1247 H         1 RES1    0.0000
     34 H8         1.3436    7.1706    2.5162 H         1 RES1    0.0000
     35 H9         2.1936    5.3050    1.9794 H         1 RES1    0.0000
     36 H10        3.0043    4.7635   -0.1784 H         1 RES1    0.0000
     37 H11        5.2713    5.3163   -0.7886 H         1 RES1    0.0000
     38 H12        6.6974    6.2994    0.8201 H         1 RES1    0.0000
     39 H13        7.7132    7.6228    2.0563 H         1 RES1    0.0000
     40 H14        9.0726    8.6286    3.7192 H         1 RES1    0.0000
     41 H15        8.3403    8.7874    5.9626 H         1 RES1    0.0000
     42 H16        6.2289    7.9102    6.5537 H         1 RES1    0.0000
@<TRIPOS>BOND
     1    1    2 ar
     2    2    3 ar
     3    3    4 ar
     4    4    5 ar
     5    5    6 ar
     6    6    1 ar
     7    7    6 ar
     8    8    7 ar
     9    9    8 ar
    10   10    9 ar
    11   11   10 ar
    12   12    7 ar
    13   13   12 ar
    14   14   13 ar
    15   15   14 ar
    16   16   15 ar
    17   17   16 ar
    18   18   17 ar
    19   19   14 ar
    20   20   19 ar
    21   21   20 ar
    22   22   21 ar
    23   23   22 ar
    24   24   23 ar
    25   25   20 ar
    26   26    1 ar
    27   27    2 1
    28   28    3 1
    29   29    4 1
    30   30    5 1
    31   31    8 1
    32   32    9 1
    33   33   10 1
    34   34   11 1
    35   35   15 1
    36   36   16 1
    37   37   17 1
    38   38   18 1
    39   39   21 1
    40   40   22 1
    41   41   23 1
    42   42   24 1
    43   11   12 ar
    44   13   26 ar
    45   18   19 ar
    46   24   25 ar
    47   25   26 ar
@<TRIPOS>SUBSTRUCTURE
     1 RES1 1

@<TRIPOS>CRYSIN
  12.1404    7.5623   17.6416  90.0000  97.6210  90.0000 231 1

