# MOL2 file generated by ConQuest
# Please check atom types

@<TRIPOS>MOLECULE
TEBNAP11
    42    47     1
SMALL
NO_CHARGES
****
Generated from CSD

@<TRIPOS>ATOM
      1 C1         3.2693    1.2363    3.0230 C.ar      1 RES1    0.0000
      2 C2         0.9707    1.3305    6.0732 C.ar      1 RES1    0.0000
      3 C3         2.8644    1.0421    4.3627 C.ar      1 RES1    0.0000
      4 C4         0.5051    0.9312    3.7045 C.ar      1 RES1    0.0000
      5 C5         3.8431    0.6406    5.2977 C.ar      1 RES1    0.0000
      6 H1         3.5923    0.4721    6.1774 H         1 RES1    0.0000
      7 C6         1.4478    1.0906    4.7101 C.ar      1 RES1    0.0000
      8 C7        -0.8305    0.4493    4.0677 C.ar      1 RES1    0.0000
      9 C8        -1.2593    0.4910    5.4080 C.ar      1 RES1    0.0000
     10 C9         2.2542    1.5346    2.0197 C.ar      1 RES1    0.0000
     11 C10        5.1562    0.4956    4.9326 C.ar      1 RES1    0.0000
     12 H2         5.7838    0.2315    5.5663 H         1 RES1    0.0000
     13 C11        5.5606    0.7407    3.6233 C.ar      1 RES1    0.0000
     14 H3         6.4569    0.6679    3.3864 H         1 RES1    0.0000
     15 C12        0.8946    1.3062    2.3363 C.ar      1 RES1    0.0000
     16 C13        1.7936    1.9832    7.0184 C.ar      1 RES1    0.0000
     17 H4         2.6691    2.1979    6.7902 H         1 RES1    0.0000
     18 C14       -0.3716    1.0785    6.4148 C.ar      1 RES1    0.0000
     19 C15       -2.5139   -0.0562    5.7519 C.ar      1 RES1    0.0000
     20 H5        -2.8029   -0.0190    6.6344 H         1 RES1    0.0000
     21 C16       -2.8823   -0.7286    3.4874 C.ar      1 RES1    0.0000
     22 H6        -3.4170   -1.1407    2.8471 H         1 RES1    0.0000
     23 C17        4.6228    1.0891    2.6900 C.ar      1 RES1    0.0000
     24 H7         4.8907    1.2326    1.8105 H         1 RES1    0.0000
     25 C18       -1.6580   -0.2019    3.1274 C.ar      1 RES1    0.0000
     26 H8        -1.3716   -0.2778    2.2465 H         1 RES1    0.0000
     27 C19       -3.3167   -0.6451    4.8011 C.ar      1 RES1    0.0000
     28 H9        -4.1488   -0.9859    5.0393 H         1 RES1    0.0000
     29 C20       -0.0660    1.6545    1.3582 C.ar      1 RES1    0.0000
     30 H10       -0.9694    1.5498    1.5549 H         1 RES1    0.0000
     31 C21        0.2962    2.1403    0.1322 C.ar      1 RES1    0.0000
     32 H11       -0.3581    2.3353   -0.4990 H         1 RES1    0.0000
     33 C22        1.3205    2.3080    8.2715 C.ar      1 RES1    0.0000
     34 H12        1.8819    2.7231    8.8861 H         1 RES1    0.0000
     35 C23        2.5947    2.0553    0.7648 C.ar      1 RES1    0.0000
     36 H13        3.4900    2.2093    0.5638 H         1 RES1    0.0000
     37 C24       -0.8235    1.4253    7.7051 C.ar      1 RES1    0.0000
     38 H14       -1.7059    1.2492    7.9424 H         1 RES1    0.0000
     39 C25        0.0121    2.0166    8.6177 C.ar      1 RES1    0.0000
     40 H15       -0.2998    2.2215    9.4692 H         1 RES1    0.0000
     41 C26        1.6339    2.3444   -0.1754 C.ar      1 RES1    0.0000
     42 H16        1.8785    2.6731   -1.0103 H         1 RES1    0.0000
@<TRIPOS>BOND
     1    1    3 ar
     2    2    7 ar
     3    3    5 ar
     4    4    7 ar
     5    5    6 1
     6    7    3 ar
     7    8    4 ar
     8    9    8 ar
     9   10    1 ar
    10   11    5 ar
    11   12   11 1
    12   13   11 ar
    13   14   13 1
    14   15    4 ar
    15   16    2 ar
    16   17   16 1
    17   18    2 ar
    18   19    9 ar
    19   20   19 1
    20   21   22 1
    21   23    1 ar
    22   24   23 1
    23   25    8 ar
    24   26   25 1
    25   27   19 ar
    26   28   27 1
    27   29   15 ar
    28   30   29 1
    29   31   29 ar
    30   32   31 1
    31   33   16 ar
    32   34   33 1
    33   35   10 ar
    34   36   35 1
    35   37   18 ar
    36   38   37 1
    37   39   33 ar
    38   40   39 1
    39   41   31 ar
    40   42   41 1
    41    9   18 ar
    42   10   15 ar
    43   13   23 ar
    44   21   25 ar
    45   21   27 ar
    46   35   41 ar
    47   37   39 ar
@<TRIPOS>SUBSTRUCTURE
     1 RES1 1

@<TRIPOS>CRYSIN
  12.1629    7.5896   17.6638  90.0000  97.5762  90.0000 231 1

