# MOL2 file generated by ConQuest
# Please check atom types

@<TRIPOS>MOLECULE
TEBNAP02
    42    47     1
SMALL
NO_CHARGES
****
Generated from CSD

@<TRIPOS>ATOM
      1 C1         6.5884    0.9356    3.7129 C.ar      1 RES1    0.0000
      2 C2         7.5270    1.0947    4.7232 C.ar      1 RES1    0.0000
      3 C3         5.2545    0.4550    4.0703 C.ar      1 RES1    0.0000
      4 C4         6.9728    1.3072    2.3482 C.ar      1 RES1    0.0000
      5 C5         7.0609    1.3337    6.0869 C.ar      1 RES1    0.0000
      6 C6         8.9493    1.0474    4.3790 C.ar      1 RES1    0.0000
      7 C7         4.8268    0.4956    5.4185 C.ar      1 RES1    0.0000
      8 C8         8.3335    1.5353    2.0382 C.ar      1 RES1    0.0000
      9 C9         5.7111    1.0809    6.4230 C.ar      1 RES1    0.0000
     10 C10        9.3486    1.2387    3.0398 C.ar      1 RES1    0.0000
     11 C11        4.4226   -0.2014    3.1327 C.ar      1 RES1    0.0000
     12 C12        6.0158    1.6592    1.3644 C.ar      1 RES1    0.0000
     13 C13        3.2044   -0.7268    3.4907 C.ar      1 RES1    0.0000
     14 C14        6.3868    2.1463    0.1373 C.ar      1 RES1    0.0000
     15 C15        2.7722   -0.6440    4.8086 C.ar      1 RES1    0.0000
     16 C16        7.7272    2.3439   -0.1659 C.ar      1 RES1    0.0000
     17 C17        3.5736   -0.0570    5.7550 C.ar      1 RES1    0.0000
     18 C18        8.6779    2.0568    0.7775 C.ar      1 RES1    0.0000
     19 C19        7.8701    1.9863    7.0385 C.ar      1 RES1    0.0000
     20 C20        9.9297    0.6512    5.3150 C.ar      1 RES1    0.0000
     21 C21        7.3994    2.3173    8.2845 C.ar      1 RES1    0.0000
     22 C22       11.2463    0.5060    4.9445 C.ar      1 RES1    0.0000
     23 C23        6.0878    2.0193    8.6310 C.ar      1 RES1    0.0000
     24 C24       11.6403    0.7461    3.6342 C.ar      1 RES1    0.0000
     25 C25        5.2590    1.4286    7.7085 C.ar      1 RES1    0.0000
     26 C26       10.7046    1.0974    2.6994 C.ar      1 RES1    0.0000
     27 H1         4.7424   -0.3414    2.2076 H         1 RES1    0.0000
     28 H2         5.0512    1.6027    1.5746 H         1 RES1    0.0000
     29 H3         2.6499   -1.2157    2.8020 H         1 RES1    0.0000
     30 H4         5.6798    2.3987   -0.5103 H         1 RES1    0.0000
     31 H5         1.9084   -1.0195    5.0692 H         1 RES1    0.0000
     32 H6         8.0145    2.7195   -1.0398 H         1 RES1    0.0000
     33 H7         3.2885   -0.0411    6.6876 H         1 RES1    0.0000
     34 H8         9.6374    2.2421    0.5646 H         1 RES1    0.0000
     35 H9         8.7744    2.2626    6.7788 H         1 RES1    0.0000
     36 H10        9.6511    0.3923    6.2317 H         1 RES1    0.0000
     37 H11        7.9717    2.8108    8.9197 H         1 RES1    0.0000
     38 H12       11.9053    0.2197    5.6478 H         1 RES1    0.0000
     39 H13        5.7408    2.2504    9.5387 H         1 RES1    0.0000
     40 H14       12.5814    0.6364    3.3508 H         1 RES1    0.0000
     41 H15        4.3092    1.2567    7.9413 H         1 RES1    0.0000
     42 H16       10.9663    1.2012    1.7517 H         1 RES1    0.0000
@<TRIPOS>BOND
     1    1    2 ar
     2    2    5 ar
     3    3    1 ar
     4    4    1 ar
     5    5    9 ar
     6    6    2 ar
     7    7    3 ar
     8    8    4 ar
     9    9    7 ar
    10   10    6 ar
    11   11    3 ar
    12   12    4 ar
    13   13   11 ar
    14   14   12 ar
    15   15   13 ar
    16   16   14 ar
    17   17    7 ar
    18   18    8 ar
    19   19    5 ar
    20   20    6 ar
    21   21   19 ar
    22   22   20 ar
    23   23   21 ar
    24   24   22 ar
    25   25    9 ar
    26   26   10 ar
    27   27   11 1
    28   28   12 1
    29   29   13 1
    30   30   14 1
    31   31   15 1
    32   32   16 1
    33   33   17 1
    34   34   18 1
    35   35   19 1
    36   36   20 1
    37   37   21 1
    38   38   22 1
    39   39   23 1
    40   40   24 1
    41   41   25 1
    42   42   26 1
    43    8   10 ar
    44   15   17 ar
    45   16   18 ar
    46   23   25 ar
    47   24   26 ar
@<TRIPOS>SUBSTRUCTURE
     1 RES1 1

@<TRIPOS>CRYSIN
  12.1690    7.6028   17.6870  90.0000  97.5320  90.0000 231 1

