# MOL2 file generated by ConQuest
# Please check atom types

@<TRIPOS>MOLECULE
TEFBOY
    66    77     1
SMALL
NO_CHARGES
****
Generated from CSD

@<TRIPOS>ATOM
      1 C1        13.1952    0.1490    0.6625 C.ar      1 RES1    0.0000
      2 H1        14.1138   -0.0681    0.7670 H         1 RES1    0.0000
      3 C2        12.6030   -0.0247   -0.5619 C.ar      1 RES1    0.0000
      4 H2        13.1057   -0.3762   -1.2873 H         1 RES1    0.0000
      5 C3        11.2584    0.3156   -0.7442 C.ar      1 RES1    0.0000
      6 H3        10.8568    0.2326   -1.6033 H         1 RES1    0.0000
      7 C4        10.5215    0.7699    0.3214 C.ar      1 RES1    0.0000
      8 H4         9.6054    0.9879    0.1927 H         1 RES1    0.0000
      9 C5         8.4526    2.5214    1.7278 C.ar      1 RES1    0.0000
     10 H5         9.0185    2.7140    0.9905 H         1 RES1    0.0000
     11 C6         7.2095    3.0931    1.7833 C.ar      1 RES1    0.0000
     12 H6         6.9088    3.6436    1.0715 H         1 RES1    0.0000
     13 C7         6.3836    2.8658    2.8891 C.ar      1 RES1    0.0000
     14 H7         5.5324    3.2831    2.9446 H         1 RES1    0.0000
     15 C8         6.8096    2.0387    3.8946 C.ar      1 RES1    0.0000
     16 H8         6.2514    1.9070    4.6520 H         1 RES1    0.0000
     17 C9         6.3138   -0.6117    5.2598 C.ar      1 RES1    0.0000
     18 H9         5.9677   -0.1832    4.4863 H         1 RES1    0.0000
     19 C10        5.5406   -1.5309    5.9162 C.ar      1 RES1    0.0000
     20 H10        4.6617   -1.7186    5.6078 H         1 RES1    0.0000
     21 C11        6.0456   -2.1920    7.0389 C.ar      1 RES1    0.0000
     22 H11        5.5147   -2.8419    7.4848 H         1 RES1    0.0000
     23 C12        7.3068   -1.9048    7.4964 C.ar      1 RES1    0.0000
     24 H12        7.6420   -2.3722    8.2518 H         1 RES1    0.0000
     25 C13        9.1495   -1.1608    9.7175 C.ar      1 RES1    0.0000
     26 H13        8.2201   -0.9849    9.6239 H         1 RES1    0.0000
     27 C14        9.6401   -1.5443   10.9432 C.ar      1 RES1    0.0000
     28 H14        9.0520   -1.6438   11.6820 H         1 RES1    0.0000
     29 C15       11.0057   -1.7874   11.0981 C.ar      1 RES1    0.0000
     30 H15       11.3397   -2.1112   11.9248 H         1 RES1    0.0000
     31 C16       11.8629   -1.5600   10.0571 C.ar      1 RES1    0.0000
     32 H16       12.7955   -1.6894   10.1905 H         1 RES1    0.0000
     33 C17       13.7167   -0.9098    7.8710 C.ar      1 RES1    0.0000
     34 H17       14.0715   -1.2586    8.6796 H         1 RES1    0.0000
     35 C18       14.5676   -0.5290    6.8786 C.ar      1 RES1    0.0000
     36 H18       15.5044   -0.6095    7.0185 H         1 RES1    0.0000
     37 C19       16.3888    0.5610    4.8297 C.ar      1 RES1    0.0000
     38 H19       16.7557    0.2849    5.6618 H         1 RES1    0.0000
     39 C20       17.2176    1.0829    3.8715 C.ar      1 RES1    0.0000
     40 H20       18.1498    1.1554    4.0392 H         1 RES1    0.0000
     41 C21       16.6914    1.5087    2.6517 C.ar      1 RES1    0.0000
     42 H21       17.2598    1.9078    2.0042 H         1 RES1    0.0000
     43 C22       15.3547    1.3527    2.3827 C.ar      1 RES1    0.0000
     44 H22       15.0109    1.6333    1.5417 H         1 RES1    0.0000
     45 C23       11.0887    0.9221    1.6076 C.ar      1 RES1    0.0000
     46 C24       10.2672    1.1260    2.7796 C.ar      1 RES1    0.0000
     47 C25        8.9179    1.6503    2.7438 C.ar      1 RES1    0.0000
     48 C26        8.0522    1.3791    3.8353 C.ar      1 RES1    0.0000
     49 C27        8.5074    0.5183    4.9033 C.ar      1 RES1    0.0000
     50 C28        7.6174   -0.2830    5.7080 C.ar      1 RES1    0.0000
     51 C29        8.1226   -0.9270    6.8697 C.ar      1 RES1    0.0000
     52 C30        9.4956   -0.6931    7.2682 C.ar      1 RES1    0.0000
     53 C31       10.0000   -1.0229    8.5929 C.ar      1 RES1    0.0000
     54 C32       11.3999   -1.1379    8.7937 C.ar      1 RES1    0.0000
     55 C33       12.3170   -0.7962    7.7188 C.ar      1 RES1    0.0000
     56 C34       11.8129   -0.2848    6.5101 C.ar      1 RES1    0.0000
     57 C35       12.7056    0.0868    5.4637 C.ar      1 RES1    0.0000
     58 C36       14.0986   -0.0193    5.6522 C.ar      1 RES1    0.0000
     59 C37       14.9989    0.4248    4.6061 C.ar      1 RES1    0.0000
     60 C38       14.4791    0.7808    3.3366 C.ar      1 RES1    0.0000
     61 C39       13.0544    0.6640    3.0991 C.ar      1 RES1    0.0000
     62 C40       12.4728    0.6426    1.7718 C.ar      1 RES1    0.0000
     63 C41       10.7783    0.6967    4.0118 C.ar      1 RES1    0.0000
     64 C42        9.8798    0.3654    5.0856 C.ar      1 RES1    0.0000
     65 C43       10.3862   -0.2104    6.3031 C.ar      1 RES1    0.0000
     66 C44       12.1906    0.4925    4.1802 C.ar      1 RES1    0.0000
@<TRIPOS>BOND
     1    1    2 1
     2    3    1 ar
     3    4    3 1
     4    5    3 ar
     5    6    5 1
     6    7    5 ar
     7    8    7 1
     8    9   10 1
     9   11    9 ar
    10   12   11 1
    11   13   11 ar
    12   14   13 1
    13   15   13 ar
    14   16   15 1
    15   17   18 1
    16   19   17 ar
    17   20   19 1
    18   21   19 ar
    19   22   21 1
    20   23   21 ar
    21   24   23 1
    22   25   26 1
    23   27   25 ar
    24   28   27 1
    25   29   27 ar
    26   30   29 1
    27   31   29 ar
    28   32   31 1
    29   33   34 1
    30   35   33 ar
    31   36   35 1
    32   37   38 1
    33   39   37 ar
    34   40   39 1
    35   41   39 ar
    36   42   41 1
    37   43   41 ar
    38   44   43 1
    39   45    7 ar
    40   46   45 ar
    41   47    9 ar
    42   48   15 ar
    43   49   48 ar
    44   50   17 ar
    45   51   23 ar
    46   52   51 ar
    47   53   25 ar
    48   54   31 ar
    49   55   33 ar
    50   56   55 ar
    51   57   56 ar
    52   58   35 ar
    53   59   37 ar
    54   60   43 ar
    55   61   60 ar
    56   62    1 ar
    57   63   46 ar
    58   64   49 ar
    59   65   52 ar
    60   66   57 ar
    61   45   62 ar
    62   46   47 ar
    63   47   48 ar
    64   49   50 ar
    65   50   51 ar
    66   52   53 ar
    67   53   54 ar
    68   54   55 ar
    69   56   65 ar
    70   57   58 ar
    71   58   59 ar
    72   59   60 ar
    73   61   62 ar
    74   61   66 ar
    75   63   64 ar
    76   63   66 ar
    77   64   65 ar
@<TRIPOS>SUBSTRUCTURE
     1 RES1 1

@<TRIPOS>CRYSIN
  17.6246    7.4786   38.5418  90.0000  90.0000  90.0000  61 1

