# MOL2 file generated by ConQuest
# Please check atom types

@<TRIPOS>MOLECULE
TEGNOL
    56    65     1
SMALL
NO_CHARGES
****
Generated from CSD

@<TRIPOS>ATOM
      1 C1         3.2422    4.1568    1.6469 C.3       1 RES1    0.0000
      2 C2         1.7051    2.3742   -3.8553 C.ar      1 RES1    0.0000
      3 C3         2.0502    3.3563    1.0271 C.2       1 RES1    0.0000
      4 C4         2.1581    3.1796   -0.2997 C.2       1 RES1    0.0000
      5 C5         3.3305    5.4785    0.8774 C.ar      1 RES1    0.0000
      6 C6         3.4449    3.8261   -0.9135 C.3       1 RES1    0.0000
      7 C7         1.1304    3.0192    2.1078 C.ar      1 RES1    0.0000
      8 C8        -0.0487    2.3096    2.1892 C.ar      1 RES1    0.0000
      9 H1        -0.4298    1.9102    1.4154 H         1 RES1    0.0000
     10 C9         3.4000    7.8585    0.5686 C.ar      1 RES1    0.0000
     11 H2         3.3974    8.7350    0.9335 H         1 RES1    0.0000
     12 C10        2.1390    2.7949   -2.5915 C.ar      1 RES1    0.0000
     13 C11        3.4904    6.4066   -1.3407 C.ar      1 RES1    0.0000
     14 H3         3.5503    6.2879   -2.2821 H         1 RES1    0.0000
     15 C12        4.4971    3.3711    1.2419 C.ar      1 RES1    0.0000
     16 C13        3.3298    6.7520    1.4175 C.ar      1 RES1    0.0000
     17 H4         3.2817    6.8723    2.3591 H         1 RES1    0.0000
     18 C14        3.4195    5.3034   -0.5000 C.ar      1 RES1    0.0000
     19 C15        2.8863    4.2378    3.1081 C.ar      1 RES1    0.0000
     20 C16        1.0259    3.4938    4.5527 C.ar      1 RES1    0.0000
     21 C17        5.6807    2.5035   -0.6735 C.ar      1 RES1    0.0000
     22 H5         5.7680    2.4012   -1.6139 H         1 RES1    0.0000
     23 C18        3.5119    4.8148    4.1827 C.ar      1 RES1    0.0000
     24 H6         4.3552    5.2403    4.0803 H         1 RES1    0.0000
     25 C19        2.8783    4.7648    5.4477 C.ar      1 RES1    0.0000
     26 H7         3.2976    5.1822    6.1903 H         1 RES1    0.0000
     27 C20        1.6600    3.5822    3.3035 C.ar      1 RES1    0.0000
     28 C21       -0.1339    1.2964   -2.7313 C.ar      1 RES1    0.0000
     29 H8        -0.9079    0.7472   -2.7803 H         1 RES1    0.0000
     30 C22        3.3217    3.5307   -2.3803 C.ar      1 RES1    0.0000
     31 C23        0.2758    1.7711   -1.4713 C.ar      1 RES1    0.0000
     32 H9        -0.2279    1.5705   -0.6905 H         1 RES1    0.0000
     33 C24        4.6146    3.2066   -0.1432 C.ar      1 RES1    0.0000
     34 C25        1.4258    2.5355   -1.3889 C.ar      1 RES1    0.0000
     35 C26        0.5337    1.5902   -3.8926 C.ar      1 RES1    0.0000
     36 H10        0.2072    1.2645   -4.7222 H         1 RES1    0.0000
     37 C27        1.6762    4.1330    5.6328 C.ar      1 RES1    0.0000
     38 H11        1.2762    4.1240    6.4940 H         1 RES1    0.0000
     39 C28        4.0964    3.8638   -3.4614 C.ar      1 RES1    0.0000
     40 H12        4.9186    4.3253   -3.3432 H         1 RES1    0.0000
     41 C29       -0.1805    2.7532    4.5889 C.ar      1 RES1    0.0000
     42 H13       -0.6463    2.6484    5.4107 H         1 RES1    0.0000
     43 C30        6.4973    2.1009    1.5467 C.ar      1 RES1    0.0000
     44 H14        7.1452    1.7146    2.1242 H         1 RES1    0.0000
     45 C31       -0.6775    2.1876    3.4463 C.ar      1 RES1    0.0000
     46 H15       -1.4849    1.6900    3.5011 H         1 RES1    0.0000
     47 C32        5.4345    2.8145    2.0897 C.ar      1 RES1    0.0000
     48 H16        5.3541    2.9177    3.0313 H         1 RES1    0.0000
     49 C33        3.6508    3.5069   -4.7548 C.ar      1 RES1    0.0000
     50 H17        4.1633    3.7754   -5.5079 H         1 RES1    0.0000
     51 C34        6.6217    1.9478    0.1835 C.ar      1 RES1    0.0000
     52 H18        7.3543    1.4592   -0.1721 H         1 RES1    0.0000
     53 C35        3.4732    7.6858   -0.7958 C.ar      1 RES1    0.0000
     54 H19        3.5118    8.4445   -1.3668 H         1 RES1    0.0000
     55 C36        2.5008    2.7843   -4.9565 C.ar      1 RES1    0.0000
     56 H20        2.2355    2.5576   -5.8400 H         1 RES1    0.0000
@<TRIPOS>BOND
     1    1    3 1
     2    2   12 ar
     3    3    4 2
     4    4    6 1
     5    5    1 1
     6    6   18 1
     7    7    3 1
     8    8    7 ar
     9    9    8 1
    10   10   11 1
    11   12   30 ar
    12   13   14 1
    13   15    1 1
    14   16    5 ar
    15   17   16 1
    16   18    5 ar
    17   19    1 1
    18   20   27 ar
    19   21   22 1
    20   23   19 ar
    21   24   23 1
    22   25   23 ar
    23   26   25 1
    24   27    7 ar
    25   28   29 1
    26   30    6 1
    27   31   28 ar
    28   32   31 1
    29   33    6 1
    30   34    4 1
    31   35    2 ar
    32   36   35 1
    33   37   20 ar
    34   38   37 1
    35   39   30 ar
    36   40   39 1
    37   41   20 ar
    38   42   41 1
    39   43   44 1
    40   45    8 ar
    41   46   45 1
    42   47   15 ar
    43   48   47 1
    44   49   39 ar
    45   50   49 1
    46   51   21 ar
    47   52   51 1
    48   53   10 ar
    49   54   53 1
    50   55    2 ar
    51   56   55 1
    52   10   16 ar
    53   12   34 ar
    54   13   18 ar
    55   13   53 ar
    56   15   33 ar
    57   19   27 ar
    58   21   33 ar
    59   25   37 ar
    60   28   35 ar
    61   31   34 ar
    62   41   45 ar
    63   43   47 ar
    64   43   51 ar
    65   49   55 ar
@<TRIPOS>SUBSTRUCTURE
     1 RES1 1

@<TRIPOS>CRYSIN
  13.5571    8.1842   20.2700  90.0000  92.5780  90.0000 231 1

