# MOL2 file generated by ConQuest
# Please check atom types

@<TRIPOS>MOLECULE
TEKNII
    86    90     1
SMALL
NO_CHARGES
****
Generated from CSD

@<TRIPOS>ATOM
      1 C1         1.7810    2.3922   11.4855 C.3       1 RES1    0.0000
      2 H1         1.6912    3.3259   11.2024 H         1 RES1    0.0000
      3 H2         1.7616    2.3441   12.4647 H         1 RES1    0.0000
      4 H3         1.0401    1.8661   11.1189 H         1 RES1    0.0000
      5 C2         3.1035    1.8317   10.9765 C.3       1 RES1    0.0000
      6 H4         3.8444    2.3701   11.3515 H         1 RES1    0.0000
      7 H5         3.2065    0.9038   11.3094 H         1 RES1    0.0000
      8 C3         3.2215    1.8242    9.4608 C.3       1 RES1    0.0000
      9 H6         3.2001    2.7602    9.1345 H         1 RES1    0.0000
     10 H7         2.4360    1.3557    9.0822 H         1 RES1    0.0000
     11 C4         4.4897    1.1522    8.9440 C.3       1 RES1    0.0000
     12 H8         5.2751    1.6678    9.2558 H         1 RES1    0.0000
     13 H9         4.5520    0.2438    9.3325 H         1 RES1    0.0000
     14 C5         4.5419    1.0443    7.4292 C.3       1 RES1    0.0000
     15 H10        4.5250    1.9572    7.0472 H         1 RES1    0.0000
     16 H11        3.7276    0.5754    7.1180 H         1 RES1    0.0000
     17 C6         5.7668    0.3082    6.8812 C.3       1 RES1    0.0000
     18 H12        5.7926   -0.5982    7.2781 H         1 RES1    0.0000
     19 H13        5.6600    0.2016    5.9029 H         1 RES1    0.0000
     20 C7         7.1018    0.9948    7.1521 C.3       1 RES1    0.0000
     21 H14        7.8339    0.4096    6.8323 H         1 RES1    0.0000
     22 H15        7.2121    1.1086    8.1292 H         1 RES1    0.0000
     23 C8         7.2281    2.3613    6.4767 C.3       1 RES1    0.0000
     24 H16        7.1839    2.2498    5.4942 H         1 RES1    0.0000
     25 H17        6.4738    2.9390    6.7548 H         1 RES1    0.0000
     26 C9         8.5352    3.0226    6.8519 C.ar      1 RES1    0.0000
     27 C10        8.6200    3.8870    7.9384 C.ar      1 RES1    0.0000
     28 C11        7.4346    4.4095    8.6876 C.ar      1 RES1    0.0000
     29 C12        6.3217    5.0009    8.0956 C.ar      1 RES1    0.0000
     30 C13        6.3005    5.4102    6.6343 C.3       1 RES1    0.0000
     31 H18        5.4308    5.1530    6.2374 H         1 RES1    0.0000
     32 H19        7.0124    4.9222    6.1498 H         1 RES1    0.0000
     33 C14        6.5111    6.9275    6.4490 C.3       1 RES1    0.0000
     34 H20        6.3097    7.1654    5.5093 H         1 RES1    0.0000
     35 H21        5.8706    7.4125    7.0278 H         1 RES1    0.0000
     36 C15        7.9345    7.3898    6.7856 C.3       1 RES1    0.0000
     37 H22        7.9667    8.3781    6.7447 H         1 RES1    0.0000
     38 H23        8.1460    7.1199    7.7146 H         1 RES1    0.0000
     39 C16        9.0035    6.8251    5.8567 C.3       1 RES1    0.0000
     40 H24        9.0053    5.8390    5.9332 H         1 RES1    0.0000
     41 H25        8.7699    7.0549    4.9228 H         1 RES1    0.0000
     42 C17       10.4020    7.3446    6.1562 C.3       1 RES1    0.0000
     43 H26       10.4129    8.3261    6.0301 H         1 RES1    0.0000
     44 H27       10.6157    7.1589    7.1053 H         1 RES1    0.0000
     45 C18       11.4782    6.7233    5.2799 C.3       1 RES1    0.0000
     46 H28       11.2236    6.8371    4.3304 H         1 RES1    0.0000
     47 H29       11.5204    5.7512    5.4647 H         1 RES1    0.0000
     48 C19       12.8588    7.3241    5.4944 C.3       1 RES1    0.0000
     49 H30       13.0996    7.2435    6.4514 H         1 RES1    0.0000
     50 H31       12.8295    8.2871    5.2683 H         1 RES1    0.0000
     51 C20       13.9390    6.6485    4.6530 C.3       1 RES1    0.0000
     52 H32       13.9744    5.6927    4.8714 H         1 RES1    0.0000
     53 H33       14.8078    7.0614    4.8453 H         1 RES1    0.0000
     54 H34       13.7288    6.7591    3.7018 H         1 RES1    0.0000
     55 C21        9.7412    2.6197    6.1773 C.ar      1 RES1    0.0000
     56 C22        9.7424    1.7982    5.0165 C.ar      1 RES1    0.0000
     57 H35        8.9142    1.4955    4.6616 H         1 RES1    0.0000
     58 C23       10.9068    1.4337    4.3985 C.ar      1 RES1    0.0000
     59 H36       10.8758    0.8908    3.6192 H         1 RES1    0.0000
     60 C24       12.1491    1.8548    4.9065 C.ar      1 RES1    0.0000
     61 H37       12.9538    1.5898    4.4771 H         1 RES1    0.0000
     62 C25       12.1956    2.6461    6.0199 C.ar      1 RES1    0.0000
     63 H38       13.0372    2.9325    6.3571 H         1 RES1    0.0000
     64 C26       11.0075    3.0473    6.6790 C.ar      1 RES1    0.0000
     65 C27       11.0496    3.8123    7.8647 C.ar      1 RES1    0.0000
     66 H39       11.8915    4.0541    8.2337 H         1 RES1    0.0000
     67 C28        9.9054    4.2131    8.4926 C.ar      1 RES1    0.0000
     68 C29        9.9260    4.8351    9.8603 C.3       1 RES1    0.0000
     69 H40        9.6923    5.7967    9.8052 H         1 RES1    0.0000
     70 H41       10.8276    4.7531   10.2620 H         1 RES1    0.0000
     71 C30        8.8942    4.0844   10.7076 C.3       1 RES1    0.0000
     72 H42        9.0849    3.1146   10.6951 H         1 RES1    0.0000
     73 H43        8.9304    4.3988   11.6456 H         1 RES1    0.0000
     74 C31        7.5311    4.3539   10.1220 C.ar      1 RES1    0.0000
     75 C32        6.4588    4.6722   10.8997 C.ar      1 RES1    0.0000
     76 H44        6.5266    4.5938   11.8445 H         1 RES1    0.0000
     77 C33        5.2437    5.1159   10.3225 C.ar      1 RES1    0.0000
     78 C34        5.1860    5.3289    8.9172 C.ar      1 RES1    0.0000
     79 C35        3.9766    5.8419    8.3757 C.ar      1 RES1    0.0000
     80 H45        3.9128    5.9918    7.4399 H         1 RES1    0.0000
     81 C36        2.8994    6.1251    9.1749 C.ar      1 RES1    0.0000
     82 H46        2.1002    6.4600    8.7865 H         1 RES1    0.0000
     83 C37        2.9687    5.9238   10.5635 C.ar      1 RES1    0.0000
     84 H47        2.2234    6.1316   11.1131 H         1 RES1    0.0000
     85 C38        4.1118    5.4261   11.1202 C.ar      1 RES1    0.0000
     86 H48        4.1500    5.2863   12.0585 H         1 RES1    0.0000
@<TRIPOS>BOND
     1    1    2 1
     2    3    1 1
     3    4    1 1
     4    5    1 1
     5    6    5 1
     6    7    5 1
     7    8    5 1
     8    9    8 1
     9   10    8 1
    10   11    8 1
    11   12   11 1
    12   13   11 1
    13   14   11 1
    14   15   14 1
    15   16   14 1
    16   17   14 1
    17   18   17 1
    18   19   17 1
    19   20   17 1
    20   21   20 1
    21   22   20 1
    22   23   20 1
    23   24   23 1
    24   25   23 1
    25   26   23 1
    26   27   26 ar
    27   28   27 1
    28   29   28 ar
    29   30   29 1
    30   31   30 1
    31   32   30 1
    32   33   30 1
    33   34   33 1
    34   35   33 1
    35   36   33 1
    36   37   36 1
    37   38   36 1
    38   39   36 1
    39   40   39 1
    40   41   39 1
    41   42   39 1
    42   43   42 1
    43   44   42 1
    44   45   42 1
    45   46   45 1
    46   47   45 1
    47   48   45 1
    48   49   48 1
    49   50   48 1
    50   51   48 1
    51   52   51 1
    52   53   51 1
    53   54   51 1
    54   55   26 ar
    55   56   55 ar
    56   57   56 1
    57   58   56 ar
    58   59   58 1
    59   60   58 ar
    60   61   60 1
    61   62   60 ar
    62   63   62 1
    63   64   55 ar
    64   65   64 ar
    65   66   65 1
    66   67   27 ar
    67   68   67 1
    68   69   68 1
    69   70   68 1
    70   71   68 1
    71   72   71 1
    72   73   71 1
    73   74   28 ar
    74   75   74 ar
    75   76   75 1
    76   77   75 ar
    77   78   29 ar
    78   79   78 ar
    79   80   79 1
    80   81   79 ar
    81   82   81 1
    82   83   81 ar
    83   84   83 1
    84   85   77 ar
    85   86   85 1
    86   62   64 ar
    87   65   67 ar
    88   71   74 1
    89   77   78 ar
    90   83   85 ar
@<TRIPOS>SUBSTRUCTURE
     1 RES1 1

@<TRIPOS>CRYSIN
  10.9261   32.5111    8.9800  90.0000 110.2190  90.0000  14 1

