# MOL2 file generated by ConQuest
# Please check atom types

@<TRIPOS>MOLECULE
TEMYEP
    72    80     2
SMALL
NO_CHARGES
****
Generated from CSD

@<TRIPOS>ATOM
      1 C1         0.2506    7.4127    7.3033 C.ar      1 RES1    0.0000
      2 C2         1.1125    8.2925    6.5735 C.ar      1 RES1    0.0000
      3 C3         1.9420    9.1373    7.2254 C.ar      1 RES1    0.0000
      4 C4         2.8521   10.0698    6.6514 C.1       1 RES1    0.0000
      5 C5         3.6884   10.9399    6.6562 C.1       1 RES1    0.0000
      6 C6         4.5907   11.8840    7.2763 C.ar      1 RES1    0.0000
      7 C7         5.4742   12.7347    6.5290 C.ar      1 RES1    0.0000
      8 C8         5.5135   12.7152    5.1185 C.ar      1 RES1    0.0000
      9 C9         6.3479   13.5367    4.4348 C.ar      1 RES1    0.0000
     10 C10        7.1607   14.3834    5.1154 C.ar      1 RES1    0.0000
     11 C11        7.1548   14.4593    6.4797 C.ar      1 RES1    0.0000
     12 C12        6.3302   13.6359    7.2222 C.ar      1 RES1    0.0000
     13 C13        7.1361    5.0359   -0.7108 C.ar      2 RES2    0.0000
     14 C14        6.2771    5.8982   -1.3707 C.ar      2 RES2    0.0000
     15 C15        5.4408    6.7372   -0.7060 C.ar      2 RES2    0.0000
     16 C16        4.5258    7.6774   -1.3039 C.1       2 RES2    0.0000
     17 C17        3.6560    8.5164   -1.2800 C.1       2 RES2    0.0000
     18 C18        2.7558    9.4332   -0.7060 C.ar      2 RES2    0.0000
     19 C19        1.9106   10.3481   -1.4247 C.ar      2 RES2    0.0000
     20 C20        1.9725   10.3929   -2.8336 C.ar      2 RES2    0.0000
     21 C21        1.1862   11.2961   -3.5332 C.ar      2 RES2    0.0000
     22 C22        0.3391   12.1137   -2.8685 C.ar      2 RES2    0.0000
     23 C23        0.2496   12.0748   -1.5042 C.ar      2 RES2    0.0000
     24 C24        1.0300   11.2183   -0.7140 C.ar      2 RES2    0.0000
     25 H1        -0.3332    6.8228    6.8215 H         1 RES1    0.0000
     26 H2         1.0880    8.2672    5.6146 H         1 RES1    0.0000
     27 H3         4.9376   12.1137    4.6399 H         1 RES1    0.0000
     28 H4         6.3862   13.5036    3.4760 H         1 RES1    0.0000
     29 H5         7.7435   14.9596    4.6161 H         1 RES1    0.0000
     30 H6         7.7228   15.0784    6.9424 H         1 RES1    0.0000
     31 H7         7.7150    4.4538   -1.2085 H         2 RES2    0.0000
     32 H8         6.2506    5.9099   -2.3311 H         2 RES2    0.0000
     33 H9         2.5563    9.7953   -3.3074 H         2 RES2    0.0000
     34 H10        1.2550   11.3623   -4.4889 H         2 RES2    0.0000
     35 H11       -0.2093   12.7347   -3.3551 H         2 RES2    0.0000
     36 H12       -0.3882   12.6451   -1.0701 H         2 RES2    0.0000
     37 C1E        0.2506    7.4127    8.5977 C.ar      1 RES1    0.0000
     38 C2E        1.1125    8.2925    9.3275 C.ar      1 RES1    0.0000
     39 C3E        1.9420    9.1373    8.6756 C.ar      1 RES1    0.0000
     40 C6E        4.5907   11.8840    8.6247 C.ar      1 RES1    0.0000
     41 C5E        3.6884   10.9399    9.2448 C.1       1 RES1    0.0000
     42 C4E        2.8521   10.0698    9.2496 C.1       1 RES1    0.0000
     43 C7E        5.4742   12.7347    9.3720 C.ar      1 RES1    0.0000
     44 C8E        5.5135   12.7152   10.7825 C.ar      1 RES1    0.0000
     45 C9E        6.3479   13.5367   11.4662 C.ar      1 RES1    0.0000
     46 C10E       7.1607   14.3834   10.7856 C.ar      1 RES1    0.0000
     47 C11E       7.1548   14.4593    9.4213 C.ar      1 RES1    0.0000
     48 C12E       6.3302   13.6359    8.6788 C.ar      1 RES1    0.0000
     49 H6E        7.7228   15.0784    8.9586 H         1 RES1    0.0000
     50 H5E        7.7435   14.9596   11.2849 H         1 RES1    0.0000
     51 H4E        6.3862   13.5036   12.4250 H         1 RES1    0.0000
     52 H3E        4.9376   12.1137   11.2611 H         1 RES1    0.0000
     53 H2E        1.0880    8.2672   10.2864 H         1 RES1    0.0000
     54 H1E       -0.3332    6.8228    9.0795 H         1 RES1    0.0000
     55 C13E       7.1361    5.0359    0.7108 C.ar      2 RES2    0.0000
     56 C14E       6.2771    5.8982    1.3707 C.ar      2 RES2    0.0000
     57 C15E       5.4408    6.7372    0.7060 C.ar      2 RES2    0.0000
     58 C18E       2.7558    9.4332    0.7060 C.ar      2 RES2    0.0000
     59 C17E       3.6560    8.5164    1.2800 C.1       2 RES2    0.0000
     60 C16E       4.5258    7.6774    1.3039 C.1       2 RES2    0.0000
     61 C19E       1.9106   10.3481    1.4247 C.ar      2 RES2    0.0000
     62 C20E       1.9725   10.3929    2.8336 C.ar      2 RES2    0.0000
     63 C21E       1.1862   11.2961    3.5332 C.ar      2 RES2    0.0000
     64 C22E       0.3391   12.1137    2.8685 C.ar      2 RES2    0.0000
     65 C23E       0.2496   12.0748    1.5042 C.ar      2 RES2    0.0000
     66 C24E       1.0300   11.2183    0.7140 C.ar      2 RES2    0.0000
     67 H12E      -0.3882   12.6451    1.0701 H         2 RES2    0.0000
     68 H11E      -0.2093   12.7347    3.3551 H         2 RES2    0.0000
     69 H10E       1.2550   11.3623    4.4889 H         2 RES2    0.0000
     70 H9E        2.5563    9.7953    3.3074 H         2 RES2    0.0000
     71 H8E        6.2506    5.9099    2.3311 H         2 RES2    0.0000
     72 H7E        7.7150    4.4538    1.2085 H         2 RES2    0.0000
@<TRIPOS>BOND
     1    1    2 ar
     2    2    3 ar
     3    3    4 1
     4    4    5 3
     5    5    6 1
     6    6    7 ar
     7    7    8 ar
     8    8    9 ar
     9    9   10 ar
    10   10   11 ar
    11   11   12 ar
    12   12    7 ar
    13   13   14 ar
    14   14   15 ar
    15   15   16 1
    16   16   17 3
    17   17   18 1
    18   18   19 ar
    19   19   20 ar
    20   20   21 ar
    21   21   22 ar
    22   22   23 ar
    23   23   24 ar
    24   24   19 ar
    25   25    1 1
    26   26    2 1
    27   27    8 1
    28   28    9 1
    29   29   10 1
    30   30   11 1
    31   31   13 1
    32   32   14 1
    33   33   20 1
    34   34   21 1
    35   35   22 1
    36   36   23 1
    37   37    1 ar
    38   38   37 ar
    39   39    3 ar
    40   40    6 ar
    41   41   40 1
    42   42   39 1
    43   43   40 ar
    44   44   43 ar
    45   45   44 ar
    46   46   45 ar
    47   47   46 ar
    48   48   12 ar
    49   49   47 1
    50   50   46 1
    51   51   45 1
    52   52   44 1
    53   53   38 1
    54   54   37 1
    55   55   13 ar
    56   56   55 ar
    57   57   15 ar
    58   58   18 ar
    59   59   58 1
    60   60   57 1
    61   61   58 ar
    62   62   61 ar
    63   63   62 ar
    64   64   63 ar
    65   65   64 ar
    66   66   24 ar
    67   67   65 1
    68   68   64 1
    69   69   63 1
    70   70   62 1
    71   71   56 1
    72   72   55 1
    73   38   39 ar
    74   41   42 3
    75   43   48 ar
    76   47   48 ar
    77   56   57 ar
    78   59   60 3
    79   61   66 ar
    80   65   66 ar
@<TRIPOS>SUBSTRUCTURE
     1 RES1 1
     2 RES2 13

@<TRIPOS>CRYSIN
   9.8280   19.4660   15.9010  90.0000  90.0000  90.0000  55 1

