# MOL2 file generated by ConQuest
# Please check atom types

@<TRIPOS>MOLECULE
TEQLEG
    48    52     1
SMALL
NO_CHARGES
****
Generated from CSD

@<TRIPOS>ATOM
      1 C1         8.2198    2.2738   13.6327 C.ar      1 RES1    0.0000
      2 C2         8.4230    1.7765   12.3125 C.ar      1 RES1    0.0000
      3 C3         8.8869    0.5042   12.1135 C.ar      1 RES1    0.0000
      4 C4         9.1539   -0.3355   13.2075 C.ar      1 RES1    0.0000
      5 C5         8.9902    0.1139   14.4938 C.ar      1 RES1    0.0000
      6 C6         8.5141    1.4380   14.7432 C.ar      1 RES1    0.0000
      7 C7         8.3143    1.9168   16.0620 C.ar      1 RES1    0.0000
      8 C8         7.7916    3.1862   16.2645 C.ar      1 RES1    0.0000
      9 C9         7.5352    3.6881   17.6694 C.3       1 RES1    0.0000
     10 C10        7.0646    4.9968   17.8134 C.3       1 RES1    0.0000
     11 C11        6.2209    5.5545   16.7292 C.3       1 RES1    0.0000
     12 C12        6.8674    5.3904   15.4049 C.3       1 RES1    0.0000
     13 C13        7.4652    4.0119   15.1543 C.ar      1 RES1    0.0000
     14 C14        7.6752    3.5745   13.8724 C.ar      1 RES1    0.0000
     15 C15        7.3169    4.4409   12.6913 C.ar      1 RES1    0.0000
     16 C16        6.1102    4.2605   12.0440 C.ar      1 RES1    0.0000
     17 C17        5.7967    5.0648   10.9462 C.ar      1 RES1    0.0000
     18 C18        6.6498    6.0238   10.4849 C.ar      1 RES1    0.0000
     19 C19        7.8647    6.2073   11.1214 C.ar      1 RES1    0.0000
     20 C20        8.2005    5.4316   12.2457 C.ar      1 RES1    0.0000
     21 C21        8.6278    1.0492   17.2268 C.ar      1 RES1    0.0000
     22 C22        9.9233    0.8776   17.6688 C.ar      1 RES1    0.0000
     23 C23       10.1989    0.0966   18.7850 C.ar      1 RES1    0.0000
     24 C24        9.1765   -0.5464   19.4612 C.ar      1 RES1    0.0000
     25 C25        7.8807   -0.3834   19.0344 C.ar      1 RES1    0.0000
     26 C26        7.5980    0.3872   17.9078 C.ar      1 RES1    0.0000
     27 H1         8.2231    2.4732   11.5165 H         1 RES1    0.0000
     28 H2         9.1447   -0.1590   11.1559 H         1 RES1    0.0000
     29 H3         9.4789   -1.3956   13.1920 H         1 RES1    0.0000
     30 H4         9.1751   -0.5300   15.3341 H         1 RES1    0.0000
     31 H5         8.3548    3.6039   18.1761 H         1 RES1    0.0000
     32 H6         6.8864    3.1092   18.0913 H         1 RES1    0.0000
     33 H7         7.8586    5.5648   17.8368 H         1 RES1    0.0000
     34 H8         6.6332    5.0878   18.6427 H         1 RES1    0.0000
     35 H9         5.9648    6.4658   16.9036 H         1 RES1    0.0000
     36 H10        5.3572    5.0348   16.7339 H         1 RES1    0.0000
     37 H11        7.5446    6.0594   15.3553 H         1 RES1    0.0000
     38 H12        6.2079    5.5825   14.7190 H         1 RES1    0.0000
     39 H13        5.3572    3.3565   12.3648 H         1 RES1    0.0000
     40 H14        4.7597    4.9465   10.5833 H         1 RES1    0.0000
     41 H15        6.5724    6.6424    9.4380 H         1 RES1    0.0000
     42 H16        8.6282    7.1724   10.8590 H         1 RES1    0.0000
     43 H17        9.2763    5.5648   12.7254 H         1 RES1    0.0000
     44 H18       10.7650    1.5546   17.2217 H         1 RES1    0.0000
     45 H19       11.2612   -0.1590   19.2154 H         1 RES1    0.0000
     46 H20        9.4080   -1.0423   20.4031 H         1 RES1    0.0000
     47 H21        7.0788   -1.0600   19.5123 H         1 RES1    0.0000
     48 H22        6.5826    0.8480   17.6671 H         1 RES1    0.0000
@<TRIPOS>BOND
     1    1    2 ar
     2    2    3 ar
     3    3    4 ar
     4    4    5 ar
     5    5    6 ar
     6    6    1 ar
     7    7    6 ar
     8    8    7 ar
     9    9    8 1
    10   10    9 1
    11   11   10 1
    12   12   11 1
    13   13    8 ar
    14   14    1 ar
    15   15   14 1
    16   16   15 ar
    17   17   16 ar
    18   18   17 ar
    19   19   18 ar
    20   20   15 ar
    21   21    7 1
    22   22   21 ar
    23   23   22 ar
    24   24   23 ar
    25   25   24 ar
    26   26   21 ar
    27   27    2 1
    28   28    3 1
    29   29    4 1
    30   30    5 1
    31   31    9 1
    32   32    9 1
    33   33   10 1
    34   34   10 1
    35   35   11 1
    36   36   11 1
    37   37   12 1
    38   38   12 1
    39   39   16 1
    40   40   17 1
    41   41   18 1
    42   42   19 1
    43   43   20 1
    44   44   22 1
    45   45   23 1
    46   46   24 1
    47   47   25 1
    48   48   26 1
    49   12   13 1
    50   13   14 ar
    51   19   20 ar
    52   25   26 ar
@<TRIPOS>SUBSTRUCTURE
     1 RES1 1

@<TRIPOS>CRYSIN
  10.1270   17.6660   21.2090  90.0000  90.0000  90.0000  61 1

