# MOL2 file generated by ConQuest
# Please check atom types

@<TRIPOS>MOLECULE
TETCEN
    60    66     2
SMALL
NO_CHARGES
****
Generated from CSD

@<TRIPOS>ATOM
      1 C1        -1.1172   -0.6098    4.7694 C.ar      1 RES1    0.0000
      2 C2        -0.4746    0.2717    3.9467 C.ar      1 RES1    0.0000
      3 C3        -0.4185    0.0114    2.5012 C.ar      1 RES1    0.0000
      4 C4         0.2133    0.8599    1.6675 C.ar      1 RES1    0.0000
      5 C5         0.2988    0.6114    0.2587 C.ar      1 RES1    0.0000
      6 C6         0.9076    1.4480   -0.6327 C.ar      1 RES1    0.0000
      7 C7        -0.9548   -1.1859    2.0071 C.ar      1 RES1    0.0000
      8 C8        -1.6568   -2.0820    2.8874 C.ar      1 RES1    0.0000
      9 C9        -1.7168   -1.8267    4.2704 C.ar      1 RES1    0.0000
     10 H1        -1.1390   -0.3757    5.7626 H         1 RES1    0.0000
     11 H2        -0.0620    1.1818    4.2790 H         1 RES1    0.0000
     12 H3         0.6487    1.7870    2.0230 H         1 RES1    0.0000
     13 H4         1.3268    2.3805   -0.2697 H         1 RES1    0.0000
     14 H5        -1.9925   -2.9775    2.4767 H         1 RES1    0.0000
     15 H6        -2.1537   -2.5107    4.9043 H         1 RES1    0.0000
     16 C10       -5.7985   -3.3871    4.6432 C.ar      2 RES2    0.0000
     17 C11       -5.7926   -2.4982    3.5924 C.ar      2 RES2    0.0000
     18 C12       -5.1511   -2.8937    2.3872 C.ar      2 RES2    0.0000
     19 C13       -5.0793   -2.0190    1.2849 C.ar      2 RES2    0.0000
     20 C14       -4.4139   -2.3335    0.0638 C.ar      2 RES2    0.0000
     21 C15       -4.3628   -1.4866   -1.0201 C.ar      2 RES2    0.0000
     22 C16       -4.5636   -4.1983    2.2204 C.ar      2 RES2    0.0000
     23 C17       -4.6386   -5.0305    3.2920 C.ar      2 RES2    0.0000
     24 C18       -5.2437   -4.7452    4.4691 C.ar      2 RES2    0.0000
     25 H7        -6.2611   -3.0502    5.5664 H         2 RES2    0.0000
     26 H8        -6.2258   -1.5248    3.7395 H         2 RES2    0.0000
     27 H9        -5.5088   -1.0193    1.3977 H         2 RES2    0.0000
     28 H10       -4.7873   -0.5302   -0.8828 H         2 RES2    0.0000
     29 H11       -4.1915   -6.0080    3.1020 H         2 RES2    0.0000
     30 H12       -5.2842   -5.4210    5.2108 H         2 RES2    0.0000
     31 C5A       -0.2988   -0.6114   -0.2587 C.ar      1 RES1    0.0000
     32 C7A        0.9548    1.1859   -2.0071 C.ar      1 RES1    0.0000
     33 C6A       -0.9076   -1.4480    0.6327 C.ar      1 RES1    0.0000
     34 C4A       -0.2133   -0.8599   -1.6675 C.ar      1 RES1    0.0000
     35 C3A        0.4185   -0.0114   -2.5012 C.ar      1 RES1    0.0000
     36 C8A        1.6568    2.0820   -2.8874 C.ar      1 RES1    0.0000
     37 H4A       -1.3268   -2.3805    0.2697 H         1 RES1    0.0000
     38 H3A       -0.6487   -1.7870   -2.0230 H         1 RES1    0.0000
     39 C2A        0.4746   -0.2717   -3.9467 C.ar      1 RES1    0.0000
     40 C9A        1.7168    1.8267   -4.2704 C.ar      1 RES1    0.0000
     41 H5A        1.9925    2.9775   -2.4767 H         1 RES1    0.0000
     42 C1A        1.1172    0.6098   -4.7694 C.ar      1 RES1    0.0000
     43 H2A        0.0620   -1.1818   -4.2790 H         1 RES1    0.0000
     44 H6A        2.1537    2.5107   -4.9043 H         1 RES1    0.0000
     45 H1A        1.1390    0.3757   -5.7626 H         1 RES1    0.0000
     46 C14A      -3.8752   -3.6839   -0.0638 C.ar      2 RES2    0.0000
     47 C16A      -3.7255   -1.8192   -2.2204 C.ar      2 RES2    0.0000
     48 C15A      -3.9263   -4.5308    1.0201 C.ar      2 RES2    0.0000
     49 C13A      -3.2098   -3.9985   -1.2849 C.ar      2 RES2    0.0000
     50 C12A      -3.1381   -3.1237   -2.3872 C.ar      2 RES2    0.0000
     51 C17A      -3.6506   -0.9869   -3.2920 C.ar      2 RES2    0.0000
     52 H10A      -3.5018   -5.4872    0.8828 H         2 RES2    0.0000
     53 H9A       -2.7803   -4.9981   -1.3977 H         2 RES2    0.0000
     54 C11A      -2.4965   -3.5192   -3.5924 C.ar      2 RES2    0.0000
     55 C18A      -3.0454   -1.2723   -4.4691 C.ar      2 RES2    0.0000
     56 H11A      -4.0976   -0.0094   -3.1020 H         2 RES2    0.0000
     57 C10A      -2.4907   -2.6304   -4.6432 C.ar      2 RES2    0.0000
     58 H8A       -2.0634   -4.4926   -3.7395 H         2 RES2    0.0000
     59 H12A      -3.0050   -0.5965   -5.2108 H         2 RES2    0.0000
     60 H7A       -2.0280   -2.9672   -5.5664 H         2 RES2    0.0000
@<TRIPOS>BOND
     1    1    2 ar
     2    2    3 ar
     3    3    4 ar
     4    4    5 ar
     5    5    6 ar
     6    6   13 1
     7    7    3 ar
     8    8    7 ar
     9    9    1 ar
    10   10    1 1
    11   11    2 1
    12   12    4 1
    13   14    8 1
    14   15    9 1
    15   16   17 ar
    16   17   18 ar
    17   18   19 ar
    18   19   20 ar
    19   20   21 ar
    20   21   28 1
    21   22   18 ar
    22   23   22 ar
    23   24   16 ar
    24   25   16 1
    25   26   17 1
    26   27   19 1
    27   29   23 1
    28   30   24 1
    29   31    5 ar
    30   32    6 ar
    31   33    7 ar
    32   34   31 ar
    33   35   32 ar
    34   36   32 ar
    35   37   33 1
    36   38   34 1
    37   39   35 ar
    38   40   36 ar
    39   41   36 1
    40   42   39 ar
    41   43   39 1
    42   44   40 1
    43   45   42 1
    44   46   20 ar
    45   47   21 ar
    46   48   22 ar
    47   49   46 ar
    48   50   47 ar
    49   51   47 ar
    50   52   48 1
    51   53   49 1
    52   54   50 ar
    53   55   51 ar
    54   56   51 1
    55   57   54 ar
    56   58   54 1
    57   59   55 1
    58   60   57 1
    59    8    9 ar
    60   23   24 ar
    61   31   33 ar
    62   34   35 ar
    63   40   42 ar
    64   46   48 ar
    65   49   50 ar
    66   55   57 ar
@<TRIPOS>SUBSTRUCTURE
     1 RES1 1
     2 RES2 16

@<TRIPOS>CRYSIN
   7.9000    6.0300   13.5300 100.3000 113.2000  86.3000   2 1

