# MOL2 file generated by ConQuest
# Please check atom types

@<TRIPOS>MOLECULE
TETCEN01
    60    66     2
SMALL
NO_CHARGES
****
Generated from CSD

@<TRIPOS>ATOM
      1 C1        -0.5652    3.7681   -1.6521 C.ar      1 RES1    0.0000
      2 C2         0.3631    4.3495   -2.5114 C.ar      1 RES1    0.0000
      3 C3         0.1343    4.4701   -3.9117 C.ar      1 RES1    0.0000
      4 C4         1.0697    5.0266   -4.7408 C.ar      1 RES1    0.0000
      5 C5         2.2961    5.5199   -4.1974 C.ar      1 RES1    0.0000
      6 C6         2.5501    5.4407   -2.8769 C.ar      1 RES1    0.0000
      7 C7         1.6166    4.8516   -1.9704 C.ar      1 RES1    0.0000
      8 C8         1.8373    4.7383   -0.6052 C.ar      1 RES1    0.0000
      9 C9        -0.3373    3.6608   -0.2808 C.ar      1 RES1    0.0000
     10 H1        -1.3871    3.4371   -1.9946 H         1 RES1    0.0000
     11 H2        -0.6853    4.1572   -4.2785 H         1 RES1    0.0000
     12 H3         0.9052    5.0845   -5.6752 H         1 RES1    0.0000
     13 H4         2.9416    5.9088   -4.7747 H         1 RES1    0.0000
     14 H5         3.3688    5.7851   -2.5417 H         1 RES1    0.0000
     15 H6         2.6536    5.0701   -0.2517 H         1 RES1    0.0000
     16 C10       -3.9528    1.0073   -1.2720 C.ar      2 RES2    0.0000
     17 C11       -3.0681    1.0200   -2.3395 C.ar      2 RES2    0.0000
     18 C12       -3.3618    1.6727   -3.5777 C.ar      2 RES2    0.0000
     19 C13       -2.4818    1.6547   -4.6065 C.ar      2 RES2    0.0000
     20 C14       -1.2293    0.9706   -4.4733 C.ar      2 RES2    0.0000
     21 C15       -0.9087    0.3443   -3.3296 C.ar      2 RES2    0.0000
     22 C16       -1.7974    0.3325   -2.2112 C.ar      2 RES2    0.0000
     23 C17       -1.4979   -0.3159   -1.0251 C.ar      2 RES2    0.0000
     24 C18       -3.6673    0.3431   -0.0654 C.ar      2 RES2    0.0000
     25 H7        -4.7881    1.4541   -1.3422 H         2 RES2    0.0000
     26 H8        -4.1899    2.1266   -3.6806 H         2 RES2    0.0000
     27 H9        -2.6951    2.0966   -5.4198 H         2 RES2    0.0000
     28 H10       -0.6195    0.9610   -5.2019 H         2 RES2    0.0000
     29 H11       -0.0717   -0.1014   -3.2618 H         2 RES2    0.0000
     30 H12       -0.6609   -0.7577   -0.9428 H         2 RES2    0.0000
     31 C9A        0.9124    4.1557    0.2808 C.ar      1 RES1    0.0000
     32 C1A        1.1403    4.0483    1.6521 C.ar      1 RES1    0.0000
     33 C2A        0.2120    3.4670    2.5114 C.ar      1 RES1    0.0000
     34 C3A        0.4408    3.3464    3.9117 C.ar      1 RES1    0.0000
     35 C4A       -0.4946    2.7898    4.7408 C.ar      1 RES1    0.0000
     36 C5A       -1.7210    2.2966    4.1974 C.ar      1 RES1    0.0000
     37 C6A       -1.9750    2.3758    2.8769 C.ar      1 RES1    0.0000
     38 C7A       -1.0415    2.9649    1.9704 C.ar      1 RES1    0.0000
     39 C8A       -1.2622    3.0782    0.6052 C.ar      1 RES1    0.0000
     40 H6A       -2.0785    2.7463    0.2517 H         1 RES1    0.0000
     41 H5A       -2.7937    2.0314    2.5417 H         1 RES1    0.0000
     42 H4A       -2.3664    1.9076    4.7747 H         1 RES1    0.0000
     43 H3A       -0.3301    2.7320    5.6752 H         1 RES1    0.0000
     44 H2A        1.2604    3.6593    4.2785 H         1 RES1    0.0000
     45 H1A        1.9622    4.3794    1.9946 H         1 RES1    0.0000
     46 C18A      -2.3892   -0.3431    0.0654 C.ar      2 RES2    0.0000
     47 C10A      -2.1037   -1.0073    1.2720 C.ar      2 RES2    0.0000
     48 C11A      -2.9884   -1.0200    2.3395 C.ar      2 RES2    0.0000
     49 C12A      -2.6947   -1.6727    3.5777 C.ar      2 RES2    0.0000
     50 C13A      -3.5747   -1.6547    4.6065 C.ar      2 RES2    0.0000
     51 C14A      -4.8272   -0.9706    4.4733 C.ar      2 RES2    0.0000
     52 C15A      -5.1478   -0.3443    3.3296 C.ar      2 RES2    0.0000
     53 C16A      -4.2591   -0.3325    2.2112 C.ar      2 RES2    0.0000
     54 C17A      -4.5586    0.3159    1.0251 C.ar      2 RES2    0.0000
     55 H12A      -5.3956    0.7577    0.9428 H         2 RES2    0.0000
     56 H11A      -5.9848    0.1014    3.2618 H         2 RES2    0.0000
     57 H10A      -5.4370   -0.9610    5.2019 H         2 RES2    0.0000
     58 H9A       -3.3614   -2.0966    5.4198 H         2 RES2    0.0000
     59 H8A       -1.8666   -2.1266    3.6806 H         2 RES2    0.0000
     60 H7A       -1.2684   -1.4541    1.3422 H         2 RES2    0.0000
@<TRIPOS>BOND
     1    1    2 ar
     2    2    3 ar
     3    3    4 ar
     4    4    5 ar
     5    5    6 ar
     6    6    7 ar
     7    7    2 ar
     8    8    7 ar
     9    9    1 ar
    10   10    1 1
    11   11    3 1
    12   12    4 1
    13   13    5 1
    14   14    6 1
    15   15    8 1
    16   16   17 ar
    17   17   18 ar
    18   18   19 ar
    19   19   20 ar
    20   20   21 ar
    21   21   22 ar
    22   22   17 ar
    23   23   22 ar
    24   24   16 ar
    25   25   16 1
    26   26   18 1
    27   27   19 1
    28   28   20 1
    29   29   21 1
    30   30   23 1
    31   31    8 ar
    32   32   31 ar
    33   33   32 ar
    34   34   33 ar
    35   35   34 ar
    36   36   35 ar
    37   37   36 ar
    38   38   33 ar
    39   39    9 ar
    40   40   39 1
    41   41   37 1
    42   42   36 1
    43   43   35 1
    44   44   34 1
    45   45   32 1
    46   46   23 ar
    47   47   46 ar
    48   48   47 ar
    49   49   48 ar
    50   50   49 ar
    51   51   50 ar
    52   52   51 ar
    53   53   48 ar
    54   54   24 ar
    55   55   54 1
    56   56   52 1
    57   57   51 1
    58   58   50 1
    59   59   49 1
    60   60   47 1
    61    9   31 ar
    62   24   46 ar
    63   37   38 ar
    64   38   39 ar
    65   52   53 ar
    66   53   54 ar
@<TRIPOS>SUBSTRUCTURE
     1 RES1 1
     2 RES2 16

@<TRIPOS>CRYSIN
   6.0565    7.8376   13.0104  77.1270  72.1180  85.7920   2 1

