# MOL2 file generated by ConQuest
# Please check atom types

@<TRIPOS>MOLECULE
TETCEN03
    60    66     2
SMALL
NO_CHARGES
****
Generated from CSD

@<TRIPOS>ATOM
      1 C1        -1.1178   -0.7415    4.7590 C.ar      1 RES1    0.0000
      2 C2        -0.4867    0.1778    3.9381 C.ar      1 RES1    0.0000
      3 C3        -0.4240   -0.0512    2.4957 C.ar      1 RES1    0.0000
      4 C4         0.1968    0.8347    1.6638 C.ar      1 RES1    0.0000
      5 C5         0.2890    0.6168    0.2581 C.ar      1 RES1    0.0000
      6 C6        -0.8869   -1.4920    0.6313 C.ar      1 RES1    0.0000
      7 C7        -0.9407   -1.2593    2.0027 C.ar      1 RES1    0.0000
      8 C8        -1.6314   -2.1949    2.8811 C.ar      1 RES1    0.0000
      9 C9        -1.6979   -1.9695    4.2611 C.ar      1 RES1    0.0000
     10 H1        -1.1451   -0.5278    5.7500 H         1 RES1    0.0000
     11 H2        -0.0890    1.0971    4.2697 H         1 RES1    0.0000
     12 H3         0.6172    1.7709    2.0186 H         1 RES1    0.0000
     13 H4        -1.2908   -2.4335    0.2691 H         1 RES1    0.0000
     14 H5        -1.9518   -3.0975    2.4713 H         1 RES1    0.0000
     15 H6        -2.1253   -2.6827    4.8936 H         1 RES1    0.0000
     16 C10        2.4592    2.5647    4.6330 C.ar      2 RES2    0.0000
     17 C11        2.4470    3.4972    3.5846 C.ar      2 RES2    0.0000
     18 C12        3.1038    3.1243    2.3820 C.ar      2 RES2    0.0000
     19 C13        3.1586    4.0437    1.2821 C.ar      2 RES2    0.0000
     20 C14        3.8378    3.7537    0.0636 C.ar      2 RES2    0.0000
     21 C15        4.3756    1.4898    1.0179 C.ar      2 RES2    0.0000
     22 C16        3.7245    1.7986    2.2156 C.ar      2 RES2    0.0000
     23 C17        3.6656    0.9233    3.2848 C.ar      2 RES2    0.0000
     24 C18        3.0479    1.1846    4.4593 C.ar      2 RES2    0.0000
     25 H7         1.9845    2.8848    5.5543 H         2 RES2    0.0000
     26 H8         1.9892    4.4857    3.7314 H         2 RES2    0.0000
     27 H9         2.7039    5.0599    1.3947 H         2 RES2    0.0000
     28 H10        4.8244    0.5183    0.8809 H         2 RES2    0.0000
     29 H11        4.1377   -0.0684    3.0952 H         2 RES2    0.0000
     30 H12        3.0208    0.4771    5.1995 H         2 RES2    0.0000
     31 C1A        1.1178    0.7415   -4.7590 C.ar      1 RES1    0.0000
     32 C2A        0.4867   -0.1778   -3.9381 C.ar      1 RES1    0.0000
     33 C3A        0.4240    0.0512   -2.4957 C.ar      1 RES1    0.0000
     34 C4A       -0.1968   -0.8347   -1.6638 C.ar      1 RES1    0.0000
     35 C5A       -0.2890   -0.6168   -0.2581 C.ar      1 RES1    0.0000
     36 C6A        0.8869    1.4920   -0.6313 C.ar      1 RES1    0.0000
     37 C7A        0.9407    1.2593   -2.0027 C.ar      1 RES1    0.0000
     38 C8A        1.6314    2.1949   -2.8811 C.ar      1 RES1    0.0000
     39 C9A        1.6979    1.9695   -4.2611 C.ar      1 RES1    0.0000
     40 H1A        1.1451    0.5278   -5.7500 H         1 RES1    0.0000
     41 H2A        0.0890   -1.0971   -4.2697 H         1 RES1    0.0000
     42 H3A       -0.6172   -1.7709   -2.0186 H         1 RES1    0.0000
     43 H4A        1.2908    2.4335   -0.2691 H         1 RES1    0.0000
     44 H5A        1.9518    3.0975   -2.4713 H         1 RES1    0.0000
     45 H6A        2.1253    2.6827   -4.8936 H         1 RES1    0.0000
     46 C10A       5.7886    3.5695   -4.6330 C.ar      2 RES2    0.0000
     47 C11A       5.8008    2.6370   -3.5846 C.ar      2 RES2    0.0000
     48 C12A       5.1440    3.0098   -2.3820 C.ar      2 RES2    0.0000
     49 C13A       5.0892    2.0904   -1.2821 C.ar      2 RES2    0.0000
     50 C14A       4.4101    2.3804   -0.0636 C.ar      2 RES2    0.0000
     51 C15A       3.8722    4.6444   -1.0179 C.ar      2 RES2    0.0000
     52 C16A       4.5233    4.3355   -2.2156 C.ar      2 RES2    0.0000
     53 C17A       4.5822    5.2109   -3.2848 C.ar      2 RES2    0.0000
     54 C18A       5.1999    4.9495   -4.4593 C.ar      2 RES2    0.0000
     55 H7A        6.2633    3.2493   -5.5543 H         2 RES2    0.0000
     56 H8A        6.2586    1.6484   -3.7314 H         2 RES2    0.0000
     57 H9A        5.5440    1.0742   -1.3947 H         2 RES2    0.0000
     58 H10A       3.4234    5.6158   -0.8809 H         2 RES2    0.0000
     59 H11A       4.1102    6.2025   -3.0952 H         2 RES2    0.0000
     60 H12A       5.2270    5.6571   -5.1995 H         2 RES2    0.0000
@<TRIPOS>BOND
     1    1    2 ar
     2    2    3 ar
     3    3    4 ar
     4    4    5 ar
     5    5   35 ar
     6    6    7 ar
     7    7    3 ar
     8    8    7 ar
     9    9    1 ar
    10   10    1 1
    11   11    2 1
    12   12    4 1
    13   13    6 1
    14   14    8 1
    15   15    9 1
    16   16   17 ar
    17   17   18 ar
    18   18   19 ar
    19   19   20 ar
    20   20   50 ar
    21   21   22 ar
    22   22   18 ar
    23   23   22 ar
    24   24   16 ar
    25   25   16 1
    26   26   17 1
    27   27   19 1
    28   28   21 1
    29   29   23 1
    30   30   24 1
    31   31   32 ar
    32   32   33 ar
    33   33   34 ar
    34   34   35 ar
    35   35    6 ar
    36   36    5 ar
    37   37   33 ar
    38   38   37 ar
    39   39   31 ar
    40   40   31 1
    41   41   32 1
    42   42   34 1
    43   43   36 1
    44   44   38 1
    45   45   39 1
    46   46   47 ar
    47   47   48 ar
    48   48   49 ar
    49   49   50 ar
    50   50   21 ar
    51   51   20 ar
    52   52   48 ar
    53   53   52 ar
    54   54   46 ar
    55   55   46 1
    56   56   47 1
    57   57   49 1
    58   58   51 1
    59   59   53 1
    60   60   54 1
    61    8    9 ar
    62   23   24 ar
    63   36   37 ar
    64   38   39 ar
    65   51   52 ar
    66   53   54 ar
@<TRIPOS>SUBSTRUCTURE
     1 RES1 1
     2 RES2 16

@<TRIPOS>CRYSIN
   7.9800    6.1400   13.5700 101.3000 113.2000  87.5000   2 1

