# MOL2 file generated by ConQuest
# Please check atom types

@<TRIPOS>MOLECULE
TETMAH
    44    46     1
SMALL
NO_CHARGES
****
Generated from CSD

@<TRIPOS>ATOM
      1 C1         7.6511    2.9811    0.6066 C.ar      1 RES1    0.0000
      2 C2         6.6092    2.0065    2.9601 C.ar      1 RES1    0.0000
      3 C3         6.4397    3.4870    1.0078 C.ar      1 RES1    0.0000
      4 C4         5.9290    2.9504    2.2310 C.ar      1 RES1    0.0000
      5 H1         5.0883    3.2588    2.5501 H         1 RES1    0.0000
      6 C5         5.8546    4.4933    0.1927 C.ar      1 RES1    0.0000
      7 H2         5.0261    4.8831    0.4456 H         1 RES1    0.0000
      8 C6         7.8567    1.5185    2.4651 C.ar      1 RES1    0.0000
      9 H3         8.3288    0.8528    2.9493 H         1 RES1    0.0000
     10 C7         7.7139    4.3215   -1.3635 C.ar      1 RES1    0.0000
     11 H4         8.1293    4.5912   -2.1737 H         1 RES1    0.0000
     12 C8         8.3031    3.3611   -0.5780 C.ar      1 RES1    0.0000
     13 C9         8.3751    2.0048    1.2983 C.ar      1 RES1    0.0000
     14 C10        6.0870    1.4378    4.2841 C.3       1 RES1    0.0000
     15 C11        6.4812    4.9103   -0.9643 C.ar      1 RES1    0.0000
     16 C12        5.8739    6.0194   -1.8259 C.3       1 RES1    0.0000
     17 C13        4.7807    2.0786    4.6921 C.3       1 RES1    0.0000
     18 H5         4.8863    3.0532    4.7089 H         1 RES1    0.0000
     19 H6         4.5260    1.7614    5.5833 H         1 RES1    0.0000
     20 H7         4.0835    1.8375    4.0470 H         1 RES1    0.0000
     21 C14        9.5087    2.5405   -0.6205 C.2       1 RES1    0.0000
     22 H8        10.1584    2.5659   -1.3131 H         1 RES1    0.0000
     23 C15        9.5683    1.7324    0.4772 C.2       1 RES1    0.0000
     24 H9        10.2549    1.1066    0.6768 H         1 RES1    0.0000
     25 C16        5.8700   -0.0647    4.1122 C.3       1 RES1    0.0000
     26 H10        5.2375   -0.2233    3.3800 H         1 RES1    0.0000
     27 H11        5.5079   -0.4391    4.9431 H         1 RES1    0.0000
     28 H12        6.7248   -0.4974    3.9047 H         1 RES1    0.0000
     29 C17        4.5720    6.6293   -1.2014 C.3       1 RES1    0.0000
     30 H13        4.3369    7.4541   -1.6777 H         1 RES1    0.0000
     31 H14        4.7277    6.8323   -0.2549 H         1 RES1    0.0000
     32 H15        3.8383    5.9846   -1.2805 H         1 RES1    0.0000
     33 C18        7.1342    1.7005    5.3719 C.3       1 RES1    0.0000
     34 H16        7.9631    1.2284    5.1496 H         1 RES1    0.0000
     35 H17        6.7970    1.3807    6.2345 H         1 RES1    0.0000
     36 H18        7.3128    2.6624    5.4272 H         1 RES1    0.0000
     37 C19        6.7967    7.1902   -1.9138 C.3       1 RES1    0.0000
     38 H19        7.5944    6.9414   -2.4256 H         1 RES1    0.0000
     39 H20        7.0611    7.4668   -1.0108 H         1 RES1    0.0000
     40 H21        6.3407    7.9338   -2.3614 H         1 RES1    0.0000
     41 C20        5.5038    5.5227   -3.1508 C.3       1 RES1    0.0000
     42 H22        5.2987    6.2790   -3.7387 H         1 RES1    0.0000
     43 H23        4.7152    4.9440   -3.0738 H         1 RES1    0.0000
     44 H24        6.2490    5.0075   -3.5263 H         1 RES1    0.0000
@<TRIPOS>BOND
     1    1    3 ar
     2    2    4 ar
     3    3    4 ar
     4    4    5 1
     5    6    3 ar
     6    7    6 1
     7    8    2 ar
     8    9    8 1
     9   10   11 1
    10   12    1 ar
    11   13    1 ar
    12   14    2 1
    13   15    6 ar
    14   16   15 1
    15   17   14 1
    16   18   17 1
    17   19   17 1
    18   20   17 1
    19   21   12 1
    20   22   21 1
    21   23   13 1
    22   24   23 1
    23   25   14 1
    24   26   25 1
    25   27   25 1
    26   28   25 1
    27   29   16 1
    28   30   29 1
    29   31   29 1
    30   32   29 1
    31   33   14 1
    32   34   33 1
    33   35   33 1
    34   36   33 1
    35   37   16 1
    36   38   37 1
    37   39   37 1
    38   40   37 1
    39   41   16 1
    40   42   41 1
    41   43   41 1
    42   44   41 1
    43    8   13 ar
    44   10   12 ar
    45   10   15 ar
    46   21   23 2
@<TRIPOS>SUBSTRUCTURE
     1 RES1 1

@<TRIPOS>CRYSIN
   6.4950   25.3800    9.9240  90.0000  95.3800  90.0000   9 1

