# MOL2 file generated by ConQuest
# Please check atom types

@<TRIPOS>MOLECULE
TETPHD
    60    68     1
SMALL
NO_CHARGES
****
Generated from CSD

@<TRIPOS>ATOM
      1 C1         5.3010    9.7518    1.7708 C.ar      1 RES1    0.0000
      2 C10        6.8757    8.0214    2.4962 C.ar      1 RES1    0.0000
      3 C11        6.6015   14.1863    2.4335 C.ar      1 RES1    0.0000
      4 C12        7.6924   15.0083    2.6907 C.ar      1 RES1    0.0000
      5 C13        8.6727   14.5997    3.5800 C.ar      1 RES1    0.0000
      6 C14        8.5770   13.3597    4.2008 C.ar      1 RES1    0.0000
      7 C15        7.4874   12.5354    3.9532 C.ar      1 RES1    0.0000
      8 C16        6.4863   12.9557    3.0656 C.ar      1 RES1    0.0000
      9 C17        4.2355   12.1524    4.0875 C.3       1 RES1    0.0000
     10 C18        5.2941   12.0403    2.8720 C.3       1 RES1    0.0000
     11 C2         5.8033   10.6228    2.7003 C.ar      1 RES1    0.0000
     12 C3         6.8365   10.1955    3.5835 C.ar      1 RES1    0.0000
     13 C4         7.3618    8.9415    3.4675 C.ar      1 RES1    0.0000
     14 C5         7.4033    6.7114    2.3480 C.ar      1 RES1    0.0000
     15 C6         6.8411    5.8287    1.4596 C.ar      1 RES1    0.0000
     16 C7         5.7583    6.2093    0.6600 C.ar      1 RES1    0.0000
     17 C8         5.2515    7.4796    0.7490 C.ar      1 RES1    0.0000
     18 C9         5.7975    8.4231    1.6610 C.ar      1 RES1    0.0000
     19 H1         4.5500   10.0414    1.1596 H         1 RES1    0.0000
     20 H11        5.8977   14.5016    1.7874 H         1 RES1    0.0000
     21 H12        7.7292   15.9494    2.2495 H         1 RES1    0.0000
     22 H13        9.4341   15.2255    3.7928 H         1 RES1    0.0000
     23 H14        9.2498   13.0538    4.8478 H         1 RES1    0.0000
     24 H17        3.3866   12.4700    3.6794 H         1 RES1    0.0000
     25 H18        4.8149   12.3299    2.0402 H         1 RES1    0.0000
     26 H4         8.0863    8.6402    4.0892 H         1 RES1    0.0000
     27 H5         8.1900    6.4452    2.9209 H         1 RES1    0.0000
     28 H6         7.2224    4.9039    1.3602 H         1 RES1    0.0000
     29 H7         5.3218    5.5344    0.0262 H         1 RES1    0.0000
     30 H8         4.4924    7.7529    0.1395 H         1 RES1    0.0000
     31 C17D       7.2835   11.1996    4.6315 C.3       1 RES1    0.0000
     32 C15D       4.0317   10.8166    4.7658 C.ar      1 RES1    0.0000
     33 C3D        4.6825   13.1565    5.1355 C.ar      1 RES1    0.0000
     34 C18D       6.2249   11.3117    5.8470 C.3       1 RES1    0.0000
     35 H17D       8.1324   10.8820    5.0396 H         1 RES1    0.0000
     36 C14D       2.9420    9.9923    4.5182 C.ar      1 RES1    0.0000
     37 C16D       5.0327   10.3963    5.6534 C.ar      1 RES1    0.0000
     38 C2D        5.7157   12.7292    6.0187 C.ar      1 RES1    0.0000
     39 C4D        4.1572   14.4105    5.2515 C.ar      1 RES1    0.0000
     40 H18D       6.7041   11.0221    6.6788 H         1 RES1    0.0000
     41 C13D       2.8463    8.7523    5.1390 C.ar      1 RES1    0.0000
     42 H14D       2.2692   10.2982    3.8712 H         1 RES1    0.0000
     43 C11D       4.9175    9.1657    6.2855 C.ar      1 RES1    0.0000
     44 C1D        6.2180   13.6002    6.9482 C.ar      1 RES1    0.0000
     45 C10D       4.6433   15.3306    6.2228 C.ar      1 RES1    0.0000
     46 H4D        3.4327   14.7118    4.6298 H         1 RES1    0.0000
     47 C12D       3.8266    8.3437    6.0283 C.ar      1 RES1    0.0000
     48 H13D       2.0849    8.1265    4.9262 H         1 RES1    0.0000
     49 H11D       5.6213    8.8504    6.9316 H         1 RES1    0.0000
     50 C9D        5.7215   14.9289    7.0580 C.ar      1 RES1    0.0000
     51 H1D        6.9690   13.3106    7.5594 H         1 RES1    0.0000
     52 C5D        4.1157   16.6406    6.3710 C.ar      1 RES1    0.0000
     53 H12D       3.7898    7.4026    6.4695 H         1 RES1    0.0000
     54 C8D        6.2675   15.8724    7.9700 C.ar      1 RES1    0.0000
     55 C6D        4.6779   17.5233    7.2594 C.ar      1 RES1    0.0000
     56 H5D        3.3290   16.9068    5.7981 H         1 RES1    0.0000
     57 C7D        5.7607   17.1427    8.0590 C.ar      1 RES1    0.0000
     58 H8D        7.0266   15.5991    8.5795 H         1 RES1    0.0000
     59 H6D        4.2966   18.4481    7.3588 H         1 RES1    0.0000
     60 H7D        6.1972   17.8176    8.6928 H         1 RES1    0.0000
@<TRIPOS>BOND
     1    1   11 ar
     2    2   13 ar
     3    3    4 ar
     4    4    5 ar
     5    5    6 ar
     6    6    7 ar
     7    7    8 ar
     8    8    3 ar
     9    9   32 1
    10   10    8 1
    11   11   10 1
    12   12   11 ar
    13   13   12 ar
    14   14    2 ar
    15   15   14 ar
    16   16   15 ar
    17   17   16 ar
    18   18    1 ar
    19   19    1 1
    20   20    3 1
    21   21    4 1
    22   22    5 1
    23   23    6 1
    24   24    9 1
    25   25   10 1
    26   26   13 1
    27   27   14 1
    28   28   15 1
    29   29   16 1
    30   30   17 1
    31   31    7 1
    32   32   36 ar
    33   33    9 1
    34   34   31 1
    35   35   31 1
    36   36   41 ar
    37   37   32 ar
    38   38   33 ar
    39   39   33 ar
    40   40   34 1
    41   41   47 ar
    42   42   36 1
    43   43   37 ar
    44   44   38 ar
    45   45   39 ar
    46   46   39 1
    47   47   43 ar
    48   48   41 1
    49   49   43 1
    50   50   44 ar
    51   51   44 1
    52   52   45 ar
    53   53   47 1
    54   54   50 ar
    55   55   52 ar
    56   56   52 1
    57   57   54 ar
    58   58   54 1
    59   59   55 1
    60   60   57 1
    61    2   18 ar
    62    9   10 1
    63   12   31 1
    64   17   18 ar
    65   34   37 1
    66   34   38 1
    67   45   50 ar
    68   55   57 ar
@<TRIPOS>SUBSTRUCTURE
     1 RES1 1

@<TRIPOS>CRYSIN
  11.5190   23.3520    8.7190  90.0000  90.0000  90.0000  61 1

