# MOL2 file generated by ConQuest
# Please check atom types

@<TRIPOS>MOLECULE
TEWWIE
   104   116     2
SMALL
NO_CHARGES
****
Generated from CSD

@<TRIPOS>ATOM
      1 C1         2.0905    6.8061    1.9125 C.ar      1 RES1    0.0000
      2 C2         2.6505    5.6475    2.4174 C.ar      1 RES1    0.0000
      3 C3         2.3761    8.8207    6.3936 C.3       1 RES1    0.0000
      4 H1         1.5456    8.4044    6.7067 H         1 RES1    0.0000
      5 H2         2.5023    9.6613    6.8825 H         1 RES1    0.0000
      6 C4         2.0981    8.0735    2.6996 C.ar      1 RES1    0.0000
      7 C5         1.7412    8.1087    4.0558 C.ar      1 RES1    0.0000
      8 H3         1.1453    7.4695    4.4025 H         1 RES1    0.0000
      9 C6         2.2780    9.1054    4.8965 C.ar      1 RES1    0.0000
     10 C7         2.9233   10.1982    4.3305 C.ar      1 RES1    0.0000
     11 H4         3.2526   10.8890    4.8781 H         1 RES1    0.0000
     12 C8         3.0784   10.2658    2.9674 C.ar      1 RES1    0.0000
     13 H5         3.4272   11.0451    2.5755 H         1 RES1    0.0000
     14 C9         2.7231    9.1888    2.1602 C.ar      1 RES1    0.0000
     15 H6         2.9090    9.2163    1.2392 H         1 RES1    0.0000
     16 C10        3.5601    7.8819    6.6665 C.3       1 RES1    0.0000
     17 H7         4.3832    8.2716    6.3048 H         1 RES1    0.0000
     18 H8         3.6753    7.7642    7.6328 H         1 RES1    0.0000
     19 C11        2.8553    5.4650    3.8872 C.ar      1 RES1    0.0000
     20 C12        3.5545    6.4110    4.6491 C.ar      1 RES1    0.0000
     21 H9         4.2008    6.9581    4.2400 H         1 RES1    0.0000
     22 C13        3.2938    6.5402    6.0118 C.ar      1 RES1    0.0000
     23 C14        2.4865    5.5799    6.6447 C.ar      1 RES1    0.0000
     24 H10        2.3059    5.6504    7.5641 H         1 RES1    0.0000
     25 C15        1.9612    4.5371    5.9213 C.ar      1 RES1    0.0000
     26 H11        1.5032    3.8450    6.3634 H         1 RES1    0.0000
     27 C16        2.1011    4.5008    4.5448 C.ar      1 RES1    0.0000
     28 H12        1.6841    3.8196    4.0508 H         1 RES1    0.0000
     29 C17        1.2933    4.3423   -2.3260 C.3       1 RES1    0.0000
     30 H13        1.1181    4.5164   -3.2738 H         1 RES1    0.0000
     31 H14        0.6283    3.6947   -2.0095 H         1 RES1    0.0000
     32 C18        1.5796    6.8129    0.5473 C.ar      1 RES1    0.0000
     33 C19        1.7840    5.6937   -0.2781 C.ar      1 RES1    0.0000
     34 C20        1.1505    5.6239   -1.5465 C.ar      1 RES1    0.0000
     35 C21        0.3758    6.6794   -1.9710 C.ar      1 RES1    0.0000
     36 H15       -0.0362    6.6400   -2.8150 H         1 RES1    0.0000
     37 C22        0.1945    7.7995   -1.1781 C.ar      1 RES1    0.0000
     38 H16       -0.3238    8.5176   -1.4954 H         1 RES1    0.0000
     39 C23        0.7682    7.8696    0.0712 C.ar      1 RES1    0.0000
     40 H17        0.6204    8.6249    0.6112 H         1 RES1    0.0000
     41 C24        2.6788    3.7554   -2.1716 C.3       1 RES1    0.0000
     42 H18        2.7173    2.8828   -2.6157 H         1 RES1    0.0000
     43 H19        3.3337    4.3447   -2.6006 H         1 RES1    0.0000
     44 C25        2.9798    4.5494    1.5324 C.ar      1 RES1    0.0000
     45 C26        2.5983    4.6003    0.1845 C.ar      1 RES1    0.0000
     46 C27        3.0203    3.5969   -0.7234 C.ar      1 RES1    0.0000
     47 C28        3.7773    2.5518   -0.2579 C.ar      1 RES1    0.0000
     48 H20        4.0485    1.8757   -0.8524 H         1 RES1    0.0000
     49 C29        4.1502    2.4776    1.0835 C.ar      1 RES1    0.0000
     50 H21        4.6684    1.7547    1.3849 H         1 RES1    0.0000
     51 C30        3.7646    3.4566    1.9643 C.ar      1 RES1    0.0000
     52 H22        4.0249    3.4000    2.8652 H         1 RES1    0.0000
     53 C31        3.5697    4.7030   11.8725 C.ar      2 RES2    0.0000
     54 C32        3.2258    9.6033   11.8728 C.3       2 RES2    0.0000
     55 H23        2.2567    9.5910   12.0235 H         2 RES2    0.0000
     56 H24        3.4480   10.4186   11.3771 H         2 RES2    0.0000
     57 C33        3.7729    5.9648   11.0911 C.ar      2 RES2    0.0000
     58 C34        3.0831    7.1408   11.3830 C.ar      2 RES2    0.0000
     59 H25        2.2405    7.0967   11.7991 H         2 RES2    0.0000
     60 C35        3.6330    8.3868   11.0623 C.ar      2 RES2    0.0000
     61 C36        4.7699    8.4266   10.2451 C.ar      2 RES2    0.0000
     62 H26        5.1315    9.2573    9.9956 H         2 RES2    0.0000
     63 C37        5.3666    7.2634    9.7997 C.ar      2 RES2    0.0000
     64 H27        6.0815    7.2977    9.1918 H         2 RES2    0.0000
     65 C38        4.8940    6.0404   10.2632 C.ar      2 RES2    0.0000
     66 H28        5.3372    5.2503   10.0140 H         2 RES2    0.0000
     67 C39        3.0926   -0.2565   11.9981 C.3       2 RES2    0.0000
     68 H29        3.2512   -1.0305   11.4173 H         2 RES2    0.0000
     69 H30        2.1920   -0.3396   12.3735 H         2 RES2    0.0000
     70 C40        3.4216    3.4529   11.1589 C.ar      2 RES2    0.0000
     71 C41        3.4574    2.2223   11.8494 C.ar      2 RES2    0.0000
     72 C42        3.1799    1.0056   11.1837 C.ar      2 RES2    0.0000
     73 C43        2.9187    1.0261    9.8402 C.ar      2 RES2    0.0000
     74 H31        2.7511    0.2186    9.3894 H         2 RES2    0.0000
     75 C44        2.8965    2.2250    9.1275 C.ar      2 RES2    0.0000
     76 H32        2.7139    2.2172    8.2055 H         2 RES2    0.0000
     77 C45        3.1419    3.4195    9.7658 C.ar      2 RES2    0.0000
     78 H33        3.1247    4.2217    9.2755 H         2 RES2    0.0000
     79 C31A       3.6287    4.7030   13.2463 C.ar      2 RES2    0.0000
     80 C32A       3.9726    9.6033   13.2460 C.3       2 RES2    0.0000
     81 H23A       4.9417    9.5910   13.0952 H         2 RES2    0.0000
     82 H24A       3.7504   10.4186   13.7416 H         2 RES2    0.0000
     83 C33A       3.4255    5.9648   14.0277 C.ar      2 RES2    0.0000
     84 C34A       4.1153    7.1408   13.7358 C.ar      2 RES2    0.0000
     85 H25A       4.9579    7.0967   13.3196 H         2 RES2    0.0000
     86 C35A       3.5654    8.3868   14.0565 C.ar      2 RES2    0.0000
     87 C36A       2.4285    8.4266   14.8737 C.ar      2 RES2    0.0000
     88 H26A       2.0669    9.2573   15.1232 H         2 RES2    0.0000
     89 C37A       1.8318    7.2634   15.3191 C.ar      2 RES2    0.0000
     90 H27A       1.1169    7.2977   15.9270 H         2 RES2    0.0000
     91 C38A       2.3044    6.0404   14.8556 C.ar      2 RES2    0.0000
     92 H28A       1.8613    5.2503   15.1047 H         2 RES2    0.0000
     93 C39A       4.1058   -0.2565   13.1207 C.3       2 RES2    0.0000
     94 H29A       3.9472   -1.0305   13.7014 H         2 RES2    0.0000
     95 H30A       5.0065   -0.3396   12.7453 H         2 RES2    0.0000
     96 C40A       3.7768    3.4529   13.9598 C.ar      2 RES2    0.0000
     97 C41A       3.7410    2.2223   13.2694 C.ar      2 RES2    0.0000
     98 C42A       4.0185    1.0056   13.9350 C.ar      2 RES2    0.0000
     99 C43A       4.2797    1.0261   15.2786 C.ar      2 RES2    0.0000
    100 H31A       4.4474    0.2186   15.7294 H         2 RES2    0.0000
    101 C44A       4.3019    2.2250   15.9913 C.ar      2 RES2    0.0000
    102 H32A       4.4845    2.2172   16.9133 H         2 RES2    0.0000
    103 C45A       4.0566    3.4195   15.3529 C.ar      2 RES2    0.0000
    104 H33A       4.0737    4.2217   15.8432 H         2 RES2    0.0000
@<TRIPOS>BOND
     1    1    2 ar
     2    2   19 1
     3    3    4 1
     4    5    3 1
     5    6    1 1
     6    7    6 ar
     7    8    7 1
     8    9    3 1
     9   10    9 ar
    10   11   10 1
    11   12   10 ar
    12   13   12 1
    13   14    6 ar
    14   15   14 1
    15   16    3 1
    16   17   16 1
    17   18   16 1
    18   19   20 ar
    19   20   21 1
    20   22   16 1
    21   23   22 ar
    22   24   23 1
    23   25   23 ar
    24   26   25 1
    25   27   19 ar
    26   28   27 1
    27   29   30 1
    28   31   29 1
    29   32    1 ar
    30   33   32 ar
    31   34   29 1
    32   35   34 ar
    33   36   35 1
    34   37   35 ar
    35   38   37 1
    36   39   32 ar
    37   40   39 1
    38   41   29 1
    39   42   41 1
    40   43   41 1
    41   44    2 ar
    42   45   33 ar
    43   46   41 1
    44   47   46 ar
    45   48   47 1
    46   49   47 ar
    47   50   49 1
    48   51   44 ar
    49   52   51 1
    50   53   57 1
    51   54   55 1
    52   56   54 1
    53   57   58 ar
    54   58   59 1
    55   60   54 1
    56   61   60 ar
    57   62   61 1
    58   63   61 ar
    59   64   63 1
    60   65   57 ar
    61   66   65 1
    62   67   68 1
    63   69   67 1
    64   70   53 ar
    65   71   70 ar
    66   72   67 1
    67   73   72 ar
    68   74   73 1
    69   75   73 ar
    70   76   75 1
    71   77   70 ar
    72   78   77 1
    73   79   53 ar
    74   80   54 1
    75   81   80 1
    76   82   80 1
    77   83   79 1
    78   84   83 ar
    79   85   84 1
    80   86   80 1
    81   87   86 ar
    82   88   87 1
    83   89   87 ar
    84   90   89 1
    85   91   83 ar
    86   92   91 1
    87   93   67 1
    88   94   93 1
    89   95   93 1
    90   96   79 ar
    91   97   71 ar
    92   98   93 1
    93   99   98 ar
    94  100   99 1
    95  101   99 ar
    96  102  101 1
    97  103   96 ar
    98  104  103 1
    99    7    9 ar
   100   12   14 ar
   101   20   22 ar
   102   25   27 ar
   103   33   34 ar
   104   37   39 ar
   105   44   45 ar
   106   45   46 ar
   107   49   51 ar
   108   58   60 ar
   109   63   65 ar
   110   71   72 ar
   111   75   77 ar
   112   84   86 ar
   113   89   91 ar
   114   96   97 ar
   115   97   98 ar
   116  101  103 ar
@<TRIPOS>SUBSTRUCTURE
     1 RES1 1
     2 RES2 53

@<TRIPOS>CRYSIN
  18.2724   19.5178   18.3010  90.0000 113.7910  90.0000  15 1

