# MOL2 file generated by ConQuest
# Please check atom types

@<TRIPOS>MOLECULE
TEWXEB
   106   114     2
SMALL
NO_CHARGES
****
Generated from CSD

@<TRIPOS>ATOM
      1 C1         2.9783   11.0130    3.2724 C.ar      1 RES1    0.0000
      2 C2         3.2063   10.9528    1.9232 C.ar      1 RES1    0.0000
      3 C3         2.4291   10.0753    1.0752 C.ar      1 RES1    0.0000
      4 C4         2.5096   10.1516   -0.3342 C.ar      1 RES1    0.0000
      5 H1         3.1375   10.7418   -0.7339 H         1 RES1    0.0000
      6 C5         1.6983    9.3889   -1.1358 C.ar      1 RES1    0.0000
      7 H2         1.7584    9.4582   -2.0809 H         1 RES1    0.0000
      8 C6         0.7799    8.5070   -0.5511 C.ar      1 RES1    0.0000
      9 H3         0.2159    7.9788   -1.1036 H         1 RES1    0.0000
     10 C7         0.6904    8.4036    0.8130 C.ar      1 RES1    0.0000
     11 H4         0.0631    7.8010    1.1915 H         1 RES1    0.0000
     12 C8         1.5110    9.1759    1.6699 C.ar      1 RES1    0.0000
     13 C9         1.4218    9.0931    3.1201 C.ar      1 RES1    0.0000
     14 C10        0.6647    8.0713    3.7237 C.ar      1 RES1    0.0000
     15 H5         0.2329    7.4244    3.1772 H         1 RES1    0.0000
     16 C11        0.5384    7.9921    5.0806 C.ar      1 RES1    0.0000
     17 H6         0.0342    7.2918    5.4759 H         1 RES1    0.0000
     18 C12        1.1583    8.9493    5.8791 C.ar      1 RES1    0.0000
     19 H7         1.0517    8.8948    6.8211 H         1 RES1    0.0000
     20 C13        1.9194    9.9744    5.3597 C.ar      1 RES1    0.0000
     21 C14        2.1002   10.0509    3.9375 C.ar      1 RES1    0.0000
     22 C15        2.4879   10.9470    6.3793 C.3       1 RES1    0.0000
     23 H8         3.4666   10.9407    6.3252 H         1 RES1    0.0000
     24 H9         2.2089   10.6786    7.2787 H         1 RES1    0.0000
     25 H10        2.1550   11.8507    6.1916 H         1 RES1    0.0000
     26 C16        3.6272   12.1366    4.0158 C.ar      1 RES1    0.0000
     27 C17        2.9188   13.3380    4.1520 C.ar      1 RES1    0.0000
     28 C18        3.5236   14.4019    4.7947 C.ar      1 RES1    0.0000
     29 H11        3.0500   15.2194    4.8958 H         1 RES1    0.0000
     30 C19        4.8052   14.2919    5.2904 C.ar      1 RES1    0.0000
     31 H12        5.2150   15.0356    5.7139 H         1 RES1    0.0000
     32 C20        5.4946   13.1029    5.1727 C.ar      1 RES1    0.0000
     33 H13        6.3684   13.0318    5.5382 H         1 RES1    0.0000
     34 C21        4.9305   12.0016    4.5277 C.ar      1 RES1    0.0000
     35 C22        1.5114   13.4787    3.6348 C.3       1 RES1    0.0000
     36 H14        1.5207   13.4687    2.6556 H         1 RES1    0.0000
     37 H15        1.1310   14.3245    3.9477 H         1 RES1    0.0000
     38 H16        0.9663   12.7335    3.9642 H         1 RES1    0.0000
     39 C23        5.6670   10.7003    4.4146 C.3       1 RES1    0.0000
     40 H17        5.1065    9.9765    4.7640 H         1 RES1    0.0000
     41 H18        6.4976   10.7479    4.9324 H         1 RES1    0.0000
     42 H19        5.8786   10.5249    3.4737 H         1 RES1    0.0000
     43 C24        4.2726   11.7880    1.2731 C.ar      1 RES1    0.0000
     44 C25        4.1334   13.1481    1.0423 C.ar      1 RES1    0.0000
     45 H20        3.3318   13.5893    1.2976 H         1 RES1    0.0000
     46 C26        5.1552   13.8728    0.4414 C.ar      1 RES1    0.0000
     47 H21        5.0483   14.8036    0.2873 H         1 RES1    0.0000
     48 C27        6.3259   13.2434    0.0666 C.ar      1 RES1    0.0000
     49 H22        7.0236   13.7429   -0.3404 H         1 RES1    0.0000
     50 C28        6.4826   11.8892    0.2822 C.ar      1 RES1    0.0000
     51 H23        7.2866   11.4529    0.0220 H         1 RES1    0.0000
     52 C29        5.4579   11.1667    0.8823 C.ar      1 RES1    0.0000
     53 H24        5.5672   10.2356    1.0286 H         1 RES1    0.0000
     54 C30        0.3026   19.1274    6.7009 C.ar      2 RES2    0.0000
     55 C31        0.2887   19.1575    5.3326 C.ar      2 RES2    0.0000
     56 C32        1.1675   20.0410    4.5956 C.ar      2 RES2    0.0000
     57 C33        1.2502   20.0012    3.1891 C.ar      2 RES2    0.0000
     58 H25        0.7061   19.3865    2.7105 H         2 RES2    0.0000
     59 C34        2.0982   20.8280    2.4951 C.ar      2 RES2    0.0000
     60 H26        2.1413   20.7846    1.5465 H         2 RES2    0.0000
     61 C35        2.8978   21.7365    3.1966 C.ar      2 RES2    0.0000
     62 H27        3.4985   22.3002    2.7233 H         2 RES2    0.0000
     63 C36        2.8209   21.8197    4.5621 C.ar      2 RES2    0.0000
     64 H28        3.3641   22.4509    5.0202 H         2 RES2    0.0000
     65 C37        1.9508   20.9874    5.3015 C.ar      2 RES2    0.0000
     66 C38        1.8498   21.0609    6.7498 C.ar      2 RES2    0.0000
     67 C39        2.4732   22.1152    7.4559 C.ar      2 RES2    0.0000
     68 H29        2.9063   22.8095    6.9730 H         2 RES2    0.0000
     69 C40        2.4637   22.1541    8.8166 C.ar      2 RES2    0.0000
     70 H30        2.8589   22.8848    9.2791 H         2 RES2    0.0000
     71 C41        1.8683   21.1116    9.5231 C.ar      2 RES2    0.0000
     72 H31        1.9139   21.1221   10.4724 H         2 RES2    0.0000
     73 C42        1.2141   20.0663    8.9024 C.ar      2 RES2    0.0000
     74 C43        1.1261   20.0603    7.4665 C.ar      2 RES2    0.0000
     75 C44        0.7064   18.9608    9.8049 C.3       2 RES2    0.0000
     76 H32       -0.2724   18.9918    9.8391 H         2 RES2    0.0000
     77 H33        1.0678   19.0822   10.7066 H         2 RES2    0.0000
     78 H34        0.9948   18.0939    9.4530 H         2 RES2    0.0000
     79 C45       -0.6467   18.1680    7.3722 C.ar      2 RES2    0.0000
     80 C46       -0.3325   16.8100    7.4698 C.ar      2 RES2    0.0000
     81 C47       -1.2628   15.9482    8.0525 C.ar      2 RES2    0.0000
     82 H35       -1.0619   15.0235    8.1334 H         2 RES2    0.0000
     83 C48       -2.4769   16.4297    8.5146 C.ar      2 RES2    0.0000
     84 H36       -3.1066   15.8310    8.9002 H         2 RES2    0.0000
     85 C49       -2.7734   17.7594    8.4189 C.ar      2 RES2    0.0000
     86 H37       -3.6096   18.0758    8.7392 H         2 RES2    0.0000
     87 C50       -1.8728   18.6522    7.8612 C.ar      2 RES2    0.0000
     88 C51        0.9970   16.2713    7.0075 C.3       2 RES2    0.0000
     89 H38        1.1150   16.4668    6.0543 H         2 RES2    0.0000
     90 H39        1.0230   15.3007    7.1469 H         2 RES2    0.0000
     91 H40        1.7168   16.6958    7.5203 H         2 RES2    0.0000
     92 C52       -2.2014   20.1127    7.8422 C.3       2 RES2    0.0000
     93 H41       -1.6459   20.5828    8.4994 H         2 RES2    0.0000
     94 H42       -3.1477   20.2362    8.0657 H         2 RES2    0.0000
     95 H43       -2.0268   20.4743    6.9493 H         2 RES2    0.0000
     96 C53       -0.6698   18.3271    4.5321 C.ar      2 RES2    0.0000
     97 C54       -0.2593   17.1984    3.8258 C.ar      2 RES2    0.0000
     98 H44        0.6439   16.9097    3.8892 H         2 RES2    0.0000
     99 C55       -1.1478   16.4867    3.0315 C.ar      2 RES2    0.0000
    100 H45       -0.8527   15.7165    2.5623 H         2 RES2    0.0000
    101 C56       -2.4638   16.9016    2.9236 C.ar      2 RES2    0.0000
    102 H46       -3.0732   16.4156    2.3811 H         2 RES2    0.0000
    103 C57       -2.8891   18.0249    3.6062 C.ar      2 RES2    0.0000
    104 H47       -3.7897   18.3169    3.5268 H         2 RES2    0.0000
    105 C58       -1.9987   18.7297    4.4091 C.ar      2 RES2    0.0000
    106 H48       -2.3013   19.4980    4.8811 H         2 RES2    0.0000
@<TRIPOS>BOND
     1    1    2 ar
     2    2    3 ar
     3    3    4 ar
     4    4    5 1
     5    6    4 ar
     6    7    6 1
     7    8    6 ar
     8    9    8 1
     9   10    8 ar
    10   11   10 1
    11   12    3 ar
    12   13   12 ar
    13   14   13 ar
    14   15   14 1
    15   16   14 ar
    16   17   16 1
    17   18   16 ar
    18   19   18 1
    19   20   18 ar
    20   21    1 ar
    21   22   20 1
    22   23   22 1
    23   24   22 1
    24   25   22 1
    25   26    1 1
    26   27   26 ar
    27   28   27 ar
    28   29   28 1
    29   30   28 ar
    30   31   30 1
    31   32   30 ar
    32   33   32 1
    33   34   26 ar
    34   35   27 1
    35   36   35 1
    36   37   35 1
    37   38   35 1
    38   39   34 1
    39   40   39 1
    40   41   39 1
    41   42   39 1
    42   43    2 1
    43   44   43 ar
    44   45   44 1
    45   46   44 ar
    46   47   46 1
    47   48   46 ar
    48   49   48 1
    49   50   48 ar
    50   51   50 1
    51   52   43 ar
    52   53   52 1
    53   54   55 ar
    54   55   56 ar
    55   56   57 ar
    56   57   58 1
    57   59   57 ar
    58   60   59 1
    59   61   59 ar
    60   62   61 1
    61   63   61 ar
    62   64   63 1
    63   65   56 ar
    64   66   65 ar
    65   67   66 ar
    66   68   67 1
    67   69   67 ar
    68   70   69 1
    69   71   69 ar
    70   72   71 1
    71   73   71 ar
    72   74   54 ar
    73   75   73 1
    74   76   75 1
    75   77   75 1
    76   78   75 1
    77   79   54 1
    78   80   79 ar
    79   81   80 ar
    80   82   81 1
    81   83   81 ar
    82   84   83 1
    83   85   83 ar
    84   86   85 1
    85   87   79 ar
    86   88   80 1
    87   89   88 1
    88   90   88 1
    89   91   88 1
    90   92   87 1
    91   93   92 1
    92   94   92 1
    93   95   92 1
    94   96   55 1
    95   97   96 ar
    96   98   97 1
    97   99   97 ar
    98  100   99 1
    99  101   99 ar
   100  102  101 1
   101  103  101 ar
   102  104  103 1
   103  105   96 ar
   104  106  105 1
   105   10   12 ar
   106   13   21 ar
   107   20   21 ar
   108   32   34 ar
   109   50   52 ar
   110   63   65 ar
   111   66   74 ar
   112   73   74 ar
   113   85   87 ar
   114  103  105 ar
@<TRIPOS>SUBSTRUCTURE
     1 RES1 1
     2 RES2 54

@<TRIPOS>CRYSIN
   7.3960   30.1314   18.3110  90.0000  91.8010  90.0000  14 1

