# MOL2 file generated by ConQuest
# Please check atom types

@<TRIPOS>MOLECULE
TEXGOV
    48    53     1
SMALL
NO_CHARGES
****
Generated from CSD

@<TRIPOS>ATOM
      1 C1         3.2989    4.9769    9.1209 C.ar      1 RES1    0.0000
      2 C2         4.5527    5.3803    8.7195 C.ar      1 RES1    0.0000
      3 C3         5.5569    5.7618    9.6895 C.ar      1 RES1    0.0000
      4 C4         6.9009    6.0125    9.3133 C.ar      1 RES1    0.0000
      5 H1         7.1680    5.8666    8.4145 H         1 RES1    0.0000
      6 C5         7.8216    6.4619   10.2264 C.ar      1 RES1    0.0000
      7 H2         8.7181    6.6226    9.9592 H         1 RES1    0.0000
      8 C6         7.4360    6.6814   11.5477 C.ar      1 RES1    0.0000
      9 H3         8.0645    7.0166   12.1761 H         1 RES1    0.0000
     10 C7         6.1496    6.4135   11.9428 C.ar      1 RES1    0.0000
     11 H4         5.9050    6.5576   12.8504 H         1 RES1    0.0000
     12 C8         5.1813    5.9301   11.0405 C.ar      1 RES1    0.0000
     13 C9         3.8532    5.5093   11.4746 C.ar      1 RES1    0.0000
     14 C10        3.4542    5.6632   12.8157 C.ar      1 RES1    0.0000
     15 H5         3.9934    6.1740   13.4089 H         1 RES1    0.0000
     16 C11        2.2997    5.0889   13.2808 C.ar      1 RES1    0.0000
     17 H6         2.0101    5.2364   14.1738 H         1 RES1    0.0000
     18 C12        1.5576    4.2813   12.4153 C.ar      1 RES1    0.0000
     19 H7         0.8072    3.8110   12.7598 H         1 RES1    0.0000
     20 C13        1.8698    4.1380   11.0797 C.ar      1 RES1    0.0000
     21 C14        2.9909    4.8501   10.5526 C.ar      1 RES1    0.0000
     22 C15        1.0276    3.1139   10.3387 C.3       1 RES1    0.0000
     23 H8         0.1294    3.5037   10.1910 H         1 RES1    0.0000
     24 H9         0.9141    2.3258   10.9265 H         1 RES1    0.0000
     25 C16        1.5610    2.6272    8.9917 C.3       1 RES1    0.0000
     26 H10        2.5168    2.3805    9.0762 H         1 RES1    0.0000
     27 H11        1.0576    1.8276    8.6969 H         1 RES1    0.0000
     28 C17        2.2004    4.8706    8.1077 C.ar      1 RES1    0.0000
     29 C18        1.4040    3.7302    7.9880 C.ar      1 RES1    0.0000
     30 C19        0.3982    3.6826    7.0210 C.ar      1 RES1    0.0000
     31 H12       -0.1427    2.9055    6.9457 H         1 RES1    0.0000
     32 C20        0.1770    4.7537    6.1685 C.ar      1 RES1    0.0000
     33 H13       -0.4958    4.7042    5.5001 H         1 RES1    0.0000
     34 C21        0.9474    5.8975    6.3024 C.ar      1 RES1    0.0000
     35 H14        0.7888    6.6443    5.7382 H         1 RES1    0.0000
     36 C22        1.9483    5.9518    7.2597 C.ar      1 RES1    0.0000
     37 H15        2.4725    6.7402    7.3419 H         1 RES1    0.0000
     38 C23        4.8941    5.4806    7.2669 C.ar      1 RES1    0.0000
     39 C24        4.7405    4.3887    6.4124 C.ar      1 RES1    0.0000
     40 H16        4.4601    3.5532    6.7666 H         1 RES1    0.0000
     41 C25        4.9926    4.5041    5.0485 C.ar      1 RES1    0.0000
     42 H17        4.8774    3.7522    4.4802 H         1 RES1    0.0000
     43 C26        5.4142    5.7181    4.5196 C.ar      1 RES1    0.0000
     44 H18        5.5703    5.8047    3.5867 H         1 RES1    0.0000
     45 C27        5.6053    6.8068    5.3638 C.ar      1 RES1    0.0000
     46 H19        5.9084    7.6344    5.0091 H         1 RES1    0.0000
     47 C28        5.3533    6.6848    6.7240 C.ar      1 RES1    0.0000
     48 H20        5.4952    7.4312    7.2955 H         1 RES1    0.0000
@<TRIPOS>BOND
     1    1    2 ar
     2    2    3 ar
     3    3    4 ar
     4    4    5 1
     5    6    4 ar
     6    7    6 1
     7    8    6 ar
     8    9    8 1
     9   10    8 ar
    10   11   10 1
    11   12    3 ar
    12   13   12 ar
    13   14   13 ar
    14   15   14 1
    15   16   14 ar
    16   17   16 1
    17   18   16 ar
    18   19   18 1
    19   20   18 ar
    20   21    1 ar
    21   22   20 1
    22   23   22 1
    23   24   22 1
    24   25   22 1
    25   26   25 1
    26   27   25 1
    27   28    1 1
    28   29   25 1
    29   30   29 ar
    30   31   30 1
    31   32   30 ar
    32   33   32 1
    33   34   32 ar
    34   35   34 1
    35   36   28 ar
    36   37   36 1
    37   38    2 1
    38   39   38 ar
    39   40   39 1
    40   41   39 ar
    41   42   41 1
    42   43   41 ar
    43   44   43 1
    44   45   43 ar
    45   46   45 1
    46   47   38 ar
    47   48   47 1
    48   10   12 ar
    49   13   21 ar
    50   20   21 ar
    51   28   29 ar
    52   34   36 ar
    53   45   47 ar
@<TRIPOS>SUBSTRUCTURE
     1 RES1 1

@<TRIPOS>CRYSIN
   8.3475   10.3140   21.0732  90.0000  90.0000  90.0000  19 1

