# MOL2 file generated by ConQuest
# Please check atom types

@<TRIPOS>MOLECULE
THELIC
    66    75     1
SMALL
NO_CHARGES
****
Generated from CSD

@<TRIPOS>ATOM
      1 C1        -2.7716   -0.4472    1.1593 C.ar      1 RES1    0.0000
      2 C2        -1.8604   -0.0245    6.1539 C.ar      1 RES1    0.0000
      3 C3        -4.1718   -0.7382    5.5607 C.ar      1 RES1    0.0000
      4 C4        -5.0215   -1.3512    4.7037 C.ar      1 RES1    0.0000
      5 C5        -5.4040   -2.8180    2.7414 C.ar      1 RES1    0.0000
      6 C6        -4.9095   -3.5562    1.6957 C.ar      1 RES1    0.0000
      7 C7        -2.9821   -4.5553    0.5036 C.ar      1 RES1    0.0000
      8 C8        -1.6502   -4.7783    0.4035 C.ar      1 RES1    0.0000
      9 C9         0.5966   -4.8014    1.4193 C.ar      1 RES1    0.0000
     10 C10        1.4182   -4.5553    2.4583 C.ar      1 RES1    0.0000
     11 C11        1.7797   -3.9708    4.8328 C.ar      1 RES1    0.0000
     12 C12       -3.5959   -0.4744    0.0578 C.ar      1 RES1    0.0000
     13 C13        1.3040   -3.6758    6.0633 C.ar      1 RES1    0.0000
     14 C14       -0.6135   -3.5440    7.6223 C.ar      1 RES1    0.0000
     15 C15       -1.9274   -3.7316    7.8890 C.ar      1 RES1    0.0000
     16 C16       -2.8171   -4.0592    6.8471 C.ar      1 RES1    0.0000
     17 C17       -2.3605   -4.0972    5.5424 C.ar      1 RES1    0.0000
     18 C18       -1.0150   -3.8349    5.2170 C.ar      1 RES1    0.0000
     19 C19       -0.1095   -3.6527    6.2935 C.ar      1 RES1    0.0000
     20 C20       -0.4864   -3.8906    3.8574 C.ar      1 RES1    0.0000
     21 C21        0.8965   -4.1149    3.7100 C.ar      1 RES1    0.0000
     22 C22       -1.3055   -3.8525    2.6634 C.ar      1 RES1    0.0000
     23 C23       -3.1322   -1.0019   -1.1670 C.ar      1 RES1    0.0000
     24 C24       -0.7779   -4.4643    1.4838 C.ar      1 RES1    0.0000
     25 C25       -2.6296   -3.2857    2.5738 C.ar      1 RES1    0.0000
     26 C26       -3.5091   -3.8022    1.5897 C.ar      1 RES1    0.0000
     27 C27       -3.1235   -2.2253    3.4298 C.ar      1 RES1    0.0000
     28 C28       -4.5155   -2.1343    3.6253 C.ar      1 RES1    0.0000
     29 C29       -2.2748   -1.2738    4.0865 C.ar      1 RES1    0.0000
     30 C30       -2.7603   -0.6783    5.2824 C.ar      1 RES1    0.0000
     31 C31       -0.9821   -0.8673    3.6176 C.ar      1 RES1    0.0000
     32 C32       -0.0677   -0.3222    4.5603 C.ar      1 RES1    0.0000
     33 C33       -0.5535   -0.9339    2.2301 C.ar      1 RES1    0.0000
     34 C34       -1.8433   -1.3920   -1.2701 C.ar      1 RES1    0.0000
     35 C35        0.8372   -0.9176    1.9672 C.ar      1 RES1    0.0000
     36 C36       -1.4531   -0.9353    1.0958 C.ar      1 RES1    0.0000
     37 C37       -0.9494   -1.3309   -0.1743 C.ar      1 RES1    0.0000
     38 C38        0.4365   -1.5416   -0.3476 C.ar      1 RES1    0.0000
     39 C39        1.3067   -1.2724    0.6548 C.ar      1 RES1    0.0000
     40 C40        1.7479   -0.5315    2.9753 C.ar      1 RES1    0.0000
     41 C41        1.2961   -0.1577    4.2127 C.ar      1 RES1    0.0000
     42 C42       -0.5482    0.0639    5.8544 C.ar      1 RES1    0.0000
     43 H1        -3.1464   -0.1536    1.9633 H         1 RES1    0.0000
     44 H2        -2.2284    0.3874    6.9964 H         1 RES1    0.0000
     45 H3        -4.4202   -0.1740    6.3821 H         1 RES1    0.0000
     46 H4        -6.0385   -1.3050    4.8097 H         1 RES1    0.0000
     47 H5        -6.4365   -2.7623    2.8059 H         1 RES1    0.0000
     48 H6        -5.5767   -3.9667    1.0313 H         1 RES1    0.0000
     49 H7        -3.6582   -4.8041   -0.2311 H         1 RES1    0.0000
     50 H8        -1.3070   -5.2079   -0.3938 H         1 RES1    0.0000
     51 H9         0.8048   -5.3288    0.5556 H         1 RES1    0.0000
     52 H10        2.3792   -4.6886    2.4053 H         1 RES1    0.0000
     53 H11        2.7345   -4.1040    4.5920 H         1 RES1    0.0000
     54 H12       -4.5664   -0.1862    0.0395 H         1 RES1    0.0000
     55 H13        1.9540   -3.5888    6.7759 H         1 RES1    0.0000
     56 H14        0.1879   -3.4434    8.4350 H         1 RES1    0.0000
     57 H15       -2.2921   -3.7220    8.9174 H         1 RES1    0.0000
     58 H16       -3.7618   -4.3324    7.0320 H         1 RES1    0.0000
     59 H17       -2.9471   -4.4004    4.8761 H         1 RES1    0.0000
     60 H18       -3.8744   -1.0060   -1.9470 H         1 RES1    0.0000
     61 H19       -1.5124   -1.8733   -2.1251 H         1 RES1    0.0000
     62 H20        0.7800   -1.9303   -1.2498 H         1 RES1    0.0000
     63 H21        2.2549   -1.3213    0.5912 H         1 RES1    0.0000
     64 H22        2.8318   -0.5084    2.8608 H         1 RES1    0.0000
     65 H23        2.0350    0.2026    4.8809 H         1 RES1    0.0000
     66 H24        0.1188    0.4201    6.5053 H         1 RES1    0.0000
@<TRIPOS>BOND
     1    1   12 ar
     2    2   30 ar
     3    3    4 ar
     4    4   28 ar
     5    5    6 ar
     6    6   26 ar
     7    7    8 ar
     8    8   24 ar
     9    9   10 ar
    10   10   21 ar
    11   11   13 ar
    12   12   23 ar
    13   13   19 ar
    14   14   15 ar
    15   15   16 ar
    16   16   17 ar
    17   17   18 ar
    18   18   19 ar
    19   19   14 ar
    20   20   18 ar
    21   21   11 ar
    22   22   20 ar
    23   23   34 ar
    24   24    9 ar
    25   25   22 ar
    26   26    7 ar
    27   27   25 ar
    28   28    5 ar
    29   29   27 ar
    30   30    3 ar
    31   31   29 ar
    32   32   31 ar
    33   33   31 ar
    34   34   37 ar
    35   35   33 ar
    36   36    1 ar
    37   37   36 ar
    38   38   37 ar
    39   39   35 ar
    40   40   35 ar
    41   41   32 ar
    42   42    2 ar
    43   43    1 1
    44   44    2 1
    45   45    3 1
    46   46    4 1
    47   47    5 1
    48   48    6 1
    49   49    7 1
    50   50    8 1
    51   51    9 1
    52   52   10 1
    53   53   11 1
    54   54   12 1
    55   55   13 1
    56   56   14 1
    57   57   15 1
    58   58   16 1
    59   59   17 1
    60   60   23 1
    61   61   34 1
    62   62   38 1
    63   63   39 1
    64   64   40 1
    65   65   41 1
    66   66   42 1
    67   20   21 ar
    68   22   24 ar
    69   25   26 ar
    70   27   28 ar
    71   29   30 ar
    72   32   42 ar
    73   33   36 ar
    74   38   39 ar
    75   40   41 ar
@<TRIPOS>SUBSTRUCTURE
     1 RES1 1

@<TRIPOS>CRYSIN
  10.0900   13.5940   10.7820  90.0000 116.7400  90.0000   4 1

