# MOL2 file generated by ConQuest
# Please check atom types

@<TRIPOS>MOLECULE
TIDVAE
    39    44     1
SMALL
NO_CHARGES
****
Generated from CSD

@<TRIPOS>ATOM
      1 C1        18.0849    1.6898    3.5239 C.ar      1 RES1    0.0000
      2 H1        17.9644    2.5326    3.9437 H         1 RES1    0.0000
      3 C2        19.1691    0.9165    3.8564 C.ar      1 RES1    0.0000
      4 H2        19.7785    1.2152    4.5222 H         1 RES1    0.0000
      5 C3        19.3711   -0.3171    3.2152 C.ar      1 RES1    0.0000
      6 H3        20.1317   -0.8408    3.4379 H         1 RES1    0.0000
      7 C4        18.5148   -0.7651    2.2939 C.ar      1 RES1    0.0000
      8 H4        18.6848   -1.6038    1.8797 H         1 RES1    0.0000
      9 C5        17.3160   -0.0061    1.8997 C.ar      1 RES1    0.0000
     10 C6        17.1412    1.2499    2.5503 C.ar      1 RES1    0.0000
     11 C7        16.3935   -0.4787    0.9688 C.ar      1 RES1    0.0000
     12 H5        16.5423   -1.3174    0.5462 H         1 RES1    0.0000
     13 C8        15.2597    0.2537    0.6402 C.ar      1 RES1    0.0000
     14 C9        14.2298   -0.1064   -0.2522 C.ar      1 RES1    0.0000
     15 H6        14.2971   -0.9144   -0.7442 H         1 RES1    0.0000
     16 C10       13.1384    0.6874   -0.4198 C.ar      1 RES1    0.0000
     17 H7        12.4652    0.4132   -1.0306 H         1 RES1    0.0000
     18 C11       12.9625    1.9414    0.2978 C.ar      1 RES1    0.0000
     19 H8        12.1782    2.4651    0.1814 H         1 RES1    0.0000
     20 C12       13.9581    2.3444    1.1450 C.ar      1 RES1    0.0000
     21 C13       14.1625    3.5779    1.9918 C.3       1 RES1    0.0000
     22 H9        13.4172    3.6905    2.6491 H         1 RES1    0.0000
     23 C14       14.3833    4.8320    1.2077 C.ar      1 RES1    0.0000
     24 C15       13.5058    5.4518    0.3077 C.ar      1 RES1    0.0000
     25 H10       12.6412    5.0877    0.1524 H         1 RES1    0.0000
     26 C16       13.9050    6.5933   -0.3481 C.ar      1 RES1    0.0000
     27 H11       13.3251    7.0127   -0.9722 H         1 RES1    0.0000
     28 C17       15.1050    1.4831    1.3203 C.ar      1 RES1    0.0000
     29 C18       15.1534    7.1272   -0.0978 C.ar      1 RES1    0.0000
     30 H12       15.4085    7.9292   -0.5400 H         1 RES1    0.0000
     31 C19       16.0286    6.5360    0.7694 C.ar      1 RES1    0.0000
     32 H13       16.8860    6.9165    0.9223 H         1 RES1    0.0000
     33 C20       15.6435    5.3741    1.4219 C.ar      1 RES1    0.0000
     34 C21       16.4290    4.5415    2.3898 C.3       1 RES1    0.0000
     35 H14       16.6345    5.0611    3.2076 H         1 RES1    0.0000
     36 H15       17.2770    4.2387    1.9809 H         1 RES1    0.0000
     37 C22       15.5290    3.3427    2.7227 C.3       1 RES1    0.0000
     38 H16       15.3825    3.2936    3.7105 H         1 RES1    0.0000
     39 C23       16.0002    1.9987    2.2098 C.ar      1 RES1    0.0000
@<TRIPOS>BOND
     1    1    2 1
     2    3    1 ar
     3    4    3 1
     4    5    3 ar
     5    6    5 1
     6    7    5 ar
     7    8    7 1
     8    9    7 ar
     9   10    1 ar
    10   11    9 ar
    11   12   11 1
    12   13   11 ar
    13   14   13 ar
    14   15   14 1
    15   16   14 ar
    16   17   16 1
    17   18   16 ar
    18   19   18 1
    19   20   18 ar
    20   21   20 1
    21   22   21 1
    22   23   21 1
    23   24   23 ar
    24   25   24 1
    25   26   24 ar
    26   27   26 1
    27   28   13 ar
    28   29   26 ar
    29   30   29 1
    30   31   29 ar
    31   32   31 1
    32   33   23 ar
    33   34   33 1
    34   35   34 1
    35   36   34 1
    36   37   21 1
    37   38   37 1
    38   39   10 ar
    39    9   10 ar
    40   20   28 ar
    41   28   39 ar
    42   31   33 ar
    43   34   37 1
    44   37   39 1
@<TRIPOS>SUBSTRUCTURE
     1 RES1 1

@<TRIPOS>CRYSIN
  23.6218   23.6218    4.7492  90.0000  90.0000 120.0000 169 1

