# MOL2 file generated by ConQuest
# Please check atom types

@<TRIPOS>MOLECULE
TIHPOQ
    38    41     1
SMALL
NO_CHARGES
****
Generated from CSD

@<TRIPOS>ATOM
      1 C1         3.3395    6.1430   11.9514 C.3       1 RES1    0.0000
      2 C2         3.2496    6.8862   13.2639 C.ar      1 RES1    0.0000
      3 C3         2.2387    6.8740   14.2058 C.ar      1 RES1    0.0000
      4 H1         1.4794    6.3520   14.0779 H         1 RES1    0.0000
      5 C4         2.3755    7.6481   15.3360 C.ar      1 RES1    0.0000
      6 H2         1.7051    7.6321   15.9812 H         1 RES1    0.0000
      7 C5         3.4714    8.4390   15.5339 C.ar      1 RES1    0.0000
      8 H3         3.5384    8.9610   16.2998 H         1 RES1    0.0000
      9 C6         4.4832    8.4606   14.5881 C.ar      1 RES1    0.0000
     10 H4         5.2320    8.9976   14.7102 H         1 RES1    0.0000
     11 C7         4.3637    7.6781   13.4678 C.ar      1 RES1    0.0000
     12 C8         5.2416    7.5141   12.3016 C.ar      1 RES1    0.0000
     13 C9         6.4705    8.1307   12.0241 C.ar      1 RES1    0.0000
     14 H5         6.8473    8.7071   12.6492 H         1 RES1    0.0000
     15 C10        7.1131    7.8964   10.8573 C.ar      1 RES1    0.0000
     16 C11        6.5326    7.0164    9.9021 C.ar      1 RES1    0.0000
     17 C12        7.1695    6.7419    8.6720 C.ar      1 RES1    0.0000
     18 H6         7.9719    7.1664    8.4692 H         1 RES1    0.0000
     19 C13        6.6359    5.8722    7.7822 C.ar      1 RES1    0.0000
     20 H7         7.0672    5.7157    6.9746 H         1 RES1    0.0000
     21 C14        5.4501    5.2115    8.0694 C.ar      1 RES1    0.0000
     22 H8         5.1048    4.5948    7.4637 H         1 RES1    0.0000
     23 C15        4.7921    5.4608    9.2277 C.ar      1 RES1    0.0000
     24 H9         3.9869    5.0259    9.3960 H         1 RES1    0.0000
     25 C16        5.2990    6.3623   10.1834 C.ar      1 RES1    0.0000
     26 C17        4.6640    6.6519   11.4073 C.ar      1 RES1    0.0000
     27 C18        2.1469    6.5198   11.0552 C.3       1 RES1    0.0000
     28 H10        2.1555    7.4653   10.8906 H         1 RES1    0.0000
     29 H11        1.3283    6.2780   11.4940 H         1 RES1    0.0000
     30 H12        2.2129    6.0493   10.2213 H         1 RES1    0.0000
     31 C19        3.3576    4.6445   12.2114 C.3       1 RES1    0.0000
     32 H13        2.5142    4.3737   12.5816 H         1 RES1    0.0000
     33 H14        4.0605    4.4355   12.8310 H         1 RES1    0.0000
     34 H15        3.5097    4.1778   11.3862 H         1 RES1    0.0000
     35 C20        8.4491    8.5384   10.5753 C.3       1 RES1    0.0000
     36 H16        8.7379    9.0276   11.3492 H         1 RES1    0.0000
     37 H17        8.3649    9.1381    9.8304 H         1 RES1    0.0000
     38 H18        9.0936    7.8580   10.3678 H         1 RES1    0.0000
@<TRIPOS>BOND
     1    1    2 1
     2    2    3 ar
     3    3    4 1
     4    5    3 ar
     5    6    5 1
     6    7    5 ar
     7    8    7 1
     8    9    7 ar
     9   10    9 1
    10   11    2 ar
    11   12   11 1
    12   13   12 ar
    13   14   13 1
    14   15   13 ar
    15   16   15 ar
    16   17   16 ar
    17   18   17 1
    18   19   17 ar
    19   20   19 1
    20   21   19 ar
    21   22   21 1
    22   23   21 ar
    23   24   23 1
    24   25   16 ar
    25   26    1 1
    26   27    1 1
    27   28   27 1
    28   29   27 1
    29   30   27 1
    30   31    1 1
    31   32   31 1
    32   33   31 1
    33   34   31 1
    34   35   15 1
    35   36   35 1
    36   37   35 1
    37   38   35 1
    38    9   11 ar
    39   12   26 ar
    40   23   25 ar
    41   25   26 ar
@<TRIPOS>SUBSTRUCTURE
     1 RES1 1

@<TRIPOS>CRYSIN
   9.5632    9.3715   16.0890  90.0000  90.0000  90.0000  29 1

