# MOL2 file generated by ConQuest
# Please check atom types

@<TRIPOS>MOLECULE
TIQVOE
   120   134     2
SMALL
NO_CHARGES
****
Generated from CSD

@<TRIPOS>ATOM
      1 C1         9.0512    7.3175    6.7035 C.ar      1 RES1    0.0000
      2 H1         8.3861    7.2974    7.3805 H         1 RES1    0.0000
      3 C2        10.4266    7.4454    7.0636 C.ar      1 RES1    0.0000
      4 H2        10.6660    7.5000    7.9808 H         1 RES1    0.0000
      5 C3        11.4027    7.4899    6.1128 C.ar      1 RES1    0.0000
      6 H3        12.3146    7.5818    6.3689 H         1 RES1    0.0000
      7 C4        11.0590    7.3980    4.7347 C.ar      1 RES1    0.0000
      8 C5        11.9591    7.4755    3.6415 C.ar      1 RES1    0.0000
      9 H4        12.8900    7.5718    3.7999 H         1 RES1    0.0000
     10 C6        11.4873    7.4109    2.3625 C.ar      1 RES1    0.0000
     11 H5        12.1086    7.4468    1.6439 H         1 RES1    0.0000
     12 C7        10.1049    7.2917    2.0648 C.ar      1 RES1    0.0000
     13 H6         9.8049    7.2701    1.1637 H         1 RES1    0.0000
     14 C8         9.2138    7.2069    3.1004 C.ar      1 RES1    0.0000
     15 C9         7.6967    7.1681    3.1164 C.3       1 RES1    0.0000
     16 C10        7.0590    8.4437    2.5866 C.ar      1 RES1    0.0000
     17 C11        7.0271    8.9968    1.3381 C.ar      1 RES1    0.0000
     18 H7         7.4530    8.5644    0.6082 H         1 RES1    0.0000
     19 C12        6.3487   10.2236    1.1541 C.ar      1 RES1    0.0000
     20 H8         6.3076   10.5971    0.2801 H         1 RES1    0.0000
     21 C13        5.7524   10.8944    2.1897 C.ar      1 RES1    0.0000
     22 H9         5.3174   11.7233    2.0280 H         1 RES1    0.0000
     23 C14        5.7792   10.3543    3.4958 C.ar      1 RES1    0.0000
     24 C15        6.4307    9.1218    3.6495 C.ar      1 RES1    0.0000
     25 C16        5.2761   10.9547    4.6595 C.ar      1 RES1    0.0000
     26 H10        4.8307   11.7922    4.5986 H         1 RES1    0.0000
     27 C17        5.4177   10.3500    5.8855 C.ar      1 RES1    0.0000
     28 H11        5.0743   10.7795    6.6619 H         1 RES1    0.0000
     29 C18        6.0656    9.0916    6.0136 C.ar      1 RES1    0.0000
     30 H12        6.1531    8.6851    6.8683 H         1 RES1    0.0000
     31 C19        6.5640    8.4624    4.8964 C.ar      1 RES1    0.0000
     32 C20        7.3311    7.1753    4.7011 C.3       1 RES1    0.0000
     33 C21        8.6889    7.2256    5.3877 C.ar      1 RES1    0.0000
     34 C22        9.7029    7.2529    4.4146 C.ar      1 RES1    0.0000
     35 C23        7.0060    5.8279    2.6427 C.3       1 RES1    0.0000
     36 C24        5.4990    6.0678    2.8011 C.2       1 RES1    0.0000
     37 C25        5.2141    6.0606    4.1056 C.2       1 RES1    0.0000
     38 C26        6.5231    5.8293    4.8771 C.3       1 RES1    0.0000
     39 C27        7.2672    4.9387    3.8751 C.3       1 RES1    0.0000
     40 H13        8.2445    4.9373    4.0880 H         1 RES1    0.0000
     41 C28        7.4752    5.3036    1.2933 C.3       1 RES1    0.0000
     42 H14        8.4280    5.0823    1.3413 H         1 RES1    0.0000
     43 H15        7.3328    5.9902    0.6082 H         1 RES1    0.0000
     44 H16        6.9657    4.4991    1.0596 H         1 RES1    0.0000
     45 C29        4.5947    6.3350    1.6455 C.3       1 RES1    0.0000
     46 H17        4.5436    5.5363    1.0788 H         1 RES1    0.0000
     47 H18        4.9455    7.0848    1.1220 H         1 RES1    0.0000
     48 H19        3.6993    6.5591    1.9752 H         1 RES1    0.0000
     49 C30        3.9105    6.3206    4.7987 C.3       1 RES1    0.0000
     50 H20        4.0193    7.0618    5.4310 H         1 RES1    0.0000
     51 H21        3.6329    5.5162    5.2837 H         1 RES1    0.0000
     52 H22        3.2279    6.5562    4.1360 H         1 RES1    0.0000
     53 C31        6.3940    5.3208    6.2937 C.3       1 RES1    0.0000
     54 H23        7.2825    5.1139    6.6491 H         1 RES1    0.0000
     55 H24        5.8427    4.5092    6.3001 H         1 RES1    0.0000
     56 H25        5.9719    6.0074    6.8507 H         1 RES1    0.0000
     57 C32        6.7654    3.4964    3.7503 C.3       1 RES1    0.0000
     58 H26        6.8124    3.0569    4.6242 H         1 RES1    0.0000
     59 H27        7.3269    3.0095    3.1100 H         1 RES1    0.0000
     60 H28        5.8379    3.5008    3.4350 H         1 RES1    0.0000
     61 C33        0.1858    9.2180    1.8103 C.ar      2 RES2    0.0000
     62 H29       -0.1882    9.1519    0.9396 H         2 RES2    0.0000
     63 C34        1.5818    9.1203    1.9992 C.ar      2 RES2    0.0000
     64 H30        2.1399    9.0040    1.2389 H         2 RES2    0.0000
     65 C35        2.1579    9.1835    3.2349 C.ar      2 RES2    0.0000
     66 H31        3.1021    9.1261    3.3245 H         2 RES2    0.0000
     67 C36        1.3380    9.3373    4.3906 C.ar      2 RES2    0.0000
     68 C37        1.7764    9.3531    5.7399 C.ar      2 RES2    0.0000
     69 H32        2.7006    9.2697    5.9400 H         2 RES2    0.0000
     70 C38        0.8682    9.4895    6.7499 C.ar      2 RES2    0.0000
     71 H33        1.1766    9.4795    7.6495 H         2 RES2    0.0000
     72 C39       -0.5162    9.6461    6.5018 C.ar      2 RES2    0.0000
     73 H34       -1.1246    9.7625    7.2221 H         2 RES2    0.0000
     74 C40       -0.9649    9.6260    5.2133 C.ar      2 RES2    0.0000
     75 C41       -2.3653    9.6432    4.6403 C.3       2 RES2    0.0000
     76 C42       -3.1508    8.3978    5.0260 C.ar      2 RES2    0.0000
     77 C43       -3.6184    7.9438    6.2377 C.ar      2 RES2    0.0000
     78 H35       -3.4968    8.4610    7.0252 H         2 RES2    0.0000
     79 C44       -4.2810    6.6970    6.2953 C.ar      2 RES2    0.0000
     80 H36       -4.6056    6.3896    7.1324 H         2 RES2    0.0000
     81 C45       -4.4716    5.9184    5.1893 C.ar      2 RES2    0.0000
     82 H37       -4.9103    5.0795    5.2693 H         2 RES2    0.0000
     83 C46       -4.0144    6.3594    3.9200 C.ar      2 RES2    0.0000
     84 C47       -3.3541    7.6091    3.8880 C.ar      2 RES2    0.0000
     85 C48       -4.1521    5.6928    2.6891 C.ar      2 RES2    0.0000
     86 H38       -4.6077    4.8611    2.6539 H         2 RES2    0.0000
     87 C49       -3.6353    6.2287    1.5446 C.ar      2 RES2    0.0000
     88 H39       -3.7437    5.7561    0.7283 H         2 RES2    0.0000
     89 C50       -2.9425    7.4684    1.5286 C.ar      2 RES2    0.0000
     90 H40       -2.5808    7.8117    0.7203 H         2 RES2    0.0000
     91 C51       -2.8034    8.1564    2.7067 C.ar      2 RES2    0.0000
     92 C52       -2.1388    9.4780    3.0444 C.3       2 RES2    0.0000
     93 C53       -0.6329    9.4134    2.9036 C.ar      2 RES2    0.0000
     94 C54       -0.0363    9.4708    4.1809 C.ar      2 RES2    0.0000
     95 C55       -3.1408   11.0065    4.7187 C.3       2 RES2    0.0000
     96 C56       -4.5097   10.7364    4.0752 C.2       2 RES2    0.0000
     97 C57       -4.3382   10.6057    2.7579 C.2       2 RES2    0.0000
     98 C58       -2.8288   10.7795    2.4650 C.3       2 RES2    0.0000
     99 C59       -2.4619   11.7865    3.5614 C.3       2 RES2    0.0000
    100 H41       -1.4693   11.7836    3.6959 H         2 RES2    0.0000
    101 C60       -3.1613   11.6802    6.0808 C.3       2 RES2    0.0000
    102 H42       -2.2541   11.9617    6.3193 H         2 RES2    0.0000
    103 H43       -3.4948   11.0481    6.7531 H         2 RES2    0.0000
    104 H44       -3.7499   12.4631    6.0488 H         2 RES2    0.0000
    105 C61       -5.7622   10.5712    4.8899 C.3       2 RES2    0.0000
    106 H45       -5.9467   11.4015    5.3749 H         2 RES2    0.0000
    107 H46       -5.6404    9.8386    5.5286 H         2 RES2    0.0000
    108 H47       -6.5119   10.3643    4.2945 H         2 RES2    0.0000
    109 C62       -5.3381   10.2552    1.7079 C.3       2 RES2    0.0000
    110 H48       -5.1042    9.3918    1.3093 H         2 RES2    0.0000
    111 H49       -5.3391   10.9461    1.0132 H         2 RES2    0.0000
    112 H50       -6.2295   10.1977    2.1112 H         2 RES2    0.0000
    113 C63       -2.4632   11.1401    1.0436 C.3       2 RES2    0.0000
    114 H51       -2.6750   10.3902    0.4514 H         2 RES2    0.0000
    115 H52       -1.5032   11.3354    0.9940 H         2 RES2    0.0000
    116 H53       -2.9713   11.9301    0.7667 H         2 RES2    0.0000
    117 C64       -2.9355   13.2158    3.3549 C.3       2 RES2    0.0000
    118 H54       -2.7369   13.7459    4.1537 H         2 RES2    0.0000
    119 H55       -3.9039   13.2187    3.1933 H         2 RES2    0.0000
    120 H56       -2.4752   13.6051    2.5818 H         2 RES2    0.0000
@<TRIPOS>BOND
     1    1    2 1
     2    3    1 ar
     3    4    3 1
     4    5    3 ar
     5    6    5 1
     6    7    5 ar
     7    8    7 ar
     8    9    8 1
     9   10    8 ar
    10   11   10 1
    11   12   10 ar
    12   13   12 1
    13   14   12 ar
    14   15   14 1
    15   16   15 1
    16   17   16 ar
    17   18   17 1
    18   19   17 ar
    19   20   19 1
    20   21   19 ar
    21   22   21 1
    22   23   21 ar
    23   24   16 ar
    24   25   23 ar
    25   26   25 1
    26   27   25 ar
    27   28   27 1
    28   29   27 ar
    29   30   29 1
    30   31   24 ar
    31   32   15 1
    32   33    1 ar
    33   34    7 ar
    34   35   15 1
    35   36   35 1
    36   37   36 2
    37   38   32 1
    38   39   35 1
    39   40   39 1
    40   41   35 1
    41   42   41 1
    42   43   41 1
    43   44   41 1
    44   45   36 1
    45   46   45 1
    46   47   45 1
    47   48   45 1
    48   49   37 1
    49   50   49 1
    50   51   49 1
    51   52   49 1
    52   53   38 1
    53   54   53 1
    54   55   53 1
    55   56   53 1
    56   57   39 1
    57   58   57 1
    58   59   57 1
    59   60   57 1
    60   61   62 1
    61   63   61 ar
    62   64   63 1
    63   65   63 ar
    64   66   65 1
    65   67   65 ar
    66   68   67 ar
    67   69   68 1
    68   70   68 ar
    69   71   70 1
    70   72   70 ar
    71   73   72 1
    72   74   72 ar
    73   75   74 1
    74   76   75 1
    75   77   76 ar
    76   78   77 1
    77   79   77 ar
    78   80   79 1
    79   81   79 ar
    80   82   81 1
    81   83   81 ar
    82   84   76 ar
    83   85   83 ar
    84   86   85 1
    85   87   85 ar
    86   88   87 1
    87   89   87 ar
    88   90   89 1
    89   91   84 ar
    90   92   75 1
    91   93   61 ar
    92   94   67 ar
    93   95   75 1
    94   96   95 1
    95   97   96 2
    96   98   92 1
    97   99   95 1
    98  100   99 1
    99  101   95 1
   100  102  101 1
   101  103  101 1
   102  104  101 1
   103  105   96 1
   104  106  105 1
   105  107  105 1
   106  108  105 1
   107  109   97 1
   108  110  109 1
   109  111  109 1
   110  112  109 1
   111  113   98 1
   112  114  113 1
   113  115  113 1
   114  116  113 1
   115  117   99 1
   116  118  117 1
   117  119  117 1
   118  120  117 1
   119   14   34 ar
   120   23   24 ar
   121   29   31 ar
   122   31   32 1
   123   32   33 1
   124   33   34 ar
   125   37   38 1
   126   38   39 1
   127   74   94 ar
   128   83   84 ar
   129   89   91 ar
   130   91   92 1
   131   92   93 1
   132   93   94 ar
   133   97   98 1
   134   98   99 1
@<TRIPOS>SUBSTRUCTURE
     1 RES1 1
     2 RES2 61

@<TRIPOS>CRYSIN
  19.3940   14.3650   17.1940  90.0000 111.4200  90.0000  14 1

