# MOL2 file generated by ConQuest
# Please check atom types

@<TRIPOS>MOLECULE
TIQVIY
    58    67     1
SMALL
NO_CHARGES
****
Generated from CSD

@<TRIPOS>ATOM
      1 C1         2.3054    9.8268    6.4479 C.ar      1 RES1    0.0000
      2 H1         1.6380    9.2164    6.7375 H         1 RES1    0.0000
      3 C2         2.1968   11.1807    6.7465 C.ar      1 RES1    0.0000
      4 H2         1.4554   11.4963    7.2494 H         1 RES1    0.0000
      5 C3         3.1628   12.0681    6.3150 C.ar      1 RES1    0.0000
      6 H3         3.0961   12.9873    6.5463 H         1 RES1    0.0000
      7 C4         4.2311   11.6279    5.5466 C.ar      1 RES1    0.0000
      8 H4         4.8795   12.2461    5.2301 H         1 RES1    0.0000
      9 C5         4.3452   10.2811    5.2453 C.ar      1 RES1    0.0000
     10 C6         7.3768    8.3115    5.3638 C.ar      1 RES1    0.0000
     11 H5         8.0123    8.9043    4.9804 H         1 RES1    0.0000
     12 C7         7.8015    7.2345    6.1353 C.ar      1 RES1    0.0000
     13 H6         8.7298    7.0969    6.2856 H         1 RES1    0.0000
     14 C8         6.8794    6.3661    6.6831 C.ar      1 RES1    0.0000
     15 H7         7.1759    5.6419    7.2210 H         1 RES1    0.0000
     16 C9         5.5191    6.5439    6.4521 C.ar      1 RES1    0.0000
     17 H8         4.8869    5.9338    6.8117 H         1 RES1    0.0000
     18 C10        5.0992    7.6196    5.6926 C.ar      1 RES1    0.0000
     19 C11        3.6671    7.9424    5.3268 C.3       1 RES1    0.0000
     20 H9         3.0209    7.3092    5.7515 H         1 RES1    0.0000
     21 C12        3.3964    9.3768    5.7239 C.ar      1 RES1    0.0000
     22 C13        5.3952    9.6423    4.3675 C.3       1 RES1    0.0000
     23 H10        6.0751   10.3043    4.0529 H         1 RES1    0.0000
     24 C14        6.0245    8.5151    5.1583 C.ar      1 RES1    0.0000
     25 C15        0.9915    7.7875    3.4079 C.ar      1 RES1    0.0000
     26 H11        0.8687    6.9943    3.9170 H         1 RES1    0.0000
     27 C16       -0.1107    8.4334    2.8012 C.ar      1 RES1    0.0000
     28 H12       -0.9762    8.0548    2.8995 H         1 RES1    0.0000
     29 C17        0.0298    9.5874    2.0754 C.ar      1 RES1    0.0000
     30 H13       -0.7358    9.9951    1.6891 H         1 RES1    0.0000
     31 C18        1.3028   10.1769    1.8953 C.ar      1 RES1    0.0000
     32 C19        1.6193   11.3522    1.1671 C.ar      1 RES1    0.0000
     33 H14        0.9314   11.8315    0.7205 H         1 RES1    0.0000
     34 C20        2.9146   11.7991    1.1050 C.ar      1 RES1    0.0000
     35 H15        3.1032   12.5914    0.6162 H         1 RES1    0.0000
     36 C21        3.9810   11.1186    1.7455 C.ar      1 RES1    0.0000
     37 H16        4.8666   11.4587    1.7018 H         1 RES1    0.0000
     38 C22        3.7113    9.9636    2.4269 C.ar      1 RES1    0.0000
     39 C23        4.6106    8.9859    3.1671 C.3       1 RES1    0.0000
     40 C24        5.5223    8.1884    2.2559 C.ar      1 RES1    0.0000
     41 C25        6.5538    8.5620    1.4350 C.ar      1 RES1    0.0000
     42 H17        6.8110    9.4736    1.3668 H         1 RES1    0.0000
     43 C26        7.2311    7.5635    0.6884 C.ar      1 RES1    0.0000
     44 H18        7.9370    7.8236    0.1090 H         1 RES1    0.0000
     45 C27        6.9015    6.2366    0.7741 C.ar      1 RES1    0.0000
     46 H19        7.3850    5.5943    0.2686 H         1 RES1    0.0000
     47 C28        5.8414    5.8204    1.6147 C.ar      1 RES1    0.0000
     48 C29        5.1716    6.8267    2.3245 C.ar      1 RES1    0.0000
     49 C30        5.3778    4.4956    1.8158 C.ar      1 RES1    0.0000
     50 H20        5.7988    3.7724    1.3668 H         1 RES1    0.0000
     51 C31        4.3198    4.2581    2.6591 C.ar      1 RES1    0.0000
     52 H21        4.0261    3.3635    2.7809 H         1 RES1    0.0000
     53 C32        3.6493    5.2933    3.3540 C.ar      1 RES1    0.0000
     54 H22        2.9182    5.1001    3.9297 H         1 RES1    0.0000
     55 C33        4.0797    6.5767    3.1771 C.ar      1 RES1    0.0000
     56 C34        3.5953    7.8914    3.7567 C.3       1 RES1    0.0000
     57 C35        2.2383    8.3274    3.2477 C.ar      1 RES1    0.0000
     58 C36        2.3812    9.5160    2.5044 C.ar      1 RES1    0.0000
@<TRIPOS>BOND
     1    1    2 1
     2    3    1 ar
     3    4    3 1
     4    5    3 ar
     5    6    5 1
     6    7    5 ar
     7    8    7 1
     8    9    7 ar
     9   10   11 1
    10   12   10 ar
    11   13   12 1
    12   14   12 ar
    13   15   14 1
    14   16   14 ar
    15   17   16 1
    16   18   16 ar
    17   19   18 1
    18   20   19 1
    19   21    1 ar
    20   22    9 1
    21   23   22 1
    22   24   10 ar
    23   25   26 1
    24   27   25 ar
    25   28   27 1
    26   29   27 ar
    27   30   29 1
    28   31   29 ar
    29   32   31 ar
    30   33   32 1
    31   34   32 ar
    32   35   34 1
    33   36   34 ar
    34   37   36 1
    35   38   36 ar
    36   39   22 1
    37   40   39 1
    38   41   40 ar
    39   42   41 1
    40   43   41 ar
    41   44   43 1
    42   45   43 ar
    43   46   45 1
    44   47   45 ar
    45   48   40 ar
    46   49   47 ar
    47   50   49 1
    48   51   49 ar
    49   52   51 1
    50   53   51 ar
    51   54   53 1
    52   55   48 ar
    53   56   19 1
    54   57   25 ar
    55   58   31 ar
    56    9   21 ar
    57   18   24 ar
    58   19   21 1
    59   22   24 1
    60   38   39 1
    61   38   58 ar
    62   39   56 1
    63   47   48 ar
    64   53   55 ar
    65   55   56 1
    66   56   57 1
    67   57   58 ar
@<TRIPOS>SUBSTRUCTURE
     1 RES1 1

@<TRIPOS>CRYSIN
  10.2450   14.4480   16.1280  90.0000 101.5600  90.0000 231 1

