# MOL2 file generated by ConQuest
# Please check atom types

@<TRIPOS>MOLECULE
TIQWAR
   126   135     1
SMALL
NO_CHARGES
****
Generated from CSD

@<TRIPOS>ATOM
      1 C1        12.5611    2.5780   10.5329 C.ar      1 RES1    0.0000
      2 C2        11.7845    3.6546   10.0536 C.ar      1 RES1    0.0000
      3 H1        11.4160    3.6038    9.2013 H         1 RES1    0.0000
      4 C3        11.5617    4.7677   10.8096 C.ar      1 RES1    0.0000
      5 C4        12.1068    4.8527   12.1245 C.ar      1 RES1    0.0000
      6 H2        11.9901    5.6294   12.6227 H         1 RES1    0.0000
      7 C5        12.8004    3.7998   12.6606 C.ar      1 RES1    0.0000
      8 C6        13.5621    3.5590   13.9085 C.ar      1 RES1    0.0000
      9 C7        13.7791    4.3416   15.0378 C.ar      1 RES1    0.0000
     10 C8        13.1623    5.5999   15.5115 C.ar      1 RES1    0.0000
     11 C9        12.0567    6.3577   15.1938 C.ar      1 RES1    0.0000
     12 H3        11.4983    6.0815   14.5029 H         1 RES1    0.0000
     13 C10       11.7516    7.5535   15.9009 C.ar      1 RES1    0.0000
     14 C11       12.5756    7.9596   16.9201 C.ar      1 RES1    0.0000
     15 H4        12.4049    8.7658   17.3492 H         1 RES1    0.0000
     16 C12       13.6847    7.1722   17.3352 C.ar      1 RES1    0.0000
     17 C13       14.5440    7.4449   18.4250 C.ar      1 RES1    0.0000
     18 H5        14.4386    8.2358   18.9027 H         1 RES1    0.0000
     19 C14       15.5297    6.5643   18.7949 C.ar      1 RES1    0.0000
     20 C15       15.6871    5.3497   18.0706 C.ar      1 RES1    0.0000
     21 H6        16.3153    4.7264   18.3566 H         1 RES1    0.0000
     22 C16       14.9285    5.0782   16.9562 C.ar      1 RES1    0.0000
     23 C17       14.8295    3.9875   15.9586 C.ar      1 RES1    0.0000
     24 C18       15.5066    2.7775   15.7971 C.ar      1 RES1    0.0000
     25 C19       16.6501    2.1519   16.5168 C.ar      1 RES1    0.0000
     26 C20       17.6198    2.5532   17.4024 C.ar      1 RES1    0.0000
     27 H7        17.6265    3.4315   17.7057 H         1 RES1    0.0000
     28 C21       18.6204    1.6396   17.8664 C.ar      1 RES1    0.0000
     29 C22       18.6083    0.3470   17.4170 C.ar      1 RES1    0.0000
     30 H8        19.2412   -0.2514   17.7429 H         1 RES1    0.0000
     31 C23       17.6586   -0.1039   16.4694 C.ar      1 RES1    0.0000
     32 C24       17.5791   -1.3976   15.8964 C.ar      1 RES1    0.0000
     33 H9        18.1775   -2.0528   16.1756 H         1 RES1    0.0000
     34 C25       16.6419   -1.7140   14.9379 C.ar      1 RES1    0.0000
     35 C26       15.7435   -0.7000   14.4868 C.ar      1 RES1    0.0000
     36 H10       15.1083   -0.9066   13.8396 H         1 RES1    0.0000
     37 C27       15.8011    0.5784   14.9937 C.ar      1 RES1    0.0000
     38 C28       15.0836    1.8580   14.7760 C.ar      1 RES1    0.0000
     39 C29       14.2123    2.2829   13.7785 C.ar      1 RES1    0.0000
     40 C30       13.8664    1.7234   12.4494 C.ar      1 RES1    0.0000
     41 C31       14.2890    0.6717   11.6773 C.ar      1 RES1    0.0000
     42 H11       14.8808    0.0496   12.0345 H         1 RES1    0.0000
     43 C32       13.8304    0.5170   10.3258 C.ar      1 RES1    0.0000
     44 C33       12.9774    1.4519    9.7972 C.ar      1 RES1    0.0000
     45 H12       12.6661    1.3398    8.9280 H         1 RES1    0.0000
     46 C34       13.0088    2.6642   11.8508 C.ar      1 RES1    0.0000
     47 C35       13.9236    6.0107   16.6166 C.ar      1 RES1    0.0000
     48 C36       16.7355    0.8310   16.0209 C.ar      1 RES1    0.0000
     49 C37       10.7506    5.9552   10.2894 C.3       1 RES1    0.0000
     50 C38       10.0210    5.6589    9.0022 C.3       1 RES1    0.0000
     51 H13        9.5170    4.8468    9.0994 H         1 RES1    0.0000
     52 H14       10.6570    5.5562    8.2899 H         1 RES1    0.0000
     53 H15        9.4250    6.3825    8.7972 H         1 RES1    0.0000
     54 C39        9.5597    6.1665   11.3294 C.3       1 RES1    0.0000
     55 H16        9.0192    5.3756   11.3632 H         1 RES1    0.0000
     56 H17        9.0232    6.9114   11.0525 H         1 RES1    0.0000
     57 H18        9.9239    6.3412   12.2023 H         1 RES1    0.0000
     58 C40       11.5413    7.1522   10.2620 C.3       1 RES1    0.0000
     59 H19       11.9721    7.2714   11.1117 H         1 RES1    0.0000
     60 H20       10.9774    7.9053   10.0802 H         1 RES1    0.0000
     61 H21       12.2071    7.0790    9.5729 H         1 RES1    0.0000
     62 C41       10.5227    8.3774   15.4891 C.3       1 RES1    0.0000
     63 C42        9.3016    7.4768   15.3327 C.3       1 RES1    0.0000
     64 H22        9.1195    7.0377   16.1676 H         1 RES1    0.0000
     65 H23        9.4739    6.8181   14.6563 H         1 RES1    0.0000
     66 H24        8.5430    8.0068   15.0791 H         1 RES1    0.0000
     67 C43       10.8172    9.0739   14.1765 C.3       1 RES1    0.0000
     68 H25       11.5860    9.6393   14.2780 H         1 RES1    0.0000
     69 H26       10.0606    9.6063   13.9186 H         1 RES1    0.0000
     70 H27       10.9915    8.4176   13.4980 H         1 RES1    0.0000
     71 C44       10.1808    9.4469   16.5248 C.3       1 RES1    0.0000
     72 H28        9.9901    9.0279   17.3661 H         1 RES1    0.0000
     73 H29        9.4120    9.9427   16.2310 H         1 RES1    0.0000
     74 H30       10.9261   10.0442   16.6263 H         1 RES1    0.0000
     75 C45       16.4391    6.8429   19.9871 C.3       1 RES1    0.0000
     76 C46       16.2605    8.2252   20.5514 C.3       1 RES1    0.0000
     77 H31       15.3480    8.3479   20.8135 H         1 RES1    0.0000
     78 H32       16.4915    8.8744   19.8814 H         1 RES1    0.0000
     79 H33       16.8323    8.3361   21.3144 H         1 RES1    0.0000
     80 C47       17.8877    6.6729   19.5791 C.3       1 RES1    0.0000
     81 H34       18.0165    5.7923   19.2177 H         1 RES1    0.0000
     82 H35       18.4524    6.7886   20.3464 H         1 RES1    0.0000
     83 H36       18.1125    7.3280   18.9154 H         1 RES1    0.0000
     84 C48       16.1391    5.8325   21.0777 C.3       1 RES1    0.0000
     85 H37       16.2487    4.9448   20.7290 H         1 RES1    0.0000
     86 H38       15.2344    5.9481   21.3800 H         1 RES1    0.0000
     87 H39       16.7422    5.9658   21.8133 H         1 RES1    0.0000
     88 C49       19.6735    2.1602   18.8471 C.3       1 RES1    0.0000
     89 C50       20.4306    3.3229   18.2052 C.3       1 RES1    0.0000
     90 H40       21.0920    3.6510   18.8182 H         1 RES1    0.0000
     91 H41       19.8137    4.0264   17.9917 H         1 RES1    0.0000
     92 H42       20.8602    3.0195   17.4020 H         1 RES1    0.0000
     93 C51       18.9890    2.6229   20.1371 C.3       1 RES1    0.0000
     94 H43       18.5170    1.8863   20.5324 H         1 RES1    0.0000
     95 H44       18.3694    3.3288   19.9342 H         1 RES1    0.0000
     96 H45       19.6508    2.9463   20.7522 H         1 RES1    0.0000
     97 C52       20.6992    1.0777   19.2240 C.3       1 RES1    0.0000
     98 H46       20.2461    0.3352   19.6298 H         1 RES1    0.0000
     99 H47       21.3356    1.4413   19.8433 H         1 RES1    0.0000
    100 H48       21.1555    0.7803   18.4335 H         1 RES1    0.0000
    101 C53       16.6274   -3.0974   14.2716 C.3       1 RES1    0.0000
    102 C54       17.2074   -4.1716   15.1805 C.3       1 RES1    0.0000
    103 H49       18.1019   -3.9296   15.4299 H         1 RES1    0.0000
    104 H50       17.2219   -5.0097   14.7134 H         1 RES1    0.0000
    105 H51       16.6650   -4.2519   15.9668 H         1 RES1    0.0000
    106 C55       15.2113   -3.5401   13.9123 C.3       1 RES1    0.0000
    107 H52       14.8083   -2.8849   13.3374 H         1 RES1    0.0000
    108 H53       14.6896   -3.6274   14.7113 H         1 RES1    0.0000
    109 H54       15.2465   -4.3853   13.4579 H         1 RES1    0.0000
    110 C56       17.4593   -2.9971   12.9886 C.3       1 RES1    0.0000
    111 H55       17.0896   -2.3183   12.4200 H         1 RES1    0.0000
    112 H56       17.4448   -3.8411   12.5321 H         1 RES1    0.0000
    113 H57       18.3651   -2.7693   13.2127 H         1 RES1    0.0000
    114 C57       14.3485   -0.6610    9.5032 C.3       1 RES1    0.0000
    115 C58       13.7760   -0.7118    8.1018 C.3       1 RES1    0.0000
    116 H58       12.8188   -0.7685    8.1483 H         1 RES1    0.0000
    117 H59       14.1194   -1.4826    7.6431 H         1 RES1    0.0000
    118 H60       14.0266    0.0814    7.6241 H         1 RES1    0.0000
    119 C59       15.8532   -0.5725    9.3996 C.3       1 RES1    0.0000
    120 H61       16.2327   -0.5395   10.2810 H         1 RES1    0.0000
    121 H62       16.0948    0.2207    8.9177 H         1 RES1    0.0000
    122 H63       16.1880   -1.3433    8.9367 H         1 RES1    0.0000
    123 C60       13.9499   -1.9489   10.1986 C.3       1 RES1    0.0000
    124 H64       12.9943   -1.9973   10.2620 H         1 RES1    0.0000
    125 H65       14.3297   -1.9654   11.0821 H         1 RES1    0.0000
    126 H66       14.2788   -2.6984    9.6976 H         1 RES1    0.0000
@<TRIPOS>BOND
     1    1    2 ar
     2    2    3 1
     3    4    2 ar
     4    5    4 ar
     5    6    5 1
     6    7    5 ar
     7    8    7 1
     8    9    8 ar
     9   10    9 1
    10   11   10 ar
    11   12   11 1
    12   13   11 ar
    13   14   13 ar
    14   15   14 1
    15   16   14 ar
    16   17   16 ar
    17   18   17 1
    18   19   17 ar
    19   20   19 ar
    20   21   20 1
    21   22   20 ar
    22   23    9 ar
    23   24   23 ar
    24   25   24 1
    25   26   25 ar
    26   27   26 1
    27   28   26 ar
    28   29   28 ar
    29   30   29 1
    30   31   29 ar
    31   32   31 ar
    32   33   32 1
    33   34   32 ar
    34   35   34 ar
    35   36   35 1
    36   37   35 ar
    37   38   24 ar
    38   39    8 ar
    39   40   39 1
    40   41   40 ar
    41   42   41 1
    42   43   41 ar
    43   44    1 ar
    44   45   44 1
    45   46    1 ar
    46   47   10 ar
    47   48   25 ar
    48   49    4 1
    49   50   49 1
    50   51   50 1
    51   52   50 1
    52   53   50 1
    53   54   49 1
    54   55   54 1
    55   56   54 1
    56   57   54 1
    57   58   49 1
    58   59   58 1
    59   60   58 1
    60   61   58 1
    61   62   13 1
    62   63   62 1
    63   64   63 1
    64   65   63 1
    65   66   63 1
    66   67   62 1
    67   68   67 1
    68   69   67 1
    69   70   67 1
    70   71   62 1
    71   72   71 1
    72   73   71 1
    73   74   71 1
    74   75   19 1
    75   76   75 1
    76   77   76 1
    77   78   76 1
    78   79   76 1
    79   80   75 1
    80   81   80 1
    81   82   80 1
    82   83   80 1
    83   84   75 1
    84   85   84 1
    85   86   84 1
    86   87   84 1
    87   88   28 1
    88   89   88 1
    89   90   89 1
    90   91   89 1
    91   92   89 1
    92   93   88 1
    93   94   93 1
    94   95   93 1
    95   96   93 1
    96   97   88 1
    97   98   97 1
    98   99   97 1
    99  100   97 1
   100  101   34 1
   101  102  101 1
   102  103  102 1
   103  104  102 1
   104  105  102 1
   105  106  101 1
   106  107  106 1
   107  108  106 1
   108  109  106 1
   109  110  101 1
   110  111  110 1
   111  112  110 1
   112  113  110 1
   113  114   43 1
   114  115  114 1
   115  116  115 1
   116  117  115 1
   117  118  115 1
   118  119  114 1
   119  120  119 1
   120  121  119 1
   121  122  119 1
   122  123  114 1
   123  124  123 1
   124  125  123 1
   125  126  123 1
   126    7   46 ar
   127   16   47 ar
   128   22   23 1
   129   22   47 ar
   130   31   48 ar
   131   37   38 1
   132   37   48 ar
   133   38   39 ar
   134   40   46 ar
   135   43   44 ar
@<TRIPOS>SUBSTRUCTURE
     1 RES1 1

@<TRIPOS>CRYSIN
  39.1630   11.8042   21.1369  90.0000  90.0000  90.0000  60 1

