# MOL2 file generated by ConQuest
# Please check atom types

@<TRIPOS>MOLECULE
TISSUK
    48    53     1
SMALL
NO_CHARGES
****
Generated from CSD

@<TRIPOS>ATOM
      1 C1         3.9353    6.1279    7.6084 C.ar      1 RES1    0.0000
      2 H1         3.6200    5.2525    7.6110 H         1 RES1    0.0000
      3 C2         4.7145    6.5892    8.6756 C.ar      1 RES1    0.0000
      4 H2         4.9120    6.0261    9.3891 H         1 RES1    0.0000
      5 C3         5.1844    7.8754    8.6638 C.ar      1 RES1    0.0000
      6 H3         5.6957    8.1820    9.3780 H         1 RES1    0.0000
      7 C4         4.9056    8.7453    7.5860 C.ar      1 RES1    0.0000
      8 C5         5.4011   10.0819    7.5544 C.ar      1 RES1    0.0000
      9 H4         5.9490   10.3792    8.2447 H         1 RES1    0.0000
     10 C6         5.0932   10.9273    6.5452 C.ar      1 RES1    0.0000
     11 H5         5.4276   11.7949    6.5613 H         1 RES1    0.0000
     12 C7         4.2625   10.5163    5.4495 C.ar      1 RES1    0.0000
     13 C8         3.8706   11.4210    4.3964 C.ar      1 RES1    0.0000
     14 C9         4.3981   12.7412    4.3100 C.ar      1 RES1    0.0000
     15 H6         4.9554   13.0415    4.9911 H         1 RES1    0.0000
     16 C10        4.1258   13.5820    3.2781 C.ar      1 RES1    0.0000
     17 C11        3.1179   13.2048    2.3271 C.ar      1 RES1    0.0000
     18 C12        2.7343   14.0813    1.2559 C.ar      1 RES1    0.0000
     19 H7         3.2376   14.8462    1.0927 H         1 RES1    0.0000
     20 C13        1.6637   13.8230    0.4818 C.ar      1 RES1    0.0000
     21 H8         1.4967   14.3515   -0.2658 H         1 RES1    0.0000
     22 C14        0.7841   12.7493    0.7962 C.ar      1 RES1    0.0000
     23 C15       -0.4855   12.6266    0.1806 C.ar      1 RES1    0.0000
     24 H9        -0.6977   13.1752   -0.5402 H         1 RES1    0.0000
     25 C16       -1.3999   11.7224    0.6232 C.ar      1 RES1    0.0000
     26 H10       -2.2263   11.6502    0.2018 H         1 RES1    0.0000
     27 C17       -1.0939   10.9007    1.7150 C.ar      1 RES1    0.0000
     28 H11       -1.7345   10.3139    2.0476 H         1 RES1    0.0000
     29 C18        0.1478   10.9583    2.2960 C.ar      1 RES1    0.0000
     30 H12        0.3380   10.4003    3.0149 H         1 RES1    0.0000
     31 C19        1.1450   11.8447    1.8286 C.ar      1 RES1    0.0000
     32 C20        2.4357   11.9836    2.4809 C.ar      1 RES1    0.0000
     33 C21        2.9777   10.9879    3.3836 C.ar      1 RES1    0.0000
     34 C22        2.7486    9.5764    3.2409 C.ar      1 RES1    0.0000
     35 C23        3.1383    8.7420    4.2484 C.ar      1 RES1    0.0000
     36 H13        2.9551    7.8338    4.1642 H         1 RES1    0.0000
     37 C24        3.8073    9.1861    5.4155 C.ar      1 RES1    0.0000
     38 C25        4.1091    8.2836    6.5092 C.ar      1 RES1    0.0000
     39 C26        3.6339    6.9549    6.5604 C.ar      1 RES1    0.0000
     40 H14        3.1039    6.6347    5.8660 H         1 RES1    0.0000
     41 C27        2.2744    8.9350    1.9541 C.3       1 RES1    0.0000
     42 H15        2.8237    8.1725    1.7548 H         1 RES1    0.0000
     43 H16        2.3382    9.5708    1.2379 H         1 RES1    0.0000
     44 H17        1.3620    8.6542    2.0538 H         1 RES1    0.0000
     45 C28        4.7894   14.9286    3.1861 C.3       1 RES1    0.0000
     46 H18        5.3978   15.0358    3.9205 H         1 RES1    0.0000
     47 H19        4.1221   15.6177    3.2204 H         1 RES1    0.0000
     48 H20        5.2727   14.9918    2.3590 H         1 RES1    0.0000
@<TRIPOS>BOND
     1    1    2 1
     2    3    1 ar
     3    4    3 1
     4    5    3 ar
     5    6    5 1
     6    7    5 ar
     7    8    7 ar
     8    9    8 1
     9   10    8 ar
    10   11   10 1
    11   12   10 ar
    12   13   12 ar
    13   14   13 ar
    14   15   14 1
    15   16   14 ar
    16   17   16 ar
    17   18   17 ar
    18   19   18 1
    19   20   18 ar
    20   21   20 1
    21   22   20 ar
    22   23   22 ar
    23   24   23 1
    24   25   23 ar
    25   26   25 1
    26   27   25 ar
    27   28   27 1
    28   29   27 ar
    29   30   29 1
    30   31   22 ar
    31   32   17 ar
    32   33   13 ar
    33   34   33 ar
    34   35   34 ar
    35   36   35 1
    36   37   12 ar
    37   38    7 ar
    38   39    1 ar
    39   40   39 1
    40   41   34 1
    41   42   41 1
    42   43   41 1
    43   44   41 1
    44   45   16 1
    45   46   45 1
    46   47   45 1
    47   48   45 1
    48   29   31 ar
    49   31   32 ar
    50   32   33 ar
    51   35   37 ar
    52   37   38 ar
    53   38   39 ar
@<TRIPOS>SUBSTRUCTURE
     1 RES1 1

@<TRIPOS>CRYSIN
   7.2404   10.3639   12.9500  71.8530  85.1260  75.5110   2 1

