# MOL2 file generated by ConQuest
# Please check atom types

@<TRIPOS>MOLECULE
TMNHPL
    50    54     1
SMALL
NO_CHARGES
****
Generated from CSD

@<TRIPOS>ATOM
      1 C1         5.0385    2.7076   15.9469 C.ar      1 RES1    0.0000
      2 C2         4.7287    3.9046   16.5478 C.ar      1 RES1    0.0000
      3 C3         3.4074    4.3177   16.7239 C.ar      1 RES1    0.0000
      4 C4         2.3910    3.5567   16.2991 C.ar      1 RES1    0.0000
      5 C5         1.5678    1.5062   15.2280 C.ar      1 RES1    0.0000
      6 C6         1.7999    0.3206   14.6216 C.ar      1 RES1    0.0000
      7 C7         3.1317   -0.1251   14.4256 C.ar      1 RES1    0.0000
      8 C8         4.1948    0.6280   14.8377 C.ar      1 RES1    0.0000
      9 C9         3.9788    1.8796   15.4803 C.ar      1 RES1    0.0000
     10 C10        2.6256    2.3130   15.6673 C.ar      1 RES1    0.0000
     11 C11        6.4879    2.2619   15.8688 C.3       1 RES1    0.0000
     12 C12        7.4211    3.4140   15.4713 C.3       1 RES1    0.0000
     13 C13        6.9262    1.7889   17.2649 C.3       1 RES1    0.0000
     14 C14        5.8074   -0.6130   13.3145 C.ar      1 RES1    0.0000
     15 C15        6.2965   -1.8928   13.2564 C.ar      1 RES1    0.0000
     16 C16        6.5476   -2.5446   12.0255 C.ar      1 RES1    0.0000
     17 C17        6.3114   -1.9307   10.8636 C.ar      1 RES1    0.0000
     18 C18        5.5275    0.0291    9.6201 C.ar      1 RES1    0.0000
     19 C19        5.0268    1.2763    9.5838 C.ar      1 RES1    0.0000
     20 C20        4.7780    1.9624   10.7729 C.ar      1 RES1    0.0000
     21 C21        5.0238    1.3749   11.9856 C.ar      1 RES1    0.0000
     22 C22        5.5449    0.0581   12.0764 C.ar      1 RES1    0.0000
     23 C23        5.8085   -0.6174   10.8437 C.ar      1 RES1    0.0000
     24 C24        5.6059    0.0705   14.6833 C.3       1 RES1    0.0000
     25 C25        6.6712    1.1812   14.7923 C.3       1 RES1    0.0000
     26 C26        5.7630   -0.9354   15.8452 C.3       1 RES1    0.0000
     27 H1         5.4729    4.4745   16.8837 H         1 RES1    0.0000
     28 H2         3.2881    5.2231   17.2286 H         1 RES1    0.0000
     29 H3         1.5188    3.7786   16.4480 H         1 RES1    0.0000
     30 H4         0.6613    1.7968   15.4132 H         1 RES1    0.0000
     31 H5         1.0476   -0.2907   14.3057 H         1 RES1    0.0000
     32 H6         3.2941   -0.9953   13.9971 H         1 RES1    0.0000
     33 H7         7.1058    3.8403   14.5962 H         1 RES1    0.0000
     34 H8         8.4005    3.0300   15.3587 H         1 RES1    0.0000
     35 H9         7.4113    4.1750   16.1393 H         1 RES1    0.0000
     36 H10        6.9456    2.6248   17.8640 H         1 RES1    0.0000
     37 H11        7.8508    1.4181   17.2105 H         1 RES1    0.0000
     38 H12        6.2484    1.0746   17.7006 H         1 RES1    0.0000
     39 H13        6.4877   -2.3429   14.0697 H         1 RES1    0.0000
     40 H14        6.8337   -3.4880   12.0909 H         1 RES1    0.0000
     41 H15        6.4481   -2.3870    9.9850 H         1 RES1    0.0000
     42 H16        5.7311   -0.5637    8.8775 H         1 RES1    0.0000
     43 H17        4.8368    1.5942    8.7323 H         1 RES1    0.0000
     44 H18        4.4171    2.9331   10.8019 H         1 RES1    0.0000
     45 H19        4.8764    1.8849   12.8171 H         1 RES1    0.0000
     46 H20        6.7209    1.6471   13.9245 H         1 RES1    0.0000
     47 H21        7.5887    0.7575   14.9230 H         1 RES1    0.0000
     48 H22        6.6816   -1.2419   15.9215 H         1 RES1    0.0000
     49 H23        5.1758   -1.7704   15.6492 H         1 RES1    0.0000
     50 H24        5.4473   -0.5021   16.7203 H         1 RES1    0.0000
@<TRIPOS>BOND
     1    1    2 ar
     2    2    3 ar
     3    3    4 ar
     4    4   10 ar
     5    5    6 ar
     6    6    7 ar
     7    7    8 ar
     8    8    9 ar
     9    9    1 ar
    10   10    5 ar
    11   11    1 1
    12   12   11 1
    13   13   11 1
    14   14   15 ar
    15   15   16 ar
    16   16   17 ar
    17   17   23 ar
    18   18   19 ar
    19   19   20 ar
    20   20   21 ar
    21   21   22 ar
    22   22   14 ar
    23   23   18 ar
    24   24    8 1
    25   25   11 1
    26   26   24 1
    27   27    2 1
    28   28    3 1
    29   29    4 1
    30   30    5 1
    31   31    6 1
    32   32    7 1
    33   33   12 1
    34   34   12 1
    35   35   12 1
    36   36   13 1
    37   37   13 1
    38   38   13 1
    39   39   15 1
    40   40   16 1
    41   41   17 1
    42   42   18 1
    43   43   19 1
    44   44   20 1
    45   45   21 1
    46   46   25 1
    47   47   25 1
    48   48   26 1
    49   49   26 1
    50   50   26 1
    51    9   10 ar
    52   14   24 1
    53   22   23 ar
    54   24   25 1
@<TRIPOS>SUBSTRUCTURE
     1 RES1 1

@<TRIPOS>CRYSIN
  23.9870    8.8080   18.8720  90.0000 105.8500  90.0000  15 1

