# MOL2 file generated by ConQuest
# Please check atom types

@<TRIPOS>MOLECULE
TOCCOD
   100   116     2
SMALL
NO_CHARGES
****
Generated from CSD

@<TRIPOS>ATOM
      1 C1        -1.6991    0.6644    6.8869 C.ar      1 RES1    0.0000
      2 H1        -2.4985    0.5556    6.3850 H         1 RES1    0.0000
      3 C2        -1.6973    1.4065    8.0925 C.ar      1 RES1    0.0000
      4 H2        -2.5095    1.7993    8.3925 H         1 RES1    0.0000
      5 C3        -0.5665    1.5763    8.8403 C.ar      1 RES1    0.0000
      6 H3        -0.6050    2.0773    9.6464 H         1 RES1    0.0000
      7 C4         0.6593    1.0107    8.4266 C.ar      1 RES1    0.0000
      8 C5         1.9080    1.0839    9.0863 C.ar      1 RES1    0.0000
      9 H4         1.9831    1.5697    9.8995 H         1 RES1    0.0000
     10 C6         3.0088    0.4652    8.5631 C.ar      1 RES1    0.0000
     11 H5         3.8313    0.5195    9.0351 H         1 RES1    0.0000
     12 C7         2.9677   -0.2572    7.3446 C.ar      1 RES1    0.0000
     13 H6         3.7474   -0.6784    7.0020 H         1 RES1    0.0000
     14 C8         1.7751   -0.3282    6.6722 C.ar      1 RES1    0.0000
     15 C9         1.3970   -0.9878    5.3613 C.3       1 RES1    0.0000
     16 C10        1.9529   -0.3035    4.1173 C.ar      1 RES1    0.0000
     17 C11        3.2344   -0.1009    3.6922 C.ar      1 RES1    0.0000
     18 H7         3.9696   -0.3667    4.2311 H         1 RES1    0.0000
     19 C12        3.4492    0.5133    2.4354 C.ar      1 RES1    0.0000
     20 H8         4.3392    0.6612    2.1411 H         1 RES1    0.0000
     21 C13        2.4096    0.8997    1.6350 C.ar      1 RES1    0.0000
     22 H9         2.5888    1.2794    0.7820 H         1 RES1    0.0000
     23 C14        1.0708    0.7420    2.0629 C.ar      1 RES1    0.0000
     24 C15        0.8900    0.1352    3.3212 C.ar      1 RES1    0.0000
     25 C16       -0.1069    1.1288    1.3777 C.ar      1 RES1    0.0000
     26 H10       -0.0426    1.5276    0.5189 H         1 RES1    0.0000
     27 C17       -1.3325    0.9302    1.9435 C.ar      1 RES1    0.0000
     28 H11       -2.1070    1.2047    1.4658 H         1 RES1    0.0000
     29 C18       -1.4955    0.3302    3.2216 C.ar      1 RES1    0.0000
     30 H12       -2.3602    0.2057    3.5941 H         1 RES1    0.0000
     31 C19       -0.3763   -0.0663    3.9012 C.ar      1 RES1    0.0000
     32 C20       -0.2031   -0.7497    5.2504 C.3       1 RES1    0.0000
     33 C21       -0.5305    0.1113    6.4618 C.ar      1 RES1    0.0000
     34 C22        0.6407    0.2791    7.2224 C.ar      1 RES1    0.0000
     35 C23        1.5473   -2.5025    5.3230 C.ar      1 RES1    0.0000
     36 C24        2.6445   -3.2976    5.2860 C.ar      1 RES1    0.0000
     37 H13        3.5153   -2.9188    5.2917 H         1 RES1    0.0000
     38 C25        2.4686   -4.7059    5.2376 C.ar      1 RES1    0.0000
     39 H14        3.2374   -5.2633    5.2092 H         1 RES1    0.0000
     40 C26        1.2268   -5.2861    5.2305 C.ar      1 RES1    0.0000
     41 H15        1.1460   -6.2334    5.2021 H         1 RES1    0.0000
     42 C27        0.0668   -4.4798    5.2675 C.ar      1 RES1    0.0000
     43 C28       -1.2810   -4.9101    5.2533 C.ar      1 RES1    0.0000
     44 H16       -1.4759   -5.8380    5.1978 H         1 RES1    0.0000
     45 C29       -2.3014   -4.0116    5.3215 C.ar      1 RES1    0.0000
     46 H17       -3.1963   -4.3296    5.3429 H         1 RES1    0.0000
     47 C30       -2.0661   -2.6100    5.3585 C.ar      1 RES1    0.0000
     48 H18       -2.7911   -1.9999    5.4111 H         1 RES1    0.0000
     49 C31       -0.7798   -2.1584    5.3187 C.ar      1 RES1    0.0000
     50 C32        0.2739   -3.0918    5.3030 C.ar      1 RES1    0.0000
     51 C33        5.2863    3.7517    3.4576 C.ar      2 RES2    0.0000
     52 H19        6.0651    3.8629    2.9259 H         2 RES2    0.0000
     53 C34        5.3657    3.1361    4.7201 C.ar      2 RES2    0.0000
     54 H20        6.2114    2.8427    5.0372 H         2 RES2    0.0000
     55 C35        4.2591    2.9498    5.5035 C.ar      2 RES2    0.0000
     56 H21        4.3512    2.5397    6.3565 H         2 RES2    0.0000
     57 C36        2.9900    3.3567    5.0599 C.ar      2 RES2    0.0000
     58 C37        1.7610    3.2121    5.7395 C.ar      2 RES2    0.0000
     59 H22        1.7428    2.8223    6.6053 H         2 RES2    0.0000
     60 C38        0.5955    3.6326    5.1609 C.ar      2 RES2    0.0000
     61 H23       -0.2219    3.5031    5.6286 H         2 RES2    0.0000
     62 C39        0.5671    4.2511    3.8842 C.ar      2 RES2    0.0000
     63 H24       -0.2571    4.5269    3.5017 H         2 RES2    0.0000
     64 C40        1.7405    4.4456    3.2131 C.ar      2 RES2    0.0000
     65 C41        2.0734    5.1543    1.9179 C.3       2 RES2    0.0000
     66 C42        1.4782    4.5655    0.6483 C.ar      2 RES2    0.0000
     67 C43        0.2068    4.5818    0.1436 C.ar      2 RES2    0.0000
     68 H25       -0.4960    5.0148    0.6128 H         2 RES2    0.0000
     69 C44       -0.0413    3.9367   -1.1018 C.ar      2 RES2    0.0000
     70 H26       -0.9215    3.9500   -1.4587 H         2 RES2    0.0000
     71 C45        0.9469    3.2970   -1.8028 C.ar      2 RES2    0.0000
     72 H27        0.7386    2.8647   -2.6231 H         2 RES2    0.0000
     73 C46        2.2687    3.2778   -1.3165 C.ar      2 RES2    0.0000
     74 C47        2.4937    3.9488   -0.1009 C.ar      2 RES2    0.0000
     75 C48        3.3997    2.6862   -1.9165 C.ar      2 RES2    0.0000
     76 H28        3.3006    2.2139   -2.7340 H         2 RES2    0.0000
     77 C49        4.6373    2.7815   -1.3393 C.ar      2 RES2    0.0000
     78 H29        5.3769    2.3601   -1.7615 H         2 RES2    0.0000
     79 C50        4.8465    3.4924   -0.1294 C.ar      2 RES2    0.0000
     80 H30        5.7155    3.5590    0.2488 H         2 RES2    0.0000
     81 C51        3.7758    4.0778    0.4791 C.ar      2 RES2    0.0000
     82 C52        3.6648    4.9078    1.7359 C.3       2 RES2    0.0000
     83 C53        4.0686    4.1881    3.0070 C.ar      2 RES2    0.0000
     84 C54        2.9311    3.9716    3.8017 C.ar      2 RES2    0.0000
     85 C55        1.9398    6.6739    2.0245 C.ar      2 RES2    0.0000
     86 C56        0.8717    7.4796    2.2762 C.ar      2 RES2    0.0000
     87 H31        0.0055    7.1086    2.4013 H         2 RES2    0.0000
     88 C57        1.0739    8.8804    2.3501 C.ar      2 RES2    0.0000
     89 H32        0.3279    9.4443    2.5179 H         2 RES2    0.0000
     90 C58        2.3032    9.4463    2.1880 C.ar      2 RES2    0.0000
     91 H33        2.3981   10.3903    2.2463 H         2 RES2    0.0000
     92 C59        3.4449    8.6396    1.9321 C.ar      2 RES2    0.0000
     93 C60        4.7823    9.0675    1.7729 C.ar      2 RES2    0.0000
     94 H34        4.9965    9.9901    1.8383 H         2 RES2    0.0000
     95 C61        5.7692    8.1536    1.5227 C.ar      2 RES2    0.0000
     96 H35        6.6577    8.4626    1.3933 H         2 RES2    0.0000
     97 C62        5.5162    6.7624    1.4516 C.ar      2 RES2    0.0000
     98 H36        6.2201    6.1479    1.2796 H         2 RES2    0.0000
     99 C63        4.2396    6.3206    1.6364 C.ar      2 RES2    0.0000
    100 C64        3.2071    7.2553    1.8454 C.ar      2 RES2    0.0000
@<TRIPOS>BOND
     1    1    2 1
     2    3    1 ar
     3    4    3 1
     4    5    3 ar
     5    6    5 1
     6    7    5 ar
     7    8    7 ar
     8    9    8 1
     9   10    8 ar
    10   11   10 1
    11   12   10 ar
    12   13   12 1
    13   14   12 ar
    14   15   14 1
    15   16   15 1
    16   17   16 ar
    17   18   17 1
    18   19   17 ar
    19   20   19 1
    20   21   19 ar
    21   22   21 1
    22   23   21 ar
    23   24   16 ar
    24   25   23 ar
    25   26   25 1
    26   27   25 ar
    27   28   27 1
    28   29   27 ar
    29   30   29 1
    30   31   24 ar
    31   32   15 1
    32   33    1 ar
    33   34    7 ar
    34   35   15 1
    35   36   35 ar
    36   37   36 1
    37   38   36 ar
    38   39   38 1
    39   40   38 ar
    40   41   40 1
    41   42   40 ar
    42   43   42 ar
    43   44   43 1
    44   45   43 ar
    45   46   45 1
    46   47   45 ar
    47   48   47 1
    48   49   32 1
    49   50   35 ar
    50   51   52 1
    51   53   51 ar
    52   54   53 1
    53   55   53 ar
    54   56   55 1
    55   57   55 ar
    56   58   57 ar
    57   59   58 1
    58   60   58 ar
    59   61   60 1
    60   62   60 ar
    61   63   62 1
    62   64   62 ar
    63   65   64 1
    64   66   65 1
    65   67   66 ar
    66   68   67 1
    67   69   67 ar
    68   70   69 1
    69   71   69 ar
    70   72   71 1
    71   73   71 ar
    72   74   66 ar
    73   75   73 ar
    74   76   75 1
    75   77   75 ar
    76   78   77 1
    77   79   77 ar
    78   80   79 1
    79   81   74 ar
    80   82   65 1
    81   83   51 ar
    82   84   57 ar
    83   85   65 1
    84   86   85 ar
    85   87   86 1
    86   88   86 ar
    87   89   88 1
    88   90   88 ar
    89   91   90 1
    90   92   90 ar
    91   93   92 ar
    92   94   93 1
    93   95   93 ar
    94   96   95 1
    95   97   95 ar
    96   98   97 1
    97   99   82 1
    98  100   85 ar
    99   14   34 ar
   100   23   24 ar
   101   29   31 ar
   102   31   32 1
   103   32   33 1
   104   33   34 ar
   105   42   50 ar
   106   47   49 ar
   107   49   50 ar
   108   64   84 ar
   109   73   74 ar
   110   79   81 ar
   111   81   82 1
   112   82   83 1
   113   83   84 ar
   114   92  100 ar
   115   97   99 ar
   116   99  100 ar
@<TRIPOS>SUBSTRUCTURE
     1 RES1 1
     2 RES2 51

@<TRIPOS>CRYSIN
   8.6940   16.1050   16.1970 117.8800  93.6400  94.9400   2 1

