# MOL2 file generated by ConQuest
# Please check atom types

@<TRIPOS>MOLECULE
TOCCUJ
    56    63     1
SMALL
NO_CHARGES
****
Generated from CSD

@<TRIPOS>ATOM
      1 C1         2.0193    1.9592   12.1999 C.ar      1 RES1    0.0000
      2 H1         1.6336    1.2767   11.6628 H         1 RES1    0.0000
      3 C2         2.8369    1.6325   13.3064 C.ar      1 RES1    0.0000
      4 H2         2.9800    0.7162   13.5130 H         1 RES1    0.0000
      5 C3         3.4284    2.5821   14.0930 C.ar      1 RES1    0.0000
      6 H3         3.9886    2.3195   14.8140 H         1 RES1    0.0000
      7 C4         3.2049    3.9615   13.8317 C.ar      1 RES1    0.0000
      8 C5         3.7419    5.0583   14.5532 C.ar      1 RES1    0.0000
      9 H4         4.3244    4.9026   15.2876 H         1 RES1    0.0000
     10 C6         3.4226    6.3346   14.1940 C.ar      1 RES1    0.0000
     11 H5         3.7866    7.0534   14.6998 H         1 RES1    0.0000
     12 C7         2.5704    6.6371   13.0983 C.ar      1 RES1    0.0000
     13 H6         2.3654    7.5370   12.8732 H         1 RES1    0.0000
     14 C8         2.0522    5.5970   12.3757 C.ar      1 RES1    0.0000
     15 C9         1.1881    5.5449   11.1320 C.3       1 RES1    0.0000
     16 C10       -0.2290    6.0653   11.1667 C.ar      1 RES1    0.0000
     17 C11       -0.7544    7.3098   11.4030 C.ar      1 RES1    0.0000
     18 H7        -0.1886    8.0477   11.5999 H         1 RES1    0.0000
     19 C12       -2.1603    7.4697   11.3462 C.ar      1 RES1    0.0000
     20 H8        -2.5280    8.3308   11.5065 H         1 RES1    0.0000
     21 C13       -3.0081    6.4370   11.0708 C.ar      1 RES1    0.0000
     22 H9        -3.9456    6.5880   11.0529 H         1 RES1    0.0000
     23 C14       -2.4975    5.1397   10.8109 C.ar      1 RES1    0.0000
     24 C15       -1.1034    4.9924   10.8753 C.ar      1 RES1    0.0000
     25 C16       -3.2474    3.9743   10.5104 C.ar      1 RES1    0.0000
     26 H10       -4.1951    4.0195   10.4667 H         1 RES1    0.0000
     27 C17       -2.6126    2.7884   10.2842 C.ar      1 RES1    0.0000
     28 H11       -3.1357    2.0218   10.0810 H         1 RES1    0.0000
     29 C18       -1.1987    2.6564   10.3405 C.ar      1 RES1    0.0000
     30 H12       -0.7824    1.8200   10.1679 H         1 RES1    0.0000
     31 C19       -0.4500    3.7620   10.6494 C.ar      1 RES1    0.0000
     32 C20        1.0377    3.9750   10.8047 C.3       1 RES1    0.0000
     33 C21        1.7944    3.2836   11.9190 C.ar      1 RES1    0.0000
     34 C22        2.3699    4.2708   12.7483 C.ar      1 RES1    0.0000
     35 C23        1.9390    5.6422    9.7986 C.ar      1 RES1    0.0000
     36 C24        2.5998    6.5271    8.9963 C.ar      1 RES1    0.0000
     37 C25        3.2181    5.9621    7.8537 C.ar      1 RES1    0.0000
     38 C26        3.1436    4.5916    7.5820 C.ar      1 RES1    0.0000
     39 C27        2.4270    3.7014    8.4332 C.ar      1 RES1    0.0000
     40 C28        1.8405    4.2849    9.5236 C.ar      1 RES1    0.0000
     41 C29        2.6747    7.9805    9.3197 C.3       1 RES1    0.0000
     42 H13        2.2800    8.4990    8.5874 H         1 RES1    0.0000
     43 H14        3.6126    8.2415    9.4351 H         1 RES1    0.0000
     44 H15        2.1823    8.1569   10.1475 H         1 RES1    0.0000
     45 C30        3.9616    6.8853    6.9260 C.3       1 RES1    0.0000
     46 H16        4.6630    7.3533    7.4233 H         1 RES1    0.0000
     47 H17        3.3378    7.5381    6.5456 H         1 RES1    0.0000
     48 H18        4.3678    6.3629    6.2022 H         1 RES1    0.0000
     49 C31        3.8480    4.0127    6.3907 C.3       1 RES1    0.0000
     50 H19        3.6829    3.0475    6.3518 H         1 RES1    0.0000
     51 H20        4.8113    4.1770    6.4687 H         1 RES1    0.0000
     52 H21        3.5092    4.4352    5.5739 H         1 RES1    0.0000
     53 C32        2.3273    2.2320    8.1941 C.3       1 RES1    0.0000
     54 H22        3.2197    1.8311    8.2497 H         1 RES1    0.0000
     55 H23        1.9499    2.0707    7.3050 H         1 RES1    0.0000
     56 H24        1.7460    1.8298    8.8738 H         1 RES1    0.0000
@<TRIPOS>BOND
     1    1    2 1
     2    3    1 ar
     3    4    3 1
     4    5    3 ar
     5    6    5 1
     6    7    5 ar
     7    8    7 ar
     8    9    8 1
     9   10    8 ar
    10   11   10 1
    11   12   10 ar
    12   13   12 1
    13   14   12 ar
    14   15   14 1
    15   16   15 1
    16   17   16 ar
    17   18   17 1
    18   19   17 ar
    19   20   19 1
    20   21   19 ar
    21   22   21 1
    22   23   21 ar
    23   24   16 ar
    24   25   23 ar
    25   26   25 1
    26   27   25 ar
    27   28   27 1
    28   29   27 ar
    29   30   29 1
    30   31   24 ar
    31   32   15 1
    32   33    1 ar
    33   34    7 ar
    34   35   15 1
    35   36   35 ar
    36   37   36 ar
    37   38   37 ar
    38   39   38 ar
    39   40   32 1
    40   41   36 1
    41   42   41 1
    42   43   41 1
    43   44   41 1
    44   45   37 1
    45   46   45 1
    46   47   45 1
    47   48   45 1
    48   49   38 1
    49   50   49 1
    50   51   49 1
    51   52   49 1
    52   53   39 1
    53   54   53 1
    54   55   53 1
    55   56   53 1
    56   14   34 ar
    57   23   24 ar
    58   29   31 ar
    59   31   32 1
    60   32   33 1
    61   33   34 ar
    62   35   40 ar
    63   39   40 ar
@<TRIPOS>SUBSTRUCTURE
     1 RES1 1

@<TRIPOS>CRYSIN
   8.6540    8.9690   14.7870  74.5100  85.8100  77.3600   2 1

