# MOL2 file generated by ConQuest
# Please check atom types

@<TRIPOS>MOLECULE
TOHBPA02
    52    57     1
SMALL
NO_CHARGES
****
Generated from CSD

@<TRIPOS>ATOM
      1 C1         2.5211    5.9182   13.4398 C.3       1 RES1    0.0000
      2 C2         2.9155    7.0934   12.5461 C.3       1 RES1    0.0000
      3 C3         1.7178    7.5672   11.6614 C.3       1 RES1    0.0000
      4 C4         0.6643    6.4794   11.5047 C.2       1 RES1    0.0000
      5 C5         0.0635    4.2997    9.4241 C.ar      1 RES1    0.0000
      6 C6        -0.2289    3.3138    8.5349 C.ar      1 RES1    0.0000
      7 C7         0.2514    2.0102    8.7558 C.ar      1 RES1    0.0000
      8 C8         1.0164    1.7509    9.8109 C.ar      1 RES1    0.0000
      9 C9         2.2207    2.5025   11.8411 C.ar      1 RES1    0.0000
     10 C10        2.5886    3.4858   12.6960 C.ar      1 RES1    0.0000
     11 C11        2.0844    4.7960   12.5564 C.ar      1 RES1    0.0000
     12 C12        1.1844    5.0779   11.5390 C.ar      1 RES1    0.0000
     13 C13        0.8457    4.0734   10.5811 C.ar      1 RES1    0.0000
     14 C14        1.3684    2.7500   10.7516 C.ar      1 RES1    0.0000
     15 H1         1.8925    6.2067   13.9960 H         1 RES1    0.0000
     16 H2         3.4938    5.5847   14.0990 H         1 RES1    0.0000
     17 H3         3.3350    7.8081   13.0919 H         1 RES1    0.0000
     18 H4         3.8379    6.8287   11.8560 H         1 RES1    0.0000
     19 H5         1.3234    8.4301   12.1078 H         1 RES1    0.0000
     20 H6         2.1704    7.7948   10.6887 H         1 RES1    0.0000
     21 H7        -0.2647    5.0025    9.2925 H         1 RES1    0.0000
     22 H8        -0.8337    3.3879    7.8506 H         1 RES1    0.0000
     23 H9        -0.0529    1.2308    8.1138 H         1 RES1    0.0000
     24 H10        1.2837    0.7940    9.9792 H         1 RES1    0.0000
     25 H11        2.3689    1.5351   11.9933 H         1 RES1    0.0000
     26 H12        3.0835    3.2820   13.3094 H         1 RES1    0.0000
     27 C4B       -0.6643    6.7546   11.5047 C.2       1 RES1    0.0000
     28 C3B       -1.7178    5.6668   11.6614 C.3       1 RES1    0.0000
     29 C2B       -2.9155    6.1406   12.5461 C.3       1 RES1    0.0000
     30 C1B       -2.5211    7.3158   13.4398 C.3       1 RES1    0.0000
     31 C11B      -2.0844    8.4380   12.5564 C.ar      1 RES1    0.0000
     32 C10B      -2.5886    9.7482   12.6960 C.ar      1 RES1    0.0000
     33 C9B       -2.2207   10.7315   11.8411 C.ar      1 RES1    0.0000
     34 C14B      -1.3684   10.4840   10.7516 C.ar      1 RES1    0.0000
     35 C8B       -1.0164   11.4831    9.8109 C.ar      1 RES1    0.0000
     36 C7B       -0.2514   11.2238    8.7558 C.ar      1 RES1    0.0000
     37 C6B        0.2289    9.9202    8.5349 C.ar      1 RES1    0.0000
     38 C5B       -0.0635    8.9343    9.4241 C.ar      1 RES1    0.0000
     39 C13B      -0.8457    9.1606   10.5811 C.ar      1 RES1    0.0000
     40 C12B      -1.1844    8.1561   11.5390 C.ar      1 RES1    0.0000
     41 H7B        0.2647    8.2315    9.2925 H         1 RES1    0.0000
     42 H8B        0.8337    9.8461    7.8506 H         1 RES1    0.0000
     43 H9B        0.0529   12.0032    8.1138 H         1 RES1    0.0000
     44 H10B      -1.2837   12.4400    9.9792 H         1 RES1    0.0000
     45 H11B      -2.3689   11.6989   11.9933 H         1 RES1    0.0000
     46 H12B      -3.0835    9.9520   13.3094 H         1 RES1    0.0000
     47 H1B       -1.8925    7.0273   13.9960 H         1 RES1    0.0000
     48 H2B       -3.4938    7.6493   14.0990 H         1 RES1    0.0000
     49 H3B       -3.3350    5.4259   13.0919 H         1 RES1    0.0000
     50 H4B       -3.8379    6.4053   11.8560 H         1 RES1    0.0000
     51 H5B       -1.3234    4.8039   12.1078 H         1 RES1    0.0000
     52 H6B       -2.1704    5.4392   10.6887 H         1 RES1    0.0000
@<TRIPOS>BOND
     1    1    2 1
     2    2    3 1
     3    3    4 1
     4    4   12 1
     5    5    6 ar
     6    6    7 ar
     7    7    8 ar
     8    8   14 ar
     9    9   10 ar
    10   10   11 ar
    11   11    1 1
    12   12   11 ar
    13   13    5 ar
    14   14    9 ar
    15   15    1 1
    16   16    1 1
    17   17    2 1
    18   18    2 1
    19   19    3 1
    20   20    3 1
    21   21    5 1
    22   22    6 1
    23   23    7 1
    24   24    8 1
    25   25    9 1
    26   26   10 1
    27   27    4 2
    28   28   27 1
    29   29   28 1
    30   30   29 1
    31   31   30 1
    32   32   31 ar
    33   33   32 ar
    34   34   33 ar
    35   35   34 ar
    36   36   35 ar
    37   37   36 ar
    38   38   37 ar
    39   39   34 ar
    40   40   27 1
    41   41   38 1
    42   42   37 1
    43   43   36 1
    44   44   35 1
    45   45   33 1
    46   46   32 1
    47   47   30 1
    48   48   30 1
    49   49   29 1
    50   50   29 1
    51   51   28 1
    52   52   28 1
    53   12   13 ar
    54   13   14 ar
    55   31   40 ar
    56   38   39 ar
    57   39   40 ar
@<TRIPOS>SUBSTRUCTURE
     1 RES1 1

@<TRIPOS>CRYSIN
  13.2340   13.2340   11.4440  90.0000  90.0000  90.0000  82 1

