# MOL2 file generated by ConQuest
# Please check atom types

@<TRIPOS>MOLECULE
TONLEN
    54    63     1
SMALL
NO_CHARGES
****
Generated from CSD

@<TRIPOS>ATOM
      1 C1         0.5999   -3.9264   14.0158 C.ar      1 RES1    0.0000
      2 C2         0.3396   -5.2818   13.9389 C.ar      1 RES1    0.0000
      3 C3         0.7837   -5.9964   12.8014 C.ar      1 RES1    0.0000
      4 C4         1.4589   -5.4166   11.7908 C.ar      1 RES1    0.0000
      5 C5         1.7393   -4.0256   11.8116 C.ar      1 RES1    0.0000
      6 C6         2.4039   -3.2779   10.8384 C.ar      1 RES1    0.0000
      7 C7         2.5620   -1.9225   10.9964 C.ar      1 RES1    0.0000
      8 C8         2.0635   -1.2156   12.1131 C.ar      1 RES1    0.0000
      9 C9         1.3291   -1.9149   13.0759 C.ar      1 RES1    0.0000
     10 C10        1.2424   -3.3262   12.9199 C.ar      1 RES1    0.0000
     11 C11        0.2855   -2.8380   14.9786 C.ar      1 RES1    0.0000
     12 C12        0.6444   -1.5945   14.3298 C.ar      1 RES1    0.0000
     13 C13        0.2997   -0.3891   14.9433 C.ar      1 RES1    0.0000
     14 C14        0.4327    1.0096   14.5066 C.ar      1 RES1    0.0000
     15 C15        0.7490    1.6784   13.3296 C.ar      1 RES1    0.0000
     16 C16        0.7395    3.0847   13.3109 C.ar      1 RES1    0.0000
     17 C17        0.4019    3.8425   14.3964 C.ar      1 RES1    0.0000
     18 C18        0.0000    3.2016   15.5963 C.ar      1 RES1    0.0000
     19 C19        0.0000    1.7928   15.5963 C.ar      1 RES1    0.0000
     20 H1        -0.1333   -5.7294   14.6438 H         1 RES1    0.0000
     21 H2         0.5959   -6.9373   12.7494 H         1 RES1    0.0000
     22 H3         1.7531   -5.9481   11.0484 H         1 RES1    0.0000
     23 H4         2.7509   -3.7128   10.0544 H         1 RES1    0.0000
     24 H5         3.0325   -1.4317   10.3185 H         1 RES1    0.0000
     25 H6         2.2260   -0.2746   12.2108 H         1 RES1    0.0000
     26 H7         0.9722    1.1850   12.5373 H         1 RES1    0.0000
     27 H8         0.9813    3.5322   12.4978 H         1 RES1    0.0000
     28 H9         0.4370    4.8012   14.3486 H         1 RES1    0.0000
     29 C11C      -0.2855   -2.8380   16.2139 C.ar      1 RES1    0.0000
     30 C1C       -0.5999   -3.9264   17.1767 C.ar      1 RES1    0.0000
     31 C2C       -0.3396   -5.2818   17.2536 C.ar      1 RES1    0.0000
     32 C3C       -0.7837   -5.9964   18.3911 C.ar      1 RES1    0.0000
     33 C4C       -1.4589   -5.4166   19.4017 C.ar      1 RES1    0.0000
     34 C5C       -1.7393   -4.0256   19.3809 C.ar      1 RES1    0.0000
     35 C6C       -2.4039   -3.2779   20.3541 C.ar      1 RES1    0.0000
     36 C7C       -2.5620   -1.9225   20.1961 C.ar      1 RES1    0.0000
     37 C8C       -2.0635   -1.2156   19.0794 C.ar      1 RES1    0.0000
     38 C9C       -1.3291   -1.9149   18.1166 C.ar      1 RES1    0.0000
     39 C10C      -1.2424   -3.3262   18.2726 C.ar      1 RES1    0.0000
     40 C12C      -0.6444   -1.5945   16.8627 C.ar      1 RES1    0.0000
     41 C13C      -0.2997   -0.3891   16.2492 C.ar      1 RES1    0.0000
     42 C17C      -0.4019    3.8425   16.7961 C.ar      1 RES1    0.0000
     43 C16C      -0.7395    3.0847   17.8816 C.ar      1 RES1    0.0000
     44 C15C      -0.7490    1.6784   17.8629 C.ar      1 RES1    0.0000
     45 C14C      -0.4327    1.0096   16.6859 C.ar      1 RES1    0.0000
     46 H7C       -0.9722    1.1850   18.6552 H         1 RES1    0.0000
     47 H8C       -0.9813    3.5322   18.6947 H         1 RES1    0.0000
     48 H9C       -0.4370    4.8012   16.8439 H         1 RES1    0.0000
     49 H6C       -2.2260   -0.2746   18.9817 H         1 RES1    0.0000
     50 H5C       -3.0325   -1.4317   20.8740 H         1 RES1    0.0000
     51 H4C       -2.7509   -3.7128   21.1381 H         1 RES1    0.0000
     52 H3C       -1.7531   -5.9481   20.1441 H         1 RES1    0.0000
     53 H2C       -0.5959   -6.9373   18.4431 H         1 RES1    0.0000
     54 H1C        0.1333   -5.7294   16.5487 H         1 RES1    0.0000
@<TRIPOS>BOND
     1    1    2 ar
     2    2    3 ar
     3    3    4 ar
     4    4    5 ar
     5    5    6 ar
     6    6    7 ar
     7    7    8 ar
     8    8    9 ar
     9    9   10 ar
    10   10    1 ar
    11   11    1 1
    12   12    9 1
    13   13   12 ar
    14   14   13 1
    15   15   14 ar
    16   16   15 ar
    17   17   16 ar
    18   18   17 ar
    19   19   14 ar
    20   20    2 1
    21   21    3 1
    22   22    4 1
    23   23    6 1
    24   24    7 1
    25   25    8 1
    26   26   15 1
    27   27   16 1
    28   28   17 1
    29   29   11 ar
    30   30   29 1
    31   31   30 ar
    32   32   31 ar
    33   33   32 ar
    34   34   33 ar
    35   35   34 ar
    36   36   35 ar
    37   37   36 ar
    38   38   37 ar
    39   39   30 ar
    40   40   29 ar
    41   41   13 ar
    42   42   18 ar
    43   43   42 ar
    44   44   43 ar
    45   45   19 ar
    46   46   44 1
    47   47   43 1
    48   48   42 1
    49   49   37 1
    50   50   36 1
    51   51   35 1
    52   52   33 1
    53   53   32 1
    54   54   31 1
    55    5   10 ar
    56   11   12 ar
    57   18   19 ar
    58   34   39 ar
    59   38   39 ar
    60   38   40 1
    61   40   41 ar
    62   41   45 1
    63   44   45 ar
@<TRIPOS>SUBSTRUCTURE
     1 RES1 1

@<TRIPOS>CRYSIN
   3.9440   25.4300   20.7950  90.0000  90.0000  90.0000  20 1

