# MOL2 file generated by ConQuest
# Please check atom types

@<TRIPOS>MOLECULE
TOVFIV
   144   156     2
SMALL
NO_CHARGES
****
Generated from CSD

@<TRIPOS>ATOM
      1 C1         6.2577   12.6634    6.5813 C.ar      1 RES1    0.0000
      2 C2         5.4033   11.8720    5.7967 C.ar      1 RES1    0.0000
      3 C3         5.7248   13.7581    7.3355 C.ar      1 RES1    0.0000
      4 C4         5.8815   10.7089    5.0114 C.2       1 RES1    0.0000
      5 H1         5.5676    9.8768    5.2826 H         1 RES1    0.0000
      6 C5         7.6509   12.3898    6.7090 C.ar      1 RES1    0.0000
      7 H2         8.0170   11.6713    6.2466 H         1 RES1    0.0000
      8 C6         6.7051   10.7090    3.9649 C.2       1 RES1    0.0000
      9 C7         7.3079   11.9472    3.4075 C.ar      1 RES1    0.0000
     10 C8         6.6130   14.5254    8.1276 C.ar      1 RES1    0.0000
     11 H3         6.2807   15.2480    8.6109 H         1 RES1    0.0000
     12 C9         8.4575   13.1548    7.4884 C.ar      1 RES1    0.0000
     13 H4         9.3631   12.9548    7.5486 H         1 RES1    0.0000
     14 C10        7.9379   14.2380    8.2035 C.ar      1 RES1    0.0000
     15 H5         8.4994   14.7596    8.7288 H         1 RES1    0.0000
     16 C11        7.0182    9.4576    3.2143 C.ar      1 RES1    0.0000
     17 C12        8.6859   12.0567    3.3113 C.ar      1 RES1    0.0000
     18 H6         9.2265   11.3745    3.6387 H         1 RES1    0.0000
     19 C13        7.2495    9.5143    1.8495 C.ar      1 RES1    0.0000
     20 H7         7.2436   10.3391    1.4199 H         1 RES1    0.0000
     21 C14        7.1355   14.0729    2.3092 C.ar      1 RES1    0.0000
     22 H8         6.6055   14.7512    1.9582 H         1 RES1    0.0000
     23 C15        9.2667   13.1690    2.7323 C.ar      1 RES1    0.0000
     24 H9        10.1930   13.2350    2.6891 H         1 RES1    0.0000
     25 C16        7.0501    8.2139    3.8234 C.ar      1 RES1    0.0000
     26 H10        6.9115    8.1408    4.7403 H         1 RES1    0.0000
     27 C17        8.5019   14.1642    2.2280 C.ar      1 RES1    0.0000
     28 H11        8.8989   14.9050    1.8298 H         1 RES1    0.0000
     29 C18        7.4876    8.3707    1.1173 C.ar      1 RES1    0.0000
     30 H12        7.6413    8.4298    0.2030 H         1 RES1    0.0000
     31 C19        7.2876    7.0817    3.0690 C.ar      1 RES1    0.0000
     32 H13        7.3031    6.2506    3.4868 H         1 RES1    0.0000
     33 C20        7.4982    7.1576    1.7316 C.ar      1 RES1    0.0000
     34 H14        7.6484    6.3844    1.2378 H         1 RES1    0.0000
     35 C21        6.5444   12.9781    2.9105 C.ar      1 RES1    0.0000
     36 H15        5.6170   12.9372    2.9799 H         1 RES1    0.0000
     37 C22       11.9830    7.6793    2.7559 C.ar      2 RES2    0.0000
     38 C23       11.6399    6.3682    3.3493 C.2       2 RES2    0.0000
     39 C24       10.8451    5.4169    2.5228 C.ar      2 RES2    0.0000
     40 C25       12.7747    6.8530    5.5446 C.ar      2 RES2    0.0000
     41 C26       10.8615    5.4884    1.1422 C.ar      2 RES2    0.0000
     42 H16       11.3262    6.1765    0.7243 H         2 RES2    0.0000
     43 C27       10.7338    8.2192    5.8589 C.ar      2 RES2    0.0000
     44 H17       10.2841    7.7144    5.2197 H         2 RES2    0.0000
     45 C28       11.0020    8.5080    2.2333 C.ar      2 RES2    0.0000
     46 H18       10.1079    8.2595    2.3014 H         2 RES2    0.0000
     47 C29       10.1978    4.5514    0.3746 C.ar      2 RES2    0.0000
     48 H19       10.2377    4.6080   -0.5528 H         2 RES2    0.0000
     49 C30       12.0852    5.9963    4.5543 C.2       2 RES2    0.0000
     50 H20       11.9476    5.1089    4.7953 H         2 RES2    0.0000
     51 C31       12.0867    7.9077    6.1628 C.ar      2 RES2    0.0000
     52 C32       13.3102    8.0789    2.6406 C.ar      2 RES2    0.0000
     53 H21       13.9878    7.5440    2.9864 H         2 RES2    0.0000
     54 C33        9.4899    3.5497    0.9523 C.ar      2 RES2    0.0000
     55 H22        9.0465    2.9212    0.4296 H         2 RES2    0.0000
     56 C34       10.0908    4.4015    3.0978 C.ar      2 RES2    0.0000
     57 H23       10.0271    4.3423    4.0238 H         2 RES2    0.0000
     58 C35       13.6271    9.2720    2.0119 C.ar      2 RES2    0.0000
     59 H24       14.5177    9.5318    1.9425 H         2 RES2    0.0000
     60 C36       10.0842    9.2292    6.4745 C.ar      2 RES2    0.0000
     61 H25        9.1999    9.4152    6.2519 H         2 RES2    0.0000
     62 C37       11.3344    9.6930    1.6150 C.ar      2 RES2    0.0000
     63 H26       10.6643   10.2417    1.2784 H         2 RES2    0.0000
     64 C38        9.4362    3.4796    2.3092 C.ar      2 RES2    0.0000
     65 H27        8.9496    2.7972    2.7127 H         2 RES2    0.0000
     66 C39       12.6532   10.0696    1.4919 C.ar      2 RES2    0.0000
     67 H28       12.8755   10.8616    1.0570 H         2 RES2    0.0000
     68 C40       12.7396    8.6882    7.1701 C.ar      2 RES2    0.0000
     69 C41       12.0052    9.7341    7.7935 C.ar      2 RES2    0.0000
     70 H29       12.4148   10.2451    8.4537 H         2 RES2    0.0000
     71 C42       10.7344   10.0013    7.4517 C.ar      2 RES2    0.0000
     72 H30       10.2821   10.7020    7.8630 H         2 RES2    0.0000
     73 C1A        3.4886   13.2559    6.5171 C.ar      1 RES1    0.0000
     74 C2A        4.3430   14.0473    7.3017 C.ar      1 RES1    0.0000
     75 C3A        4.0214   12.1613    5.7629 C.ar      1 RES1    0.0000
     76 C4A        3.8647   15.2105    8.0870 C.2       1 RES1    0.0000
     77 H1A        4.1786   16.0425    7.8158 H         1 RES1    0.0000
     78 C5A        2.0954   13.5295    6.3894 C.ar      1 RES1    0.0000
     79 H2A        1.7292   14.2480    6.8518 H         1 RES1    0.0000
     80 C6A        3.0411   15.2104    9.1335 C.2       1 RES1    0.0000
     81 C7A        2.4383   13.9721    9.6909 C.ar      1 RES1    0.0000
     82 C8A        3.1333   11.3939    4.9708 C.ar      1 RES1    0.0000
     83 H3A        3.4655   10.6713    4.4875 H         1 RES1    0.0000
     84 C9A        1.2888   12.7645    5.6100 C.ar      1 RES1    0.0000
     85 H4A        0.3832   12.9645    5.5498 H         1 RES1    0.0000
     86 C10A       1.8083   11.6813    4.8949 C.ar      1 RES1    0.0000
     87 H5A        1.2468   11.1597    4.3696 H         1 RES1    0.0000
     88 C11A       2.7281   16.4617    9.8841 C.ar      1 RES1    0.0000
     89 C12A       1.0603   13.8626    9.7871 C.ar      1 RES1    0.0000
     90 H6A        0.5197   14.5448    9.4597 H         1 RES1    0.0000
     91 C13A       2.4967   16.4050   11.2489 C.ar      1 RES1    0.0000
     92 H7A        2.5026   15.5802   11.6785 H         1 RES1    0.0000
     93 C14A       2.6108   11.8464   10.7892 C.ar      1 RES1    0.0000
     94 H8A        3.1407   11.1681   11.1402 H         1 RES1    0.0000
     95 C15A       0.4795   12.7503   10.3661 C.ar      1 RES1    0.0000
     96 H9A       -0.4468   12.6843   10.4093 H         1 RES1    0.0000
     97 C16A       2.6962   17.7055    9.2750 C.ar      1 RES1    0.0000
     98 H10A       2.8347   17.7785    8.3581 H         1 RES1    0.0000
     99 C17A       1.2443   11.7551   10.8704 C.ar      1 RES1    0.0000
    100 H11A       0.8474   11.0143   11.2686 H         1 RES1    0.0000
    101 C18A       2.2586   17.5486   11.9811 C.ar      1 RES1    0.0000
    102 H12A       2.1050   17.4895   12.8954 H         1 RES1    0.0000
    103 C19A       2.4586   18.8376   10.0294 C.ar      1 RES1    0.0000
    104 H13A       2.4431   19.6687    9.6116 H         1 RES1    0.0000
    105 C20A       2.2480   18.7617   11.3668 C.ar      1 RES1    0.0000
    106 H14A       2.0978   19.5349   11.8606 H         1 RES1    0.0000
    107 C21A       3.2019   12.9412   10.1879 C.ar      1 RES1    0.0000
    108 H15A       4.1292   12.9821   10.1185 H         1 RES1    0.0000
    109 C22A      14.8514    7.5645   10.3425 C.ar      2 RES2    0.0000
    110 C23A      15.1946    8.8756    9.7491 C.2       2 RES2    0.0000
    111 C24A      15.9893    9.8268   10.5756 C.ar      2 RES2    0.0000
    112 C25A      14.0597    8.3907    7.5538 C.ar      2 RES2    0.0000
    113 C26A      15.9729    9.7553   11.9562 C.ar      2 RES2    0.0000
    114 H16A      15.5082    9.0673   12.3741 H         2 RES2    0.0000
    115 C27A      16.1007    7.0246    7.2395 C.ar      2 RES2    0.0000
    116 H17A      16.5504    7.5294    7.8787 H         2 RES2    0.0000
    117 C28A      15.8325    6.7358   10.8651 C.ar      2 RES2    0.0000
    118 H18A      16.7265    6.9843   10.7970 H         2 RES2    0.0000
    119 C29A      16.6366   10.6924   12.7238 C.ar      2 RES2    0.0000
    120 H19A      16.5967   10.6357   13.6512 H         2 RES2    0.0000
    121 C30A      14.7493    9.2475    8.5441 C.2       2 RES2    0.0000
    122 H20A      14.8868   10.1349    8.3031 H         2 RES2    0.0000
    123 C31A      14.7478    7.3360    6.9356 C.ar      2 RES2    0.0000
    124 C32A      13.5242    7.1649   10.4578 C.ar      2 RES2    0.0000
    125 H21A      12.8467    7.6997   10.1120 H         2 RES2    0.0000
    126 C33A      17.3445   11.6940   12.1461 C.ar      2 RES2    0.0000
    127 H22A      17.7879   12.3226   12.6688 H         2 RES2    0.0000
    128 C34A      16.7437   10.8422   10.0006 C.ar      2 RES2    0.0000
    129 H23A      16.8073   10.9014    9.0746 H         2 RES2    0.0000
    130 C35A      13.2073    5.9718   11.0865 C.ar      2 RES2    0.0000
    131 H24A      12.3167    5.7120   11.1559 H         2 RES2    0.0000
    132 C36A      16.7503    6.0146    6.6239 C.ar      2 RES2    0.0000
    133 H25A      17.6346    5.8285    6.8465 H         2 RES2    0.0000
    134 C37A      15.5000    5.5508   11.4834 C.ar      2 RES2    0.0000
    135 H26A      16.1702    5.0020   11.8200 H         2 RES2    0.0000
    136 C38A      17.3982   11.7642   10.7892 C.ar      2 RES2    0.0000
    137 H27A      17.8848   12.4465   10.3857 H         2 RES2    0.0000
    138 C39A      14.1813    5.1742   11.6065 C.ar      2 RES2    0.0000
    139 H28A      13.9590    4.3821   12.0414 H         2 RES2    0.0000
    140 C40A      14.0949    6.5556    5.9283 C.ar      2 RES2    0.0000
    141 C41A      14.8292    5.5097    5.3049 C.ar      2 RES2    0.0000
    142 H29A      14.4196    4.9987    4.6447 H         2 RES2    0.0000
    143 C42A      16.1000    5.2425    5.6467 C.ar      2 RES2    0.0000
    144 H30A      16.5524    4.5418    5.2354 H         2 RES2    0.0000
@<TRIPOS>BOND
     1    1    2 ar
     2    2    4 1
     3    3    1 ar
     4    4    5 1
     5    6    1 ar
     6    7    6 1
     7    8    4 2
     8    9    8 1
     9   10    3 ar
    10   11   10 1
    11   12    6 ar
    12   13   12 1
    13   14   10 ar
    14   15   14 1
    15   16    8 1
    16   17    9 ar
    17   18   17 1
    18   19   16 ar
    19   20   19 1
    20   21   22 1
    21   23   17 ar
    22   24   23 1
    23   25   16 ar
    24   26   25 1
    25   27   21 ar
    26   28   27 1
    27   29   19 ar
    28   30   29 1
    29   31   25 ar
    30   32   31 1
    31   33   29 ar
    32   34   33 1
    33   35    9 ar
    34   36   35 1
    35   37   38 1
    36   38   39 1
    37   39   41 ar
    38   40   49 1
    39   41   42 1
    40   43   44 1
    41   45   37 ar
    42   46   45 1
    43   47   41 ar
    44   48   47 1
    45   49   38 2
    46   50   49 1
    47   51   40 ar
    48   52   37 ar
    49   53   52 1
    50   54   47 ar
    51   55   54 1
    52   56   39 ar
    53   57   56 1
    54   58   52 ar
    55   59   58 1
    56   60   43 ar
    57   61   60 1
    58   62   45 ar
    59   63   62 1
    60   64   54 ar
    61   65   64 1
    62   66   58 ar
    63   67   66 1
    64   68   51 ar
    65   69   68 ar
    66   70   69 1
    67   71   60 ar
    68   72   71 1
    69   73   74 ar
    70   74    3 ar
    71   75    2 ar
    72   76   74 1
    73   77   76 1
    74   78   73 ar
    75   79   78 1
    76   80   76 2
    77   81   80 1
    78   82   75 ar
    79   83   82 1
    80   84   78 ar
    81   85   84 1
    82   86   82 ar
    83   87   86 1
    84   88   80 1
    85   89   81 ar
    86   90   89 1
    87   91   88 ar
    88   92   91 1
    89   93   94 1
    90   95   89 ar
    91   96   95 1
    92   97   88 ar
    93   98   97 1
    94   99   93 ar
    95  100   99 1
    96  101   91 ar
    97  102  101 1
    98  103   97 ar
    99  104  103 1
   100  105  101 ar
   101  106  105 1
   102  107   81 ar
   103  108  107 1
   104  109  110 1
   105  110  111 1
   106  111  113 ar
   107  112   68 ar
   108  113  114 1
   109  115  116 1
   110  117  109 ar
   111  118  117 1
   112  119  113 ar
   113  120  119 1
   114  121  110 2
   115  122  121 1
   116  123  112 ar
   117  124  109 ar
   118  125  124 1
   119  126  119 ar
   120  127  126 1
   121  128  111 ar
   122  129  128 1
   123  130  124 ar
   124  131  130 1
   125  132  115 ar
   126  133  132 1
   127  134  117 ar
   128  135  134 1
   129  136  126 ar
   130  137  136 1
   131  138  130 ar
   132  139  138 1
   133  140   40 ar
   134  141  140 ar
   135  142  141 1
   136  143  132 ar
   137  144  143 1
   138   12   14 ar
   139   21   35 ar
   140   23   27 ar
   141   31   33 ar
   142   43   51 ar
   143   56   64 ar
   144   62   66 ar
   145   69   71 ar
   146   73   75 ar
   147   84   86 ar
   148   93  107 ar
   149   95   99 ar
   150  103  105 ar
   151  112  121 1
   152  115  123 ar
   153  123  140 ar
   154  128  136 ar
   155  134  138 ar
   156  141  143 ar
@<TRIPOS>SUBSTRUCTURE
     1 RES1 1
     2 RES2 37

@<TRIPOS>CRYSIN
  10.3810   11.2900   14.0780  68.7600  80.1900  71.0100   2 1

