# MOL2 file generated by ConQuest
# Please check atom types

@<TRIPOS>MOLECULE
TPHNAP
    58    63     1
SMALL
NO_CHARGES
****
Generated from CSD

@<TRIPOS>ATOM
      1 C1        -1.3001   10.8160   -0.2229 C.ar      1 RES1    0.0000
      2 C2        -1.5601    9.3731    0.0957 C.ar      1 RES1    0.0000
      3 C3        -0.5101    8.4679   -0.0511 C.ar      1 RES1    0.0000
      4 C4        -0.7387    7.1004    0.0906 C.ar      1 RES1    0.0000
      5 C5        -1.9914    6.6429    0.3960 C.ar      1 RES1    0.0000
      6 C6        -3.0418    7.5238    0.5465 C.ar      1 RES1    0.0000
      7 C7        -2.8160    8.8913    0.3909 C.ar      1 RES1    0.0000
      8 C8         0.1397   14.1229   -2.5310 C.ar      1 RES1    0.0000
      9 C9        -0.6178   15.1862   -3.0579 C.ar      1 RES1    0.0000
     10 C10       -0.0545   15.9843   -4.0523 C.ar      1 RES1    0.0000
     11 C11       -2.0505   11.3635   -1.2400 C.ar      1 RES1    0.0000
     12 C12        1.2056   15.7629   -4.5243 C.ar      1 RES1    0.0000
     13 C13        1.9639   14.6947   -4.0165 C.ar      1 RES1    0.0000
     14 C14        1.3897   13.8868   -3.0206 C.ar      1 RES1    0.0000
     15 C15       -1.6188   12.5339   -1.8859 C.ar      1 RES1    0.0000
     16 C16       -0.4597   13.1690   -1.5322 C.ar      1 RES1    0.0000
     17 C17       -0.2179   11.5630    0.3354 C.ar      1 RES1    0.0000
     18 H1         0.4560    8.7428   -0.1951 H         1 RES1    0.0000
     19 H2         0.1534    6.5115    0.1191 H         1 RES1    0.0000
     20 H3        -2.2378    5.6477    0.6788 H         1 RES1    0.0000
     21 H4        -3.9656    7.1271    0.6181 H         1 RES1    0.0000
     22 H5        -3.5521    9.4801    0.4830 H         1 RES1    0.0000
     23 H6        -1.5920   15.2933   -2.8759 H         1 RES1    0.0000
     24 H7        -0.6423   16.5683   -4.5090 H         1 RES1    0.0000
     25 H8        -2.8567   10.8866   -1.6075 H         1 RES1    0.0000
     26 H9         1.8313   16.3664   -5.2024 H         1 RES1    0.0000
     27 H10        2.9361   14.4538   -4.4513 H         1 RES1    0.0000
     28 H11        1.9395   13.1934   -2.6786 H         1 RES1    0.0000
     29 H12       -2.2351   12.8065   -2.6311 H         1 RES1    0.0000
     30 C17B       0.2179   12.7700   -0.3354 C.ar      1 RES1    0.0000
     31 C16B       0.4597   11.1640    1.5322 C.ar      1 RES1    0.0000
     32 C1B        1.3001   13.5170    0.2229 C.ar      1 RES1    0.0000
     33 C8B       -0.1397   10.2101    2.5310 C.ar      1 RES1    0.0000
     34 C15B       1.6188   11.7991    1.8859 C.ar      1 RES1    0.0000
     35 C2B        1.5601   14.9599   -0.0957 C.ar      1 RES1    0.0000
     36 C11B       2.0505   12.9695    1.2400 C.ar      1 RES1    0.0000
     37 C9B        0.6178    9.1468    3.0579 C.ar      1 RES1    0.0000
     38 C14B      -1.3897   10.4462    3.0206 C.ar      1 RES1    0.0000
     39 H12B       2.2351   11.5265    2.6311 H         1 RES1    0.0000
     40 C3B        0.5101   15.8651    0.0511 C.ar      1 RES1    0.0000
     41 C7B        2.8160   15.4417   -0.3909 C.ar      1 RES1    0.0000
     42 H8B        2.8567   13.4464    1.6075 H         1 RES1    0.0000
     43 C10B       0.0545    8.3487    4.0523 C.ar      1 RES1    0.0000
     44 H6B        1.5920    9.0397    2.8759 H         1 RES1    0.0000
     45 C13B      -1.9639    9.6383    4.0165 C.ar      1 RES1    0.0000
     46 H11B      -1.9395   11.1396    2.6786 H         1 RES1    0.0000
     47 C4B        0.7387   17.2326   -0.0906 C.ar      1 RES1    0.0000
     48 H1B       -0.4560   15.5902    0.1951 H         1 RES1    0.0000
     49 C6B        3.0418   16.8092   -0.5465 C.ar      1 RES1    0.0000
     50 H5B        3.5521   14.8529   -0.4830 H         1 RES1    0.0000
     51 C12B      -1.2056    8.5701    4.5243 C.ar      1 RES1    0.0000
     52 H7B        0.6423    7.7647    4.5090 H         1 RES1    0.0000
     53 H10B      -2.9361    9.8792    4.4513 H         1 RES1    0.0000
     54 C5B        1.9914   17.6901   -0.3960 C.ar      1 RES1    0.0000
     55 H2B       -0.1534   17.8215   -0.1191 H         1 RES1    0.0000
     56 H4B        3.9656   17.2059   -0.6181 H         1 RES1    0.0000
     57 H9B       -1.8313    7.9666    5.2024 H         1 RES1    0.0000
     58 H3B        2.2378   18.6853   -0.6788 H         1 RES1    0.0000
@<TRIPOS>BOND
     1    1    2 1
     2    2    3 ar
     3    3    4 ar
     4    4    5 ar
     5    5    6 ar
     6    6    7 ar
     7    7    2 ar
     8    8    9 ar
     9    9   10 ar
    10   10   12 ar
    11   11    1 ar
    12   12   13 ar
    13   13   14 ar
    14   14    8 ar
    15   15   11 ar
    16   16    8 1
    17   17    1 ar
    18   18    3 1
    19   19    4 1
    20   20    5 1
    21   21    6 1
    22   22    7 1
    23   23    9 1
    24   24   10 1
    25   25   11 1
    26   26   12 1
    27   27   13 1
    28   28   14 1
    29   29   15 1
    30   30   16 ar
    31   31   17 ar
    32   32   30 ar
    33   33   31 1
    34   34   31 ar
    35   35   32 1
    36   36   32 ar
    37   37   33 ar
    38   38   33 ar
    39   39   34 1
    40   40   35 ar
    41   41   35 ar
    42   42   36 1
    43   43   37 ar
    44   44   37 1
    45   45   38 ar
    46   46   38 1
    47   47   40 ar
    48   48   40 1
    49   49   41 ar
    50   50   41 1
    51   51   43 ar
    52   52   43 1
    53   53   45 1
    54   54   47 ar
    55   55   47 1
    56   56   49 1
    57   57   51 1
    58   58   54 1
    59   15   16 ar
    60   17   30 ar
    61   34   36 ar
    62   45   51 ar
    63   49   54 ar
@<TRIPOS>SUBSTRUCTURE
     1 RES1 1

@<TRIPOS>CRYSIN
   6.4550   24.3330    8.0170  90.0000 114.3000  90.0000  14 1

