# MOL2 file generated by ConQuest
# Please check atom types

@<TRIPOS>MOLECULE
TRIPHE
    30    33     1
SMALL
NO_CHARGES
****
Generated from CSD

@<TRIPOS>ATOM
      1 C1        -7.3686   -5.0257    3.0334 C.ar      1 RES1    0.0000
      2 C2        -5.8501   -8.0873   -0.7895 C.ar      1 RES1    0.0000
      3 C3        -5.7395   -9.1028   -1.7852 C.ar      1 RES1    0.0000
      4 C4        -6.6930  -10.0915   -1.9020 C.ar      1 RES1    0.0000
      5 C5        -7.7861  -10.0949   -1.0189 C.ar      1 RES1    0.0000
      6 C6        -7.9060   -9.1363   -0.0452 C.ar      1 RES1    0.0000
      7 C7        -6.9564   -8.0923    0.0899 C.ar      1 RES1    0.0000
      8 C8        -7.1052   -7.0517    1.0609 C.ar      1 RES1    0.0000
      9 C9        -8.1746   -7.0383    1.9714 C.ar      1 RES1    0.0000
     10 C10       -8.3076   -6.0747    2.9424 C.ar      1 RES1    0.0000
     11 C11       -6.3229   -4.9989    2.1203 C.ar      1 RES1    0.0000
     12 C12       -6.1543   -5.9994    1.1441 C.ar      1 RES1    0.0000
     13 C13       -5.0296   -5.9893    0.2372 C.ar      1 RES1    0.0000
     14 C14       -4.0603   -4.9320    0.2509 C.ar      1 RES1    0.0000
     15 C15       -3.0251   -4.8935   -0.6249 C.ar      1 RES1    0.0000
     16 C16       -2.8750   -5.8957   -1.5706 C.ar      1 RES1    0.0000
     17 C17       -3.7772   -6.9614   -1.6122 C.ar      1 RES1    0.0000
     18 C18       -4.8610   -7.0082   -0.7243 C.ar      1 RES1    0.0000
     19 H1        -7.5728   -4.1825    3.8924 H         1 RES1    0.0000
     20 H2        -4.8729   -9.0677   -2.4564 H         1 RES1    0.0000
     21 H3        -6.6245  -10.6737   -2.8036 H         1 RES1    0.0000
     22 H4        -8.4288  -10.9080   -1.0520 H         1 RES1    0.0000
     23 H5        -8.7581   -9.1179    0.6838 H         1 RES1    0.0000
     24 H6        -8.8502   -7.9300    1.8147 H         1 RES1    0.0000
     25 H7        -8.9688   -6.1065    3.7504 H         1 RES1    0.0000
     26 H8        -5.5577   -4.1825    2.1145 H         1 RES1    0.0000
     27 H9        -4.0564   -4.1658    1.0362 H         1 RES1    0.0000
     28 H10       -2.2916   -4.1323   -0.6154 H         1 RES1    0.0000
     29 H11       -2.1072   -5.7719   -2.3828 H         1 RES1    0.0000
     30 H12       -3.6876   -7.7795   -2.4196 H         1 RES1    0.0000
@<TRIPOS>BOND
     1    1   10 ar
     2    2    3 ar
     3    3    4 ar
     4    4    5 ar
     5    5    6 ar
     6    6    7 ar
     7    7    2 ar
     8    8    7 ar
     9    9    8 ar
    10   10    9 ar
    11   11    1 ar
    12   12    8 ar
    13   13   12 ar
    14   14   13 ar
    15   15   14 ar
    16   16   15 ar
    17   17   16 ar
    18   18    2 ar
    19   19    1 1
    20   20    3 1
    21   21    4 1
    22   22    5 1
    23   23    6 1
    24   24    9 1
    25   25   10 1
    26   26   11 1
    27   27   14 1
    28   28   15 1
    29   29   16 1
    30   30   17 1
    31   11   12 ar
    32   13   18 ar
    33   17   18 ar
@<TRIPOS>SUBSTRUCTURE
     1 RES1 1

@<TRIPOS>CRYSIN
  13.1700   16.7300    5.2600  90.0000  90.0000  90.0000  19 1

