# MOL2 file generated by ConQuest
# Please check atom types

@<TRIPOS>MOLECULE
TRIPHE15
    30    33     1
SMALL
NO_CHARGES
****
Generated from CSD

@<TRIPOS>ATOM
      1 C1         3.4410    7.2380    8.6098 C.ar      1 RES1    0.0000
      2 C2         2.5573    6.1394    8.5947 C.ar      1 RES1    0.0000
      3 C3         1.5409    5.9993    9.6472 C.ar      1 RES1    0.0000
      4 C4         1.4719    6.9449   10.6835 C.ar      1 RES1    0.0000
      5 C5         2.4098    8.0734   10.7182 C.ar      1 RES1    0.0000
      6 C6         3.3688    8.2187    9.6938 C.ar      1 RES1    0.0000
      7 C7         4.4131    7.3301    7.5919 C.ar      1 RES1    0.0000
      8 H1         5.0077    8.0721    7.5853 H         1 RES1    0.0000
      9 C8         4.5216    6.3728    6.6076 C.ar      1 RES1    0.0000
     10 H2         5.1847    6.4572    5.9330 H         1 RES1    0.0000
     11 C9         3.6627    5.2871    6.6026 C.ar      1 RES1    0.0000
     12 H3         3.7491    4.6126    5.9396 H         1 RES1    0.0000
     13 C10        2.6784    5.1873    7.5703 C.ar      1 RES1    0.0000
     14 H4         2.0707    4.4583    7.5403 H         1 RES1    0.0000
     15 C11        0.6193    4.9369    9.6373 C.ar      1 RES1    0.0000
     16 H5         0.6672    4.2909    8.9428 H         1 RES1    0.0000
     17 C12       -0.3549    4.8098   10.6117 C.ar      1 RES1    0.0000
     18 H6        -0.9785    4.0938   10.5768 H         1 RES1    0.0000
     19 C13       -0.4108    5.7398   11.6361 C.ar      1 RES1    0.0000
     20 H7        -1.0701    5.6555   12.3157 H         1 RES1    0.0000
     21 C14        0.4845    6.7840   11.6777 C.ar      1 RES1    0.0000
     22 H8         0.4366    7.4106   12.3923 H         1 RES1    0.0000
     23 C15        2.3930    9.0112   11.7677 C.ar      1 RES1    0.0000
     24 H9         1.7431    8.9295   12.4556 H         1 RES1    0.0000
     25 C16        3.3046   10.0515   11.8160 C.ar      1 RES1    0.0000
     26 H10        3.2872   10.6651   12.5405 H         1 RES1    0.0000
     27 C17        4.2362   10.1968   10.8133 C.ar      1 RES1    0.0000
     28 H11        4.8529   10.9193   10.8416 H         1 RES1    0.0000
     29 C18        4.2778    9.3018    9.7666 C.ar      1 RES1    0.0000
     30 H12        4.9277    9.4120    9.0827 H         1 RES1    0.0000
@<TRIPOS>BOND
     1    1    2 ar
     2    2    3 ar
     3    3    4 ar
     4    4    5 ar
     5    5    6 ar
     6    6    1 ar
     7    7    1 ar
     8    8    7 1
     9    9    7 ar
    10   10    9 1
    11   11    9 ar
    12   12   11 1
    13   13    2 ar
    14   14   13 1
    15   15    3 ar
    16   16   15 1
    17   17   15 ar
    18   18   17 1
    19   19   17 ar
    20   20   19 1
    21   21    4 ar
    22   22   21 1
    23   23    5 ar
    24   24   23 1
    25   25   23 ar
    26   26   25 1
    27   27   25 ar
    28   28   27 1
    29   29    6 ar
    30   30   29 1
    31   11   13 ar
    32   19   21 ar
    33   27   29 ar
@<TRIPOS>SUBSTRUCTURE
     1 RES1 1

@<TRIPOS>CRYSIN
   5.2663   12.9714   16.6563  90.0000  90.0000  90.0000  19 1

