# MOL2 file generated by ConQuest
# Please check atom types

@<TRIPOS>MOLECULE
TUJWUQ
    39    43     1
SMALL
NO_CHARGES
****
Generated from CSD

@<TRIPOS>ATOM
      1 C1         6.3673   13.3440    0.6978 C.ar      1 RES1    0.0000
      2 C2         7.2390   12.3116    0.8854 C.ar      1 RES1    0.0000
      3 C3         6.9057   11.0192    0.4179 C.ar      1 RES1    0.0000
      4 C4         5.7270   10.7969   -0.1944 C.ar      1 RES1    0.0000
      5 C5         3.5351   11.6127   -0.9807 C.ar      1 RES1    0.0000
      6 C6         2.6136   12.5999   -1.0565 C.ar      1 RES1    0.0000
      7 C7         1.8112   14.9284   -0.5744 C.3       1 RES1    0.0000
      8 C8         1.5157   15.3825    0.7707 C.2       1 RES1    0.0000
      9 C9         2.4188   15.8308    1.6406 C.2       1 RES1    0.0000
     10 C10        4.1870   17.5697    1.6513 C.ar      1 RES1    0.0000
     11 C11        5.2859   18.1613    1.1430 C.ar      1 RES1    0.0000
     12 C12        7.0671   18.2159   -0.5744 C.ar      1 RES1    0.0000
     13 C13        7.7161   17.6394   -1.6163 C.ar      1 RES1    0.0000
     14 C14        7.3327   16.3772   -2.0770 C.ar      1 RES1    0.0000
     15 C15        6.3156   15.7008   -1.4569 C.ar      1 RES1    0.0000
     16 C16        5.1151   13.1537    0.0554 C.ar      1 RES1    0.0000
     17 C17        4.7907   11.8406   -0.3868 C.ar      1 RES1    0.0000
     18 C18        5.6202   16.2623   -0.3538 C.ar      1 RES1    0.0000
     19 C19        6.0065   17.5528    0.0846 C.ar      1 RES1    0.0000
     20 C20        4.1579   14.2125   -0.1127 C.ar      1 RES1    0.0000
     21 C21        4.4988   15.6104    0.2566 C.ar      1 RES1    0.0000
     22 C22        2.8898   13.9036   -0.5929 C.ar      1 RES1    0.0000
     23 C23        3.7365   16.3150    1.1838 C.ar      1 RES1    0.0000
     24 H1         6.5574   14.2615    1.0302 H         1 RES1    0.0000
     25 H2         8.1592   12.5094    1.3024 H         1 RES1    0.0000
     26 H3         7.5037   10.3240    0.4762 H         1 RES1    0.0000
     27 H4         5.5452    9.8531   -0.5151 H         1 RES1    0.0000
     28 H5         3.3398   10.6632   -1.3218 H         1 RES1    0.0000
     29 H6         1.6586   12.4717   -1.4676 H         1 RES1    0.0000
     30 H7         0.9167   14.5064   -1.0011 H         1 RES1    0.0000
     31 H8         2.1201   15.7687   -1.1663 H         1 RES1    0.0000
     32 H9         0.6259   15.1093    1.1663 H         1 RES1    0.0000
     33 H10        2.1528   16.1078    2.4978 H         1 RES1    0.0000
     34 H11        3.6085   17.9540    2.2840 H         1 RES1    0.0000
     35 H12        5.6076   19.1975    1.5259 H         1 RES1    0.0000
     36 H13        7.3010   19.1033   -0.2430 H         1 RES1    0.0000
     37 H14        8.4321   17.9917   -2.1382 H         1 RES1    0.0000
     38 H15        7.7956   15.9571   -2.8866 H         1 RES1    0.0000
     39 H16        6.0005   14.8455   -1.8175 H         1 RES1    0.0000
@<TRIPOS>BOND
     1    1    2 ar
     2    2    3 ar
     3    3    4 ar
     4    4   17 ar
     5    5    6 ar
     6    6   22 ar
     7    7    8 1
     8    8    9 2
     9    9   23 1
    10   10   11 ar
    11   11   19 ar
    12   12   13 ar
    13   13   14 ar
    14   14   15 ar
    15   15   18 ar
    16   16    1 ar
    17   17    5 ar
    18   18   19 ar
    19   19   12 ar
    20   20   16 ar
    21   21   18 ar
    22   22    7 1
    23   23   10 ar
    24   24    1 1
    25   25    2 1
    26   26    3 1
    27   27    4 1
    28   28    5 1
    29   29    6 1
    30   30    7 1
    31   31    7 1
    32   32    8 1
    33   33    9 1
    34   34   10 1
    35   35   11 1
    36   36   12 1
    37   37   13 1
    38   38   14 1
    39   39   15 1
    40   16   17 ar
    41   20   21 1
    42   20   22 ar
    43   21   23 ar
@<TRIPOS>SUBSTRUCTURE
     1 RES1 1

@<TRIPOS>CRYSIN
   8.5545   18.8395    9.7556  90.0000  94.9600  90.0000 231 1

