# MOL2 file generated by ConQuest
# Please check atom types

@<TRIPOS>MOLECULE
TUKGIP
    90    94     2
SMALL
NO_CHARGES
****
Generated from CSD

@<TRIPOS>ATOM
      1 C1         5.3697    6.0967    0.6744 C.ar      1 RES1    0.0000
      2 C2         5.9505    6.6381    1.7858 C.ar      1 RES1    0.0000
      3 C3         5.8865    5.9809    3.0088 C.ar      1 RES1    0.0000
      4 C4         5.3674    4.7061    3.1567 C.ar      1 RES1    0.0000
      5 C5         5.0706    3.9990    1.9441 C.ar      1 RES1    0.0000
      6 C6         4.9251    2.5448    1.8066 C.ar      1 RES1    0.0000
      7 C7         5.7056    1.6038    2.5277 C.ar      1 RES1    0.0000
      8 C8         5.3913    0.2658    2.3967 C.ar      1 RES1    0.0000
      9 C9         4.3920   -0.1859    1.5602 C.ar      1 RES1    0.0000
     10 C10        3.7460    0.6662    0.7159 C.ar      1 RES1    0.0000
     11 C11        4.0728    2.0450    0.7768 C.ar      1 RES1    0.0000
     12 C12        3.6750    2.9380   -0.2646 C.ar      1 RES1    0.0000
     13 C13        4.1655    4.1881   -0.3320 C.ar      1 RES1    0.0000
     14 C14        4.8965    4.7687    0.7548 C.ar      1 RES1    0.0000
     15 C15        5.2460    6.9223   -0.5862 C.3       1 RES1    0.0000
     16 C16        4.9165    4.3404    4.6014 C.3       1 RES1    0.0000
     17 C17        4.1467    3.0331    4.7583 C.3       1 RES1    0.0000
     18 C18        6.0820    4.3844    5.6078 C.3       1 RES1    0.0000
     19 C19        3.9022    5.4284    5.0216 C.3       1 RES1    0.0000
     20 C20        6.9553    1.9747    3.2786 C.3       1 RES1    0.0000
     21 C21        2.7549    0.1335   -0.2905 C.3       1 RES1    0.0000
     22 C22       11.2320    3.3076    2.9193 C.ar      2 RES2    0.0000
     23 C23       10.3778    2.8993    3.8998 C.ar      2 RES2    0.0000
     24 C24       10.1388    3.6922    5.0125 C.ar      2 RES2    0.0000
     25 C25       10.6318    4.9785    5.1422 C.ar      2 RES2    0.0000
     26 C26       11.2326    5.5434    3.9763 C.ar      2 RES2    0.0000
     27 C27       11.4505    6.9712    3.7416 C.ar      2 RES2    0.0000
     28 C28       10.5461    7.9830    4.1514 C.ar      2 RES2    0.0000
     29 C29       10.9359    9.3000    4.0217 C.ar      2 RES2    0.0000
     30 C30       12.1504    9.6581    3.4549 C.ar      2 RES2    0.0000
     31 C31       12.9582    8.7186    2.8545 C.ar      2 RES2    0.0000
     32 C32       12.5630    7.3583    2.9258 C.ar      2 RES2    0.0000
     33 C33       13.1711    6.3662    2.1010 C.ar      2 RES2    0.0000
     34 C34       12.6664    5.1206    2.0348 C.ar      2 RES2    0.0000
     35 C35       11.6800    4.6503    2.9543 C.ar      2 RES2    0.0000
     36 C36       11.6766    2.3397    1.8507 C.3       2 RES2    0.0000
     37 C37       10.7864    5.4850    6.6077 C.3       2 RES2    0.0000
     38 C38       11.5518    6.7985    6.7854 C.3       2 RES2    0.0000
     39 C39       11.6542    4.4152    7.3210 C.3       2 RES2    0.0000
     40 C40        9.4416    5.5628    7.3534 C.3       2 RES2    0.0000
     41 C41        9.1317    7.6927    4.5742 C.3       2 RES2    0.0000
     42 C42       14.2007    9.1417    2.1269 C.3       2 RES2    0.0000
     43 H1         6.3935    7.4538    1.7236 H         1 RES1    0.0000
     44 H2         6.2065    6.4190    3.7636 H         1 RES1    0.0000
     45 H3         5.8733   -0.3566    2.8921 H         1 RES1    0.0000
     46 H4         4.1566   -1.0856    1.5718 H         1 RES1    0.0000
     47 H5         3.0680    2.6498   -0.9065 H         1 RES1    0.0000
     48 H6         4.0272    4.6880   -1.1037 H         1 RES1    0.0000
     49 H7         4.3208    7.1273   -0.7457 H         1 RES1    0.0000
     50 H8         5.5964    6.4260   -1.3293 H         1 RES1    0.0000
     51 H9         5.7408    7.7390   -0.4837 H         1 RES1    0.0000
     52 H10        3.7480    2.9980    5.6311 H         1 RES1    0.0000
     53 H11        4.7478    2.2926    4.6507 H         1 RES1    0.0000
     54 H12        3.4582    2.9844    4.0904 H         1 RES1    0.0000
     55 H13        6.5054    5.2448    5.5676 H         1 RES1    0.0000
     56 H14        6.7199    3.7028    5.3873 H         1 RES1    0.0000
     57 H15        5.7454    4.2345    6.4936 H         1 RES1    0.0000
     58 H16        4.3202    6.2918    4.9710 H         1 RES1    0.0000
     59 H17        3.6119    5.2658    5.9216 H         1 RES1    0.0000
     60 H18        3.1441    5.4047    4.4328 H         1 RES1    0.0000
     61 H19        6.8384    1.7801    4.2110 H         1 RES1    0.0000
     62 H20        7.1292    2.9122    3.1670 H         1 RES1    0.0000
     63 H21        7.6956    1.4687    2.9349 H         1 RES1    0.0000
     64 H22        3.1014    0.2573   -1.1776 H         1 RES1    0.0000
     65 H23        1.9247    0.6070   -0.2023 H         1 RES1    0.0000
     66 H24        2.6086   -0.8013   -0.1310 H         1 RES1    0.0000
     67 H25        9.9495    2.0780    3.8220 H         2 RES2    0.0000
     68 H26        9.6234    3.3420    5.7038 H         2 RES2    0.0000
     69 H27       10.3664    9.9692    4.3226 H         2 RES2    0.0000
     70 H28       12.4247   10.5471    3.4822 H         2 RES2    0.0000
     71 H29       13.9263    6.5837    1.6030 H         2 RES2    0.0000
     72 H30       12.9687    4.5474    1.3669 H         2 RES2    0.0000
     73 H31       12.5726    2.0469    2.0361 H         2 RES2    0.0000
     74 H32       11.6527    2.7737    0.9947 H         2 RES2    0.0000
     75 H33       11.0886    1.5810    1.8416 H         2 RES2    0.0000
     76 H34       11.7738    6.9163    7.7114 H         2 RES2    0.0000
     77 H35       11.0052    7.5298    6.4910 H         2 RES2    0.0000
     78 H36       12.3581    6.7711    6.2640 H         2 RES2    0.0000
     79 H37       11.1923    3.5742    7.3158 H         2 RES2    0.0000
     80 H38       11.8155    4.6867    8.2275 H         2 RES2    0.0000
     81 H39       12.4907    4.3233    6.8593 H         2 RES2    0.0000
     82 H40        8.9624    4.7382    7.2354 H         2 RES2    0.0000
     83 H41        8.9211    6.2872    6.9994 H         2 RES2    0.0000
     84 H42        9.6004    5.7084    8.2885 H         2 RES2    0.0000
     85 H43        8.9848    6.7433    4.5716 H         2 RES2    0.0000
     86 H44        8.5221    8.1115    3.9620 H         2 RES2    0.0000
     87 H45        8.9850    8.0362    5.4574 H         2 RES2    0.0000
     88 H46       14.0851    8.9993    1.1854 H         2 RES2    0.0000
     89 H47       14.9470    8.6249    2.4408 H         2 RES2    0.0000
     90 H48       14.3661   10.0738    2.2929 H         2 RES2    0.0000
@<TRIPOS>BOND
     1    1    2 ar
     2    2    3 ar
     3    3    4 ar
     4    4    5 ar
     5    5    6 ar
     6    6    7 ar
     7    7    8 ar
     8    8    9 ar
     9    9   10 ar
    10   10   11 ar
    11   11    6 ar
    12   12   11 ar
    13   13   12 ar
    14   14    1 ar
    15   15    1 1
    16   16    4 1
    17   17   16 1
    18   18   16 1
    19   19   16 1
    20   20    7 1
    21   21   10 1
    22   22   23 ar
    23   23   24 ar
    24   24   25 ar
    25   25   26 ar
    26   26   27 ar
    27   27   28 ar
    28   28   29 ar
    29   29   30 ar
    30   30   31 ar
    31   31   32 ar
    32   32   27 ar
    33   33   32 ar
    34   34   33 ar
    35   35   22 ar
    36   36   22 1
    37   37   25 1
    38   38   37 1
    39   39   37 1
    40   40   37 1
    41   41   28 1
    42   42   31 1
    43   43    2 1
    44   44    3 1
    45   45    8 1
    46   46    9 1
    47   47   12 1
    48   48   13 1
    49   49   15 1
    50   50   15 1
    51   51   15 1
    52   52   17 1
    53   53   17 1
    54   54   17 1
    55   55   18 1
    56   56   18 1
    57   57   18 1
    58   58   19 1
    59   59   19 1
    60   60   19 1
    61   61   20 1
    62   62   20 1
    63   63   20 1
    64   64   21 1
    65   65   21 1
    66   66   21 1
    67   67   23 1
    68   68   24 1
    69   69   29 1
    70   70   30 1
    71   71   33 1
    72   72   34 1
    73   73   36 1
    74   74   36 1
    75   75   36 1
    76   76   38 1
    77   77   38 1
    78   78   38 1
    79   79   39 1
    80   80   39 1
    81   81   39 1
    82   82   40 1
    83   83   40 1
    84   84   40 1
    85   85   41 1
    86   86   41 1
    87   87   41 1
    88   88   42 1
    89   89   42 1
    90   90   42 1
    91    5   14 ar
    92   13   14 ar
    93   26   35 ar
    94   34   35 ar
@<TRIPOS>SUBSTRUCTURE
     1 RES1 1
     2 RES2 22

@<TRIPOS>CRYSIN
  11.2450   11.4220   13.8730  69.3600  83.2800  77.6700   2 1

