# MOL2 file generated by ConQuest
# Please check atom types

@<TRIPOS>MOLECULE
TULYAA
    80    87     1
SMALL
NO_CHARGES
****
Generated from CSD

@<TRIPOS>ATOM
      1 C1        13.8004    5.5224    1.4864 C.3       1 RES1    0.0000
      2 C2        12.6874    6.2022    2.3328 C.3       1 RES1    0.0000
      3 C3        11.3198    6.2761    1.6666 C.3       1 RES1    0.0000
      4 C4        10.1810    5.3974    2.1452 C.3       1 RES1    0.0000
      5 C5         9.2313    4.8085    1.1064 C.3       1 RES1    0.0000
      6 C6         9.3636    3.3000    0.8352 C.3       1 RES1    0.0000
      7 C7        10.8245    2.9556    0.5978 C.ar      1 RES1    0.0000
      8 C8        11.6068    2.5494    1.7088 C.ar      1 RES1    0.0000
      9 C9        11.1038    1.6783    2.7373 C.ar      1 RES1    0.0000
     10 C10       11.7776    1.5832    3.9122 C.ar      1 RES1    0.0000
     11 C11       13.0042    2.2440    4.1242 C.ar      1 RES1    0.0000
     12 C12       13.5828    2.9820    3.1455 C.ar      1 RES1    0.0000
     13 C13       12.8856    3.2034    1.9078 C.ar      1 RES1    0.0000
     14 C14       13.2897    4.1894    0.9881 C.ar      1 RES1    0.0000
     15 C15       12.7694    4.1258   -0.3341 C.ar      1 RES1    0.0000
     16 C16       13.3969    4.8059   -1.4461 C.ar      1 RES1    0.0000
     17 C17       12.7164    4.9488   -2.6106 C.ar      1 RES1    0.0000
     18 C18       11.4528    4.3701   -2.7889 C.ar      1 RES1    0.0000
     19 C19       10.8569    3.6172   -1.8280 C.ar      1 RES1    0.0000
     20 C20       11.4841    3.4959   -0.5396 C.ar      1 RES1    0.0000
     21 C21        9.9294    0.7973    2.5252 C.ar      1 RES1    0.0000
     22 C22        8.9715    0.6289    3.5115 C.ar      1 RES1    0.0000
     23 C23        7.8886   -0.2122    3.3238 C.ar      1 RES1    0.0000
     24 C24        7.7507   -0.9209    2.1592 C.ar      1 RES1    0.0000
     25 C25        8.7029   -0.7889    1.1645 C.ar      1 RES1    0.0000
     26 C26        9.7718    0.0714    1.3494 C.ar      1 RES1    0.0000
     27 C27       14.9862    3.4290    3.3341 C.ar      1 RES1    0.0000
     28 C28       15.3417    4.2813    4.3635 C.ar      1 RES1    0.0000
     29 C29       16.6545    4.7013    4.5484 C.ar      1 RES1    0.0000
     30 C30       17.6363    4.2378    3.7085 C.ar      1 RES1    0.0000
     31 C31       17.3102    3.3596    2.7082 C.ar      1 RES1    0.0000
     32 C32       15.9948    2.9635    2.4980 C.ar      1 RES1    0.0000
     33 C33       14.8109    5.2570   -1.3794 C.ar      1 RES1    0.0000
     34 C34       15.2031    6.5004   -1.8449 C.ar      1 RES1    0.0000
     35 C35       16.5322    6.9009   -1.7989 C.ar      1 RES1    0.0000
     36 C36       17.4944    6.0530   -1.3034 C.ar      1 RES1    0.0000
     37 C37       17.1308    4.8172   -0.8502 C.ar      1 RES1    0.0000
     38 C38       15.7987    4.4154   -0.8765 C.ar      1 RES1    0.0000
     39 C39        9.6601    2.8227   -2.1911 C.ar      1 RES1    0.0000
     40 C40        8.5516    3.4120   -2.7739 C.ar      1 RES1    0.0000
     41 C41        7.4600    2.6364   -3.1577 C.ar      1 RES1    0.0000
     42 C42        7.4629    1.2884   -2.9663 C.ar      1 RES1    0.0000
     43 C43        8.5634    0.6814   -2.4013 C.ar      1 RES1    0.0000
     44 C44        9.6485    1.4484   -2.0288 C.ar      1 RES1    0.0000
     45 H1        14.5993    5.5068    2.0269 H         1 RES1    0.0000
     46 H2        13.9449    6.1797    0.7507 H         1 RES1    0.0000
     47 H3        12.5514    5.7043    3.2938 H         1 RES1    0.0000
     48 H4        13.0488    7.1824    2.5712 H         1 RES1    0.0000
     49 H5        11.0602    7.1753    1.8017 H         1 RES1    0.0000
     50 H6        11.4208    6.1008    0.6944 H         1 RES1    0.0000
     51 H7         9.6116    5.9311    2.9184 H         1 RES1    0.0000
     52 H8        10.5826    4.5831    2.7213 H         1 RES1    0.0000
     53 H9         8.2680    4.9571    1.4076 H         1 RES1    0.0000
     54 H10        9.5507    5.4297    0.3191 H         1 RES1    0.0000
     55 H11        8.9541    2.7567    1.6047 H         1 RES1    0.0000
     56 H12        8.7457    2.9993    0.0938 H         1 RES1    0.0000
     57 H13       11.4570    1.0299    4.5981 H         1 RES1    0.0000
     58 H14       13.4654    2.1119    4.9359 H         1 RES1    0.0000
     59 H15       13.1854    5.4152   -3.3688 H         1 RES1    0.0000
     60 H16       11.0422    4.4385   -3.6316 H         1 RES1    0.0000
     61 H17        9.1013    1.0921    4.3635 H         1 RES1    0.0000
     62 H18        7.2381   -0.2980    4.0539 H         1 RES1    0.0000
     63 H19        6.9195   -1.5532    1.9706 H         1 RES1    0.0000
     64 H20        8.6704   -1.2696    0.2721 H         1 RES1    0.0000
     65 H21       10.4477    0.1981    0.6475 H         1 RES1    0.0000
     66 H22       14.6657    4.5556    4.9641 H         1 RES1    0.0000
     67 H23       16.8268    5.3795    5.2831 H         1 RES1    0.0000
     68 H24       18.6122    4.5582    3.8193 H         1 RES1    0.0000
     69 H25       17.9561    3.0353    2.0926 H         1 RES1    0.0000
     70 H26       15.7721    2.3010    1.7548 H         1 RES1    0.0000
     71 H27       14.5173    7.0559   -2.2709 H         1 RES1    0.0000
     72 H28       16.7917    7.8063   -2.1489 H         1 RES1    0.0000
     73 H29       18.5120    6.4229   -1.2762 H         1 RES1    0.0000
     74 H30       17.7737    4.1836   -0.4973 H         1 RES1    0.0000
     75 H31       15.5271    3.5254   -0.5537 H         1 RES1    0.0000
     76 H32        8.5957    4.4259   -2.9278 H         1 RES1    0.0000
     77 H33        6.7396    3.0875   -3.5002 H         1 RES1    0.0000
     78 H34        6.6950    0.7158   -3.2187 H         1 RES1    0.0000
     79 H35        8.5961   -0.3346   -2.2428 H         1 RES1    0.0000
     80 H36       10.4249    1.0156   -1.6516 H         1 RES1    0.0000
@<TRIPOS>BOND
     1    1    2 1
     2    2    3 1
     3    3    4 1
     4    4    5 1
     5    5    6 1
     6    6    7 1
     7    7    8 ar
     8    8    9 ar
     9    9   10 ar
    10   10   11 ar
    11   11   12 ar
    12   12   13 ar
    13   13    8 ar
    14   14    1 1
    15   15   14 ar
    16   16   15 ar
    17   17   16 ar
    18   18   17 ar
    19   19   18 ar
    20   20    7 ar
    21   21    9 1
    22   22   21 ar
    23   23   22 ar
    24   24   23 ar
    25   25   24 ar
    26   26   21 ar
    27   27   12 1
    28   28   27 ar
    29   29   28 ar
    30   30   29 ar
    31   31   30 ar
    32   32   27 ar
    33   33   16 1
    34   34   33 ar
    35   35   34 ar
    36   36   35 ar
    37   37   36 ar
    38   38   33 ar
    39   39   19 1
    40   40   39 ar
    41   41   40 ar
    42   42   41 ar
    43   43   42 ar
    44   44   39 ar
    45   45    1 1
    46   46    1 1
    47   47    2 1
    48   48    2 1
    49   49    3 1
    50   50    3 1
    51   51    4 1
    52   52    4 1
    53   53    5 1
    54   54    5 1
    55   55    6 1
    56   56    6 1
    57   57   10 1
    58   58   11 1
    59   59   17 1
    60   60   18 1
    61   61   22 1
    62   62   23 1
    63   63   24 1
    64   64   25 1
    65   65   26 1
    66   66   28 1
    67   67   29 1
    68   68   30 1
    69   69   31 1
    70   70   32 1
    71   71   34 1
    72   72   35 1
    73   73   36 1
    74   74   37 1
    75   75   38 1
    76   76   40 1
    77   77   41 1
    78   78   42 1
    79   79   43 1
    80   80   44 1
    81   13   14 ar
    82   15   20 ar
    83   19   20 ar
    84   25   26 ar
    85   31   32 ar
    86   37   38 ar
    87   43   44 ar
@<TRIPOS>SUBSTRUCTURE
     1 RES1 1

@<TRIPOS>CRYSIN
  11.4390   14.4980    9.6680  97.3700 101.4000  92.5600   2 1

