# MOL2 file generated by ConQuest
# Please check atom types

@<TRIPOS>MOLECULE
TUPPIF
    92    98     2
SMALL
NO_CHARGES
****
Generated from CSD

@<TRIPOS>ATOM
      1 C1         1.7917    1.9526   10.3556 C.2       1 RES1    0.0000
      2 H1         1.2296    2.6257    9.9892 H         1 RES1    0.0000
      3 C2         1.4694    1.4634   11.5386 C.2       1 RES1    0.0000
      4 H2         2.0482    0.8140   11.9224 H         1 RES1    0.0000
      5 C3         0.3163    1.8410   12.2801 C.2       1 RES1    0.0000
      6 H3        -0.1963    2.5663   11.9416 H         1 RES1    0.0000
      7 C4        -0.1116    1.2672   13.4108 C.2       1 RES1    0.0000
      8 H4         0.4273    0.5680   13.7615 H         1 RES1    0.0000
      9 C5        -1.2921    1.5918   14.1436 C.2       1 RES1    0.0000
     10 H5        -1.8583    2.2757   13.8069 H         1 RES1    0.0000
     11 C6        -1.6426    0.9821   15.2847 C.2       1 RES1    0.0000
     12 H6        -1.0646    0.2955   15.5971 H         1 RES1    0.0000
     13 C7         2.9669    1.5269    9.5547 C.ar      1 RES1    0.0000
     14 C8         2.8831    1.3909    8.1327 C.ar      1 RES1    0.0000
     15 C9         1.7441    1.7131    7.3772 C.ar      1 RES1    0.0000
     16 H7         0.9844    2.0624    7.8291 H         1 RES1    0.0000
     17 C10        1.6785    1.5478    6.0284 C.ar      1 RES1    0.0000
     18 H8         0.8923    1.8029    5.5608 H         1 RES1    0.0000
     19 C11        2.7538    1.0087    5.3287 C.ar      1 RES1    0.0000
     20 H9         2.7067    0.8798    4.3883 H         1 RES1    0.0000
     21 C12        3.8738    0.6712    6.0197 C.ar      1 RES1    0.0000
     22 H10        4.6103    0.2966    5.5521 H         1 RES1    0.0000
     23 C13        3.9742    0.8612    7.4225 C.ar      1 RES1    0.0000
     24 C14        5.1925    0.5438    8.1100 C.ar      1 RES1    0.0000
     25 H11        5.9405    0.2135    7.6249 H         1 RES1    0.0000
     26 C15        5.2727    0.7118    9.4273 C.ar      1 RES1    0.0000
     27 H12        6.0873    0.5151    9.8758 H         1 RES1    0.0000
     28 C16        4.1653    1.1783   10.1671 C.ar      1 RES1    0.0000
     29 H13        4.2414    1.2567   11.1111 H         1 RES1    0.0000
     30 C17       -2.8216    1.2677   16.0926 C.ar      1 RES1    0.0000
     31 C18       -2.8045    1.0804   17.5112 C.ar      1 RES1    0.0000
     32 C19       -1.6574    0.6285   18.1934 C.ar      1 RES1    0.0000
     33 H14       -0.8749    0.3922   17.7083 H         1 RES1    0.0000
     34 C20       -1.6779    0.5344   19.5544 C.ar      1 RES1    0.0000
     35 H15       -0.9122    0.1899   19.9975 H         1 RES1    0.0000
     36 C21       -2.7697    0.9187   20.3134 C.ar      1 RES1    0.0000
     37 H16       -2.7277    0.8668   21.2608 H         1 RES1    0.0000
     38 C22       -3.8903    1.3667   19.7166 C.ar      1 RES1    0.0000
     39 H17       -4.6422    1.6223   20.2383 H         1 RES1    0.0000
     40 C23       -3.9394    1.4559   18.2702 C.ar      1 RES1    0.0000
     41 C24       -5.0870    1.9399   17.5984 C.ar      1 RES1    0.0000
     42 H18       -5.8607    2.1735   18.0974 H         1 RES1    0.0000
     43 C25       -5.0922    2.0731   16.2601 C.ar      1 RES1    0.0000
     44 H19       -5.8757    2.3913   15.8274 H         1 RES1    0.0000
     45 C26       -3.9790    1.7554   15.5011 C.ar      1 RES1    0.0000
     46 H20       -4.0080    1.8730   14.5589 H         1 RES1    0.0000
     47 C27        5.0479    4.6279   10.8232 C.2       2 RES2    0.0000
     48 H21        4.4693    3.9279   10.5458 H         2 RES2    0.0000
     49 C28        4.7222    5.2718   11.9608 C.2       2 RES2    0.0000
     50 H22        5.2961    5.9608   12.2749 H         2 RES2    0.0000
     51 C29        3.5301    4.9553   12.7233 C.2       2 RES2    0.0000
     52 H23        2.9809    4.2454   12.4127 H         2 RES2    0.0000
     53 C30        3.1536    5.5865   13.8243 C.2       2 RES2    0.0000
     54 H24        3.6854    6.3096   14.1349 H         2 RES2    0.0000
     55 C31        1.9449    5.2216   14.5938 C.2       2 RES2    0.0000
     56 H25        1.3439    4.5905   14.2169 H         2 RES2    0.0000
     57 C32        1.6631    5.7222   15.7646 C.2       2 RES2    0.0000
     58 H26        2.2171    6.4162   16.1013 H         2 RES2    0.0000
     59 C33        6.2312    4.9074    9.9613 C.ar      2 RES2    0.0000
     60 C34        6.1501    4.7293    8.5602 C.ar      2 RES2    0.0000
     61 C35        4.9754    4.2438    7.8919 C.ar      2 RES2    0.0000
     62 H27        4.2153    4.0031    8.4084 H         2 RES2    0.0000
     63 C36        4.9224    4.1199    6.5414 C.ar      2 RES2    0.0000
     64 H28        4.1414    3.7669    6.1313 H         2 RES2    0.0000
     65 C37        6.0180    4.5113    5.7388 C.ar      2 RES2    0.0000
     66 H29        5.9629    4.4647    4.7931 H         2 RES2    0.0000
     67 C38        7.1552    4.9568    6.3460 C.ar      2 RES2    0.0000
     68 H30        7.9076    5.1841    5.8120 H         2 RES2    0.0000
     69 C39        7.2392    5.0886    7.7418 C.ar      2 RES2    0.0000
     70 C40        8.4266    5.5490    8.3473 C.ar      2 RES2    0.0000
     71 H31        9.1799    5.7551    7.8064 H         2 RES2    0.0000
     72 C41        8.5059    5.7032    9.6978 C.ar      2 RES2    0.0000
     73 H32        9.3116    6.0231   10.0869 H         2 RES2    0.0000
     74 C42        7.3937    5.3903   10.5405 C.ar      2 RES2    0.0000
     75 H33        7.4497    5.5103   11.4828 H         2 RES2    0.0000
     76 C43        0.5255    5.2676   16.5969 C.ar      2 RES2    0.0000
     77 C44        0.6699    5.1347   18.0067 C.ar      2 RES2    0.0000
     78 C45        1.8816    5.4287   18.7290 C.ar      2 RES2    0.0000
     79 H34        2.6256    5.7803   18.2527 H         2 RES2    0.0000
     80 C46        1.9931    5.2267   20.0255 C.ar      2 RES2    0.0000
     81 H35        2.8040    5.4431   20.4704 H         2 RES2    0.0000
     82 C47        0.8966    4.6831   20.7670 C.ar      2 RES2    0.0000
     83 H36        0.9813    4.5369   21.7022 H         2 RES2    0.0000
     84 C48       -0.2425    4.3815   20.1476 C.ar      2 RES2    0.0000
     85 H37       -0.9596    4.0133   20.6501 H         2 RES2    0.0000
     86 C49       -0.4144    4.5951   18.7570 C.ar      2 RES2    0.0000
     87 C50       -1.6404    4.2727   18.1009 C.ar      2 RES2    0.0000
     88 H38       -2.3781    3.9338   18.5947 H         2 RES2    0.0000
     89 C51       -1.7339    4.4568   16.7679 C.ar      2 RES2    0.0000
     90 H39       -2.5517    4.2437   16.3351 H         2 RES2    0.0000
     91 C52       -0.6725    4.9513   15.9949 C.ar      2 RES2    0.0000
     92 H40       -0.7792    5.0665   15.0579 H         2 RES2    0.0000
@<TRIPOS>BOND
     1    1    2 1
     2    3    1 2
     3    4    3 1
     4    5    3 1
     5    6    5 1
     6    7    5 2
     7    8    7 1
     8    9    7 1
     9   10    9 1
    10   11    9 2
    11   12   11 1
    12   13    1 1
    13   14   13 ar
    14   15   14 ar
    15   16   15 1
    16   17   15 ar
    17   18   17 1
    18   19   17 ar
    19   20   19 1
    20   21   19 ar
    21   22   21 1
    22   23   14 ar
    23   24   23 ar
    24   25   24 1
    25   26   24 ar
    26   27   26 1
    27   28   13 ar
    28   29   28 1
    29   30   11 1
    30   31   30 ar
    31   32   31 ar
    32   33   32 1
    33   34   32 ar
    34   35   34 1
    35   36   34 ar
    36   37   36 1
    37   38   36 ar
    38   39   38 1
    39   40   31 ar
    40   41   40 ar
    41   42   41 1
    42   43   41 ar
    43   44   43 1
    44   45   30 ar
    45   46   45 1
    46   47   48 1
    47   49   47 2
    48   50   49 1
    49   51   49 1
    50   52   51 1
    51   53   51 2
    52   54   53 1
    53   55   53 1
    54   56   55 1
    55   57   55 2
    56   58   57 1
    57   59   47 1
    58   60   59 ar
    59   61   60 ar
    60   62   61 1
    61   63   61 ar
    62   64   63 1
    63   65   63 ar
    64   66   65 1
    65   67   65 ar
    66   68   67 1
    67   69   60 ar
    68   70   69 ar
    69   71   70 1
    70   72   70 ar
    71   73   72 1
    72   74   59 ar
    73   75   74 1
    74   76   57 1
    75   77   76 ar
    76   78   77 ar
    77   79   78 1
    78   80   78 ar
    79   81   80 1
    80   82   80 ar
    81   83   82 1
    82   84   82 ar
    83   85   84 1
    84   86   77 ar
    85   87   86 ar
    86   88   87 1
    87   89   87 ar
    88   90   89 1
    89   91   76 ar
    90   92   91 1
    91   21   23 ar
    92   26   28 ar
    93   38   40 ar
    94   43   45 ar
    95   67   69 ar
    96   72   74 ar
    97   84   86 ar
    98   89   91 ar
@<TRIPOS>SUBSTRUCTURE
     1 RES1 1
     2 RES2 47

@<TRIPOS>CRYSIN
   6.9500    7.4000   17.5710  92.1190  96.4240  90.1910   1 1

