# MOL2 file generated by ConQuest
# Please check atom types

@<TRIPOS>MOLECULE
UCOQOT
    64    66     1
SMALL
NO_CHARGES
****
Generated from CSD

@<TRIPOS>ATOM
      1 C1         2.1466   -3.0443    4.0295 C.ar      1 RES1    0.0000
      2 C2         1.8267   -4.4314    3.9793 C.ar      1 RES1    0.0000
      3 H1         1.8538   -4.8757    3.1628 H         1 RES1    0.0000
      4 C3         1.4826   -5.1156    5.0955 C.ar      1 RES1    0.0000
      5 H2         1.2769   -6.0203    5.0379 H         1 RES1    0.0000
      6 C4         1.4352   -4.4612    6.3494 C.ar      1 RES1    0.0000
      7 H3         1.1945   -4.9362    7.1120 H         1 RES1    0.0000
      8 C5         1.7395   -3.1462    6.4411 C.ar      1 RES1    0.0000
      9 H4         1.7109   -2.7318    7.2731 H         1 RES1    0.0000
     10 C6         2.1010   -2.3818    5.2969 C.ar      1 RES1    0.0000
     11 C7         2.5107   -2.3172    2.8738 C.ar      1 RES1    0.0000
     12 C8         2.5553   -2.9821    1.6033 C.1       1 RES1    0.0000
     13 C9         2.5768   -3.5581    0.5613 C.1       1 RES1    0.0000
     14 C10        2.5756   -4.3455   -0.6799 C.3       1 RES1    0.0000
     15 H5         1.9708   -3.9322   -1.3167 H         1 RES1    0.0000
     16 H6         3.4660   -4.3326   -1.0647 H         1 RES1    0.0000
     17 C11        2.1508   -5.7896   -0.4550 C.3       1 RES1    0.0000
     18 H7         1.2538   -5.8008   -0.0859 H         1 RES1    0.0000
     19 H8         2.7444   -6.1951    0.1966 H         1 RES1    0.0000
     20 C12        2.1715   -6.6186   -1.7221 C.3       1 RES1    0.0000
     21 H9         3.0656   -6.5938   -2.0973 H         1 RES1    0.0000
     22 H10        1.5700   -6.2180   -2.3682 H         1 RES1    0.0000
     23 C13        1.7699   -8.0650   -1.5104 C.3       1 RES1    0.0000
     24 H11        0.8684   -8.0889   -1.1523 H         1 RES1    0.0000
     25 H12        2.3591   -8.4586   -0.8483 H         1 RES1    0.0000
     26 C14        1.8170   -8.9081   -2.7655 C.3       1 RES1    0.0000
     27 H13        2.7097   -8.8626   -3.1405 H         1 RES1    0.0000
     28 H14        1.2032   -8.5342   -3.4172 H         1 RES1    0.0000
     29 C15        1.4579  -10.3586   -2.5318 C.3       1 RES1    0.0000
     30 H15        0.5508  -10.4176   -2.2228 H         1 RES1    0.0000
     31 H16        1.5489  -10.8468   -3.3528 H         1 RES1    0.0000
     32 H17        2.0462  -10.7312   -1.8709 H         1 RES1    0.0000
     33 C1A        2.7778   -0.2797    4.2307 C.ar      1 RES1    0.0000
     34 C2A        3.0977    1.1074    4.2809 C.ar      1 RES1    0.0000
     35 H1A        3.0705    1.5517    5.0974 H         1 RES1    0.0000
     36 C3A        3.4418    1.7916    3.1647 C.ar      1 RES1    0.0000
     37 H2A        3.6475    2.6963    3.2223 H         1 RES1    0.0000
     38 C4A        3.4892    1.1372    1.9108 C.ar      1 RES1    0.0000
     39 H3A        3.7298    1.6122    1.1482 H         1 RES1    0.0000
     40 C5A        3.1848   -0.1778    1.8191 C.ar      1 RES1    0.0000
     41 H4A        3.2135   -0.5922    0.9871 H         1 RES1    0.0000
     42 C6A        2.8234   -0.9422    2.9633 C.ar      1 RES1    0.0000
     43 C7A        2.4137   -1.0068    5.3864 C.ar      1 RES1    0.0000
     44 C8A        2.3691   -0.3419    6.6569 C.1       1 RES1    0.0000
     45 C9A        2.3476    0.2341    7.6989 C.1       1 RES1    0.0000
     46 C10A       2.3488    1.0215    8.9401 C.3       1 RES1    0.0000
     47 H5A        2.9535    0.6082    9.5769 H         1 RES1    0.0000
     48 H6A        1.4584    1.0086    9.3249 H         1 RES1    0.0000
     49 C11A       2.7736    2.4656    8.7152 C.3       1 RES1    0.0000
     50 H7A        3.6705    2.4768    8.3461 H         1 RES1    0.0000
     51 H8A        2.1800    2.8711    8.0636 H         1 RES1    0.0000
     52 C12A       2.7529    3.2946    9.9823 C.3       1 RES1    0.0000
     53 H9A        1.8588    3.2698   10.3575 H         1 RES1    0.0000
     54 H10A       3.3543    2.8940   10.6284 H         1 RES1    0.0000
     55 C13A       3.1545    4.7410    9.7706 C.3       1 RES1    0.0000
     56 H11A       4.0560    4.7649    9.4125 H         1 RES1    0.0000
     57 H12A       2.5653    5.1346    9.1085 H         1 RES1    0.0000
     58 C14A       3.1074    5.5841   11.0257 C.3       1 RES1    0.0000
     59 H13A       2.2147    5.5386   11.4007 H         1 RES1    0.0000
     60 H14A       3.7211    5.2102   11.6774 H         1 RES1    0.0000
     61 C15A       3.4665    7.0346   10.7919 C.3       1 RES1    0.0000
     62 H15A       4.3736    7.0936   10.4830 H         1 RES1    0.0000
     63 H16A       3.3755    7.5228   11.6130 H         1 RES1    0.0000
     64 H17A       2.8782    7.4072   10.1311 H         1 RES1    0.0000
@<TRIPOS>BOND
     1    1    2 ar
     2    2    3 1
     3    4    2 ar
     4    5    4 1
     5    6    4 ar
     6    7    6 1
     7    8    6 ar
     8    9    8 1
     9   10    1 ar
    10   11    1 ar
    11   12   11 1
    12   13   12 3
    13   14   13 1
    14   15   14 1
    15   16   14 1
    16   17   14 1
    17   18   17 1
    18   19   17 1
    19   20   17 1
    20   21   20 1
    21   22   20 1
    22   23   20 1
    23   24   23 1
    24   25   23 1
    25   26   23 1
    26   27   26 1
    27   28   26 1
    28   29   26 1
    29   30   29 1
    30   31   29 1
    31   32   29 1
    32   33   34 ar
    33   34   35 1
    34   36   34 ar
    35   37   36 1
    36   38   36 ar
    37   39   38 1
    38   40   38 ar
    39   41   40 1
    40   42   11 ar
    41   43   10 ar
    42   44   43 1
    43   45   44 3
    44   46   45 1
    45   47   46 1
    46   48   46 1
    47   49   46 1
    48   50   49 1
    49   51   49 1
    50   52   49 1
    51   53   52 1
    52   54   52 1
    53   55   52 1
    54   56   55 1
    55   57   55 1
    56   58   55 1
    57   59   58 1
    58   60   58 1
    59   61   58 1
    60   62   61 1
    61   63   61 1
    62   64   61 1
    63    8   10 ar
    64   33   42 ar
    65   33   43 ar
    66   40   42 ar
@<TRIPOS>SUBSTRUCTURE
     1 RES1 1

@<TRIPOS>CRYSIN
   7.7874    9.2435    9.3529 108.8700 107.8250  95.6690   2 1

