# MOL2 file generated by ConQuest
# Please check atom types

@<TRIPOS>MOLECULE
UCUYAV
    68    72     1
SMALL
NO_CHARGES
****
Generated from CSD

@<TRIPOS>ATOM
      1 C1         0.4957    9.8675   -1.5521 C.3       1 RES1    0.0000
      2 H1         1.0927   10.2852   -2.2077 H         1 RES1    0.0000
      3 H2        -0.2870   10.4406   -1.4110 H         1 RES1    0.0000
      4 H3         0.2045    8.9937   -1.8859 H         1 RES1    0.0000
      5 C2         1.2309    9.6882   -0.2421 C.ar      1 RES1    0.0000
      6 C3         2.5430   10.0838   -0.1354 C.ar      1 RES1    0.0000
      7 H4         2.9568   10.5021   -0.8809 H         1 RES1    0.0000
      8 C4         3.2952    9.8916    1.0375 C.ar      1 RES1    0.0000
      9 C5         4.6707   10.3569    1.1337 C.ar      1 RES1    0.0000
     10 C6         5.3947   10.1656    2.3330 C.ar      1 RES1    0.0000
     11 C7         4.8549    9.2040    3.2923 C.ar      1 RES1    0.0000
     12 C8         5.8283    8.4697    4.1668 C.ar      1 RES1    0.0000
     13 C9         5.8560    8.6456    5.5593 C.ar      1 RES1    0.0000
     14 H5         5.1963    9.1916    5.9688 H         1 RES1    0.0000
     15 C10        6.8152    8.0468    6.3481 C.ar      1 RES1    0.0000
     16 H6         6.8235    8.1874    7.2879 H         1 RES1    0.0000
     17 C11        7.7541    7.2476    5.7585 C.ar      1 RES1    0.0000
     18 H7         8.4274    6.8431    6.2936 H         1 RES1    0.0000
     19 C12        5.2975   11.0262    0.0709 C.ar      1 RES1    0.0000
     20 H8         4.8222   11.1369   -0.7446 H         1 RES1    0.0000
     21 C13        6.5721   11.5276    0.1641 C.ar      1 RES1    0.0000
     22 C14        7.2575   11.4475    1.3987 C.ar      1 RES1    0.0000
     23 C15        6.6585   10.8139    2.4828 C.ar      1 RES1    0.0000
     24 C16        7.3421   10.9246    3.8283 C.3       1 RES1    0.0000
     25 H9         7.9895   10.1958    3.9266 H         1 RES1    0.0000
     26 H10        6.6718   10.8657    4.5410 H         1 RES1    0.0000
     27 H11        7.8075   11.7849    3.8883 H         1 RES1    0.0000
     28 C17        8.6201   12.0778    1.5448 C.3       1 RES1    0.0000
     29 H12        8.5283   12.9606    1.9595 H         1 RES1    0.0000
     30 H13        9.0328   12.1733    0.6603 H         1 RES1    0.0000
     31 H14        9.1844   11.5093    2.1096 H         1 RES1    0.0000
     32 C18        7.1846   12.2103   -1.0308 C.3       1 RES1    0.0000
     33 H15        6.5456   12.2041   -1.7741 H         1 RES1    0.0000
     34 H16        7.9985   11.7350   -1.2961 H         1 RES1    0.0000
     35 H17        7.4075   13.1365   -0.7997 H         1 RES1    0.0000
     36 C19        0.5801    9.1608    0.8935 C.ar      1 RES1    0.0000
     37 C20        1.2695    9.0203    2.0918 C.ar      1 RES1    0.0000
     38 C21        0.4739    8.7034    3.3400 C.3       1 RES1    0.0000
     39 H18       -0.4213    9.0963    3.2663 H         1 RES1    0.0000
     40 H19        0.9314    9.0772    4.1227 H         1 RES1    0.0000
     41 H20        0.3965    7.7315    3.4394 H         1 RES1    0.0000
     42 C22        2.6766    9.2710    2.1424 C.ar      1 RES1    0.0000
     43 C23        3.5516    8.7918    3.2187 C.ar      1 RES1    0.0000
     44 C24        3.0629    7.6621    4.0809 C.ar      1 RES1    0.0000
     45 C25        2.7384    7.8721    5.4245 C.ar      1 RES1    0.0000
     46 H21        2.9073    8.7225    5.8141 H         1 RES1    0.0000
     47 C26        2.1775    6.8702    6.2003 C.ar      1 RES1    0.0000
     48 H22        1.9630    7.0351    7.1102 H         1 RES1    0.0000
     49 C27        1.9330    5.6334    5.6446 C.ar      1 RES1    0.0000
     50 H23        1.5264    4.9491    6.1634 H         1 RES1    0.0000
     51 C28        2.2818    5.3946    4.3314 C.ar      1 RES1    0.0000
     52 H24        2.1245    4.5342    3.9603 H         1 RES1    0.0000
     53 C29        2.8613    6.3872    3.5310 C.ar      1 RES1    0.0000
     54 C30        3.2642    6.0389    2.1430 C.3       1 RES1    0.0000
     55 H25        3.2460    6.8446    1.5857 H         1 RES1    0.0000
     56 H26        2.6414    5.3757    1.7787 H         1 RES1    0.0000
     57 H27        4.1712    5.6674    2.1494 H         1 RES1    0.0000
     58 C31       -0.8646    8.7461    0.7728 C.3       1 RES1    0.0000
     59 H28       -1.1039    8.1713    1.5305 H         1 RES1    0.0000
     60 H29       -0.9938    8.2534   -0.0643 H         1 RES1    0.0000
     61 H30       -1.4343    9.5434    0.7737 H         1 RES1    0.0000
     62 C32        6.7670    7.6255    3.5660 C.ar      1 RES1    0.0000
     63 C33        7.7382    7.0187    4.4002 C.ar      1 RES1    0.0000
     64 H31        8.3908    6.4444    4.0155 H         1 RES1    0.0000
     65 C34        6.7676    7.3701    2.0909 C.3       1 RES1    0.0000
     66 H32        5.8557    7.1729    1.7925 H         1 RES1    0.0000
     67 H33        7.3488    6.6071    1.8921 H         1 RES1    0.0000
     68 H34        7.0992    8.1639    1.6224 H         1 RES1    0.0000
@<TRIPOS>BOND
     1    1    2 1
     2    3    1 1
     3    4    1 1
     4    5    1 1
     5    6    5 ar
     6    7    6 1
     7    8    6 ar
     8    9    8 ar
     9   10    9 ar
    10   11   10 ar
    11   12   11 1
    12   13   12 ar
    13   14   13 1
    14   15   13 ar
    15   16   15 1
    16   17   15 ar
    17   18   17 1
    18   19    9 ar
    19   20   19 1
    20   21   19 ar
    21   22   21 ar
    22   23   10 ar
    23   24   23 1
    24   25   24 1
    25   26   24 1
    26   27   24 1
    27   28   22 1
    28   29   28 1
    29   30   28 1
    30   31   28 1
    31   32   21 1
    32   33   32 1
    33   34   32 1
    34   35   32 1
    35   36    5 ar
    36   37   36 ar
    37   38   37 1
    38   39   38 1
    39   40   38 1
    40   41   38 1
    41   42    8 ar
    42   43   11 ar
    43   44   43 1
    44   45   44 ar
    45   46   45 1
    46   47   45 ar
    47   48   47 1
    48   49   47 ar
    49   50   49 1
    50   51   49 ar
    51   52   51 1
    52   53   44 ar
    53   54   53 1
    54   55   54 1
    55   56   54 1
    56   57   54 1
    57   58   36 1
    58   59   58 1
    59   60   58 1
    60   61   58 1
    61   62   12 ar
    62   63   17 ar
    63   64   63 1
    64   65   62 1
    65   66   65 1
    66   67   65 1
    67   68   65 1
    68   22   23 ar
    69   37   42 ar
    70   42   43 ar
    71   51   53 ar
    72   62   63 ar
@<TRIPOS>SUBSTRUCTURE
     1 RES1 1

@<TRIPOS>CRYSIN
  10.7240   14.6596   15.9412  90.0000 106.0430  90.0000 231 1

