# MOL2 file generated by ConQuest
# Please check atom types

@<TRIPOS>MOLECULE
UDIPAB
    68    75     1
SMALL
NO_CHARGES
****
Generated from CSD

@<TRIPOS>ATOM
      1 C1         8.8710    9.0437    7.3893 C.ar      1 RES1    0.0000
      2 H1         8.8757    9.9935    7.4071 H         1 RES1    0.0000
      3 C2         7.9041    8.3955    6.6751 C.ar      1 RES1    0.0000
      4 H2         7.1873    8.8769    6.2788 H         1 RES1    0.0000
      5 C3         7.9942    6.9994    6.5403 C.ar      1 RES1    0.0000
      6 C4         7.1793    6.1111    5.6828 C.2       1 RES1    0.0000
      7 C5         7.9057    4.8194    5.6710 C.ar      1 RES1    0.0000
      8 C6         7.7886    3.7290    4.8158 C.ar      1 RES1    0.0000
      9 H3         7.0603    3.6687    4.2089 H         1 RES1    0.0000
     10 C7         8.7528    2.7287    4.8615 C.ar      1 RES1    0.0000
     11 H4         8.6744    1.9715    4.2931 H         1 RES1    0.0000
     12 C8         9.8371    2.8294    5.7384 C.ar      1 RES1    0.0000
     13 H5        10.4852    2.1352    5.7625 H         1 RES1    0.0000
     14 C9         9.9806    3.9239    6.5709 C.ar      1 RES1    0.0000
     15 H6        10.7350    3.9967    7.1436 H         1 RES1    0.0000
     16 C10        9.0044    4.9193    6.5598 C.ar      1 RES1    0.0000
     17 C11        8.9896    6.2625    7.1734 C.ar      1 RES1    0.0000
     18 C12        9.8682    6.8941    8.1052 C.ar      1 RES1    0.0000
     19 C13        9.8682    8.3331    8.1052 C.ar      1 RES1    0.0000
     20 C14        6.0539    6.4782    5.0438 C.2       1 RES1    0.0000
     21 H7         5.8495    7.4058    5.0269 H         1 RES1    0.0000
     22 C15        5.1108    5.5732    4.3687 C.ar      1 RES1    0.0000
     23 C16        4.5578    4.5048    5.0798 C.ar      1 RES1    0.0000
     24 H8         4.8168    4.3575    5.9819 H         1 RES1    0.0000
     25 C17        3.6322    3.6534    4.4825 C.ar      1 RES1    0.0000
     26 H9         3.2544    2.9473    4.9934 H         1 RES1    0.0000
     27 C18        3.2540    3.8097    3.1764 C.ar      1 RES1    0.0000
     28 C19        3.8039    4.8722    2.4568 C.ar      1 RES1    0.0000
     29 H10        3.5668    4.9872    1.5441 H         1 RES1    0.0000
     30 C20        4.6928    5.7680    3.0482 C.ar      1 RES1    0.0000
     31 H11        5.0155    6.5121    2.5535 H         1 RES1    0.0000
     32 C21        2.2450    2.8723    2.5605 C.3       1 RES1    0.0000
     33 H12        2.6597    1.9965    2.4140 H         1 RES1    0.0000
     34 H13        1.9408    3.2372    1.7033 H         1 RES1    0.0000
     35 H14        1.4792    2.7743    3.1640 H         1 RES1    0.0000
     36 C1A       10.8655    9.0437    8.8210 C.ar      1 RES1    0.0000
     37 H1A       10.8607    9.9935    8.8033 H         1 RES1    0.0000
     38 C2A       11.8324    8.3955    9.5352 C.ar      1 RES1    0.0000
     39 H2A       12.5491    8.8769    9.9315 H         1 RES1    0.0000
     40 C3A       11.7423    6.9994    9.6700 C.ar      1 RES1    0.0000
     41 C4A       12.5572    6.1111   10.5275 C.2       1 RES1    0.0000
     42 C5A       11.8308    4.8194   10.5393 C.ar      1 RES1    0.0000
     43 C6A       11.9478    3.7290   11.3946 C.ar      1 RES1    0.0000
     44 H3A       12.6762    3.6687   12.0014 H         1 RES1    0.0000
     45 C7A       10.9837    2.7287   11.3489 C.ar      1 RES1    0.0000
     46 H4A       11.0620    1.9715   11.9172 H         1 RES1    0.0000
     47 C8A        9.8994    2.8294   10.4720 C.ar      1 RES1    0.0000
     48 H5A        9.2513    2.1352   10.4478 H         1 RES1    0.0000
     49 C9A        9.7559    3.9239    9.6394 C.ar      1 RES1    0.0000
     50 H6A        9.0015    3.9967    9.0667 H         1 RES1    0.0000
     51 C10A      10.7321    4.9193    9.6506 C.ar      1 RES1    0.0000
     52 C11A      10.7469    6.2625    9.0369 C.ar      1 RES1    0.0000
     53 C14A      13.6826    6.4782   11.1665 C.2       1 RES1    0.0000
     54 H7A       13.8870    7.4058   11.1834 H         1 RES1    0.0000
     55 C15A      14.6257    5.5732   11.8417 C.ar      1 RES1    0.0000
     56 C16A      15.1787    4.5048   11.1306 C.ar      1 RES1    0.0000
     57 H8A       14.9197    4.3575   10.2284 H         1 RES1    0.0000
     58 C17A      16.1043    3.6534   11.7279 C.ar      1 RES1    0.0000
     59 H9A       16.4821    2.9473   11.2169 H         1 RES1    0.0000
     60 C18A      16.4825    3.8097   13.0340 C.ar      1 RES1    0.0000
     61 C19A      15.9326    4.8722   13.7535 C.ar      1 RES1    0.0000
     62 H10A      16.1697    4.9872   14.6662 H         1 RES1    0.0000
     63 C20A      15.0437    5.7680   13.1621 C.ar      1 RES1    0.0000
     64 H11A      14.7210    6.5121   13.6568 H         1 RES1    0.0000
     65 C21A      17.4915    2.8723   13.6499 C.3       1 RES1    0.0000
     66 H12A      17.0768    1.9965   13.7964 H         1 RES1    0.0000
     67 H13A      17.7957    3.2372   14.5070 H         1 RES1    0.0000
     68 H14A      18.2573    2.7743   13.0463 H         1 RES1    0.0000
@<TRIPOS>BOND
     1    1    2 1
     2    3    1 ar
     3    4    3 1
     4    5    3 ar
     5    6    5 1
     6    7    6 1
     7    8    7 ar
     8    9    8 1
     9   10    8 ar
    10   11   10 1
    11   12   10 ar
    12   13   12 1
    13   14   12 ar
    14   15   14 1
    15   16    7 ar
    16   17    5 ar
    17   18   17 ar
    18   19    1 ar
    19   20    6 2
    20   21   20 1
    21   22   20 1
    22   23   22 ar
    23   24   23 1
    24   25   23 ar
    25   26   25 1
    26   27   25 ar
    27   28   27 ar
    28   29   28 1
    29   30   22 ar
    30   31   30 1
    31   32   27 1
    32   33   32 1
    33   34   32 1
    34   35   32 1
    35   36   19 ar
    36   37   36 1
    37   38   36 ar
    38   39   38 1
    39   40   38 ar
    40   41   40 1
    41   42   41 1
    42   43   42 ar
    43   44   43 1
    44   45   43 ar
    45   46   45 1
    46   47   45 ar
    47   48   47 1
    48   49   47 ar
    49   50   49 1
    50   51   42 ar
    51   52   18 ar
    52   53   41 2
    53   54   53 1
    54   55   53 1
    55   56   55 ar
    56   57   56 1
    57   58   56 ar
    58   59   58 1
    59   60   58 ar
    60   61   60 ar
    61   62   61 1
    62   63   55 ar
    63   64   63 1
    64   65   60 1
    65   66   65 1
    66   67   65 1
    67   68   65 1
    68   14   16 ar
    69   16   17 1
    70   18   19 ar
    71   28   30 ar
    72   40   52 ar
    73   49   51 ar
    74   51   52 1
    75   61   63 ar
@<TRIPOS>SUBSTRUCTURE
     1 RES1 1

@<TRIPOS>CRYSIN
  24.6931    9.8945   11.3008  90.0000 107.0020  90.0000  15 1

