# MOL2 file generated by ConQuest
# Please check atom types

@<TRIPOS>MOLECULE
UFOHON
    76    81     1
SMALL
NO_CHARGES
****
Generated from CSD

@<TRIPOS>ATOM
      1 C1        11.6600    0.0191   -0.0242 C.ar      1 RES1    0.0000
      2 C2        11.0006   -0.0387   -1.3034 C.ar      1 RES1    0.0000
      3 C3        10.9525   -1.2577   -1.9246 C.ar      1 RES1    0.0000
      4 H1        10.5511   -1.3175   -2.7619 H         1 RES1    0.0000
      5 C4        11.4804   -2.4087   -1.3521 C.ar      1 RES1    0.0000
      6 H2        11.3162   -3.2280   -1.7606 H         1 RES1    0.0000
      7 C5        12.2342   -2.3806   -0.2069 C.ar      1 RES1    0.0000
      8 C6        12.4519   -1.0981    0.4238 C.ar      1 RES1    0.0000
      9 C7        13.4025   -0.8627    1.4878 C.ar      1 RES1    0.0000
     10 C8        13.4344    0.3598    2.1476 C.ar      1 RES1    0.0000
     11 C9        12.4651    1.3639    1.8645 C.ar      1 RES1    0.0000
     12 C10       11.5584    1.1820    0.8378 C.ar      1 RES1    0.0000
     13 C11       10.3351    2.0442    0.7853 C.ar      1 RES1    0.0000
     14 C12        9.0972    1.4241    0.9605 C.ar      1 RES1    0.0000
     15 H3         9.0536    0.4981    1.0227 H         1 RES1    0.0000
     16 C13        7.9309    2.1696    1.0427 C.ar      1 RES1    0.0000
     17 H4         7.1147    1.7394    1.1561 H         1 RES1    0.0000
     18 C14        7.9729    3.5374    0.9572 C.ar      1 RES1    0.0000
     19 H5         7.1910    4.0367    1.0227 H         1 RES1    0.0000
     20 C15        9.1905    4.1692    0.7717 C.ar      1 RES1    0.0000
     21 H6         9.2245    5.0963    0.7065 H         1 RES1    0.0000
     22 C16       10.3525    3.4366    0.6823 C.ar      1 RES1    0.0000
     23 H7        11.1623    3.8750    0.5517 H         1 RES1    0.0000
     24 C17       12.4868    2.6337    2.6685 C.ar      1 RES1    0.0000
     25 C18       11.5706    2.9092    3.6698 C.ar      1 RES1    0.0000
     26 H8        10.9080    2.2891    3.8736 H         1 RES1    0.0000
     27 C19       11.6360    4.1059    4.3698 C.ar      1 RES1    0.0000
     28 H9        11.0196    4.2817    5.0429 H         1 RES1    0.0000
     29 C20       12.6053    5.0330    4.0761 C.ar      1 RES1    0.0000
     30 H10       12.6408    5.8348    4.5471 H         1 RES1    0.0000
     31 C21       13.5225    4.7752    3.0895 C.ar      1 RES1    0.0000
     32 H11       14.1793    5.3999    2.8838 H         1 RES1    0.0000
     33 C22       13.4601    3.5820    2.4060 C.ar      1 RES1    0.0000
     34 H12       14.0923    3.4085    1.7457 H         1 RES1    0.0000
     35 C23       14.4369    0.6115    3.2423 C.ar      1 RES1    0.0000
     36 C24       14.0123    0.6576    4.5606 C.ar      1 RES1    0.0000
     37 H13       13.1143    0.5192    4.7612 H         1 RES1    0.0000
     38 C25       14.9105    0.9072    5.5803 C.ar      1 RES1    0.0000
     39 H14       14.6150    0.9330    6.4625 H         1 RES1    0.0000
     40 C26       16.2411    1.1182    5.2970 C.ar      1 RES1    0.0000
     41 H15       16.8468    1.2858    5.9833 H         1 RES1    0.0000
     42 C27       16.6641    1.0807    3.9987 C.ar      1 RES1    0.0000
     43 H16       17.5612    1.2249    3.8027 H         1 RES1    0.0000
     44 C28       15.7738    0.8310    2.9742 C.ar      1 RES1    0.0000
     45 H17       16.0764    0.8099    2.0949 H         1 RES1    0.0000
     46 C29       14.4438   -1.8694    1.8734 C.ar      1 RES1    0.0000
     47 C30       14.4191   -2.5013    3.1119 C.ar      1 RES1    0.0000
     48 H18       13.7455   -2.2938    3.7204 H         1 RES1    0.0000
     49 C31       15.3757   -3.4272    3.4488 C.ar      1 RES1    0.0000
     50 H19       15.3331   -3.8551    4.2738 H         1 RES1    0.0000
     51 C32       16.3890   -3.7238    2.5822 C.ar      1 RES1    0.0000
     52 H20       17.0280   -4.3602    2.8096 H         1 RES1    0.0000
     53 C33       16.4588   -3.0803    1.3778 C.ar      1 RES1    0.0000
     54 H21       17.1566   -3.2678    0.7938 H         1 RES1    0.0000
     55 C34       15.4975   -2.1520    1.0241 C.ar      1 RES1    0.0000
     56 H22       15.5599   -1.7125    0.2059 H         1 RES1    0.0000
     57 C35       12.6168   -3.7390    0.3755 C.3       1 RES1    0.0000
     58 H23       13.1744   -3.5796    1.1660 H         1 RES1    0.0000
     59 C36       13.4159   -4.6017   -0.5912 C.3       1 RES1    0.0000
     60 H24       12.8565   -4.8596   -1.3274 H         1 RES1    0.0000
     61 H25       13.7283   -5.3870   -0.1367 H         1 RES1    0.0000
     62 H26       14.1665   -4.1024   -0.9206 H         1 RES1    0.0000
     63 C37       11.3591   -4.4669    0.8300 C.3       1 RES1    0.0000
     64 H27       10.8572   -3.9008    1.4213 H         1 RES1    0.0000
     65 H28       11.6051   -5.2722    1.2912 H         1 RES1    0.0000
     66 H29       10.8221   -4.6873    0.0659 H         1 RES1    0.0000
     67 C38       10.5098    1.1791   -2.0908 C.3       1 RES1    0.0000
     68 H30       10.6311    1.9738   -1.5300 H         1 RES1    0.0000
     69 C39        9.0357    1.0830   -2.4638 C.3       1 RES1    0.0000
     70 H31        8.8927    0.3036   -3.0056 H         1 RES1    0.0000
     71 H32        8.7779    1.8660   -2.9546 H         1 RES1    0.0000
     72 H33        8.5068    1.0186   -1.6650 H         1 RES1    0.0000
     73 C40       11.3516    1.3561   -3.3554 C.3       1 RES1    0.0000
     74 H34       12.2824    1.3667   -3.1209 H         1 RES1    0.0000
     75 H35       11.1177    2.1848   -3.7813 H         1 RES1    0.0000
     76 H36       11.1811    0.6283   -3.9575 H         1 RES1    0.0000
@<TRIPOS>BOND
     1    1    2 ar
     2    2    3 ar
     3    3    4 1
     4    5    3 ar
     5    6    5 1
     6    7    5 ar
     7    8    1 ar
     8    9    8 ar
     9   10    9 ar
    10   11   10 ar
    11   12    1 ar
    12   13   12 1
    13   14   13 ar
    14   15   14 1
    15   16   14 ar
    16   17   16 1
    17   18   16 ar
    18   19   18 1
    19   20   18 ar
    20   21   20 1
    21   22   13 ar
    22   23   22 1
    23   24   11 1
    24   25   24 ar
    25   26   25 1
    26   27   25 ar
    27   28   27 1
    28   29   27 ar
    29   30   29 1
    30   31   29 ar
    31   32   31 1
    32   33   24 ar
    33   34   33 1
    34   35   10 1
    35   36   35 ar
    36   37   36 1
    37   38   36 ar
    38   39   38 1
    39   40   38 ar
    40   41   40 1
    41   42   40 ar
    42   43   42 1
    43   44   35 ar
    44   45   44 1
    45   46    9 1
    46   47   46 ar
    47   48   47 1
    48   49   47 ar
    49   50   49 1
    50   51   49 ar
    51   52   51 1
    52   53   51 ar
    53   54   53 1
    54   55   46 ar
    55   56   55 1
    56   57    7 1
    57   58   57 1
    58   59   57 1
    59   60   59 1
    60   61   59 1
    61   62   59 1
    62   63   57 1
    63   64   63 1
    64   65   63 1
    65   66   63 1
    66   67    2 1
    67   68   67 1
    68   69   67 1
    69   70   69 1
    70   71   69 1
    71   72   69 1
    72   73   67 1
    73   74   73 1
    74   75   73 1
    75   76   73 1
    76    7    8 ar
    77   11   12 ar
    78   20   22 ar
    79   31   33 ar
    80   42   44 ar
    81   53   55 ar
@<TRIPOS>SUBSTRUCTURE
     1 RES1 1

@<TRIPOS>CRYSIN
  15.3046   11.7211   16.5363  90.0000  95.1640  90.0000 231 1

