# MOL2 file generated by ConQuest
# Please check atom types

@<TRIPOS>MOLECULE
UFOHUT
    73    78     1
SMALL
NO_CHARGES
****
Generated from CSD

@<TRIPOS>ATOM
      1 C1         5.8441   10.2915    3.9912 C.ar      1 RES1    0.0000
      2 C2         6.8288   10.6214    3.0759 C.ar      1 RES1    0.0000
      3 C3         7.4994   11.8706    3.1745 C.ar      1 RES1    0.0000
      4 C4         7.0239   12.8499    4.0233 C.ar      1 RES1    0.0000
      5 C5         5.8474   12.6149    4.8221 C.ar      1 RES1    0.0000
      6 C6         5.1303   13.6685    5.4928 C.ar      1 RES1    0.0000
      7 C7         4.1586   13.3102    6.3799 C.ar      1 RES1    0.0000
      8 H1         3.6553   13.9760    6.7894 H         1 RES1    0.0000
      9 C8         3.8951   11.9801    6.6920 C.ar      1 RES1    0.0000
     10 H2         3.3022   11.7913    7.3831 H         1 RES1    0.0000
     11 C9         4.4752   10.9444    6.0217 C.ar      1 RES1    0.0000
     12 C10        5.3849   11.2603    4.9514 C.ar      1 RES1    0.0000
     13 C11        5.2522    8.9232    3.9082 C.ar      1 RES1    0.0000
     14 C12        3.9418    8.7185    3.4990 C.ar      1 RES1    0.0000
     15 H3         3.4066    9.4478    3.2817 H         1 RES1    0.0000
     16 C13        3.4247    7.4336    3.4114 C.ar      1 RES1    0.0000
     17 H4         2.5409    7.3086    3.1504 H         1 RES1    0.0000
     18 C14        4.2060    6.3479    3.7066 C.ar      1 RES1    0.0000
     19 H5         3.8567    5.4891    3.6454 H         1 RES1    0.0000
     20 C15        5.5065    6.5365    4.0927 C.ar      1 RES1    0.0000
     21 H6         6.0419    5.8013    4.2872 H         1 RES1    0.0000
     22 C16        6.0257    7.8093    4.1956 C.ar      1 RES1    0.0000
     23 H7         6.9096    7.9225    4.4626 H         1 RES1    0.0000
     24 C17        7.2012    9.6613    1.9886 C.ar      1 RES1    0.0000
     25 C18        6.3195    9.4090    0.9570 C.ar      1 RES1    0.0000
     26 H8         5.4921    9.8329    0.9432 H         1 RES1    0.0000
     27 C19        6.6575    8.5261   -0.0621 C.ar      1 RES1    0.0000
     28 H9         6.0581    8.3657   -0.7548 H         1 RES1    0.0000
     29 C20        7.8678    7.8945   -0.0473 C.ar      1 RES1    0.0000
     30 H10        8.0874    7.2955   -0.7236 H         1 RES1    0.0000
     31 C21        8.7521    8.1399    0.9559 C.ar      1 RES1    0.0000
     32 H11        9.5807    7.7179    0.9575 H         1 RES1    0.0000
     33 C22        8.4229    9.0159    1.9738 C.ar      1 RES1    0.0000
     34 H12        9.0326    9.1727    2.6581 H         1 RES1    0.0000
     35 C23        8.7651   12.0785    2.3965 C.ar      1 RES1    0.0000
     36 C24        8.7590   12.2154    1.0170 C.ar      1 RES1    0.0000
     37 H13        7.9502   12.2179    0.5573 H         1 RES1    0.0000
     38 C25        9.9411   12.3484    0.3204 C.ar      1 RES1    0.0000
     39 H14        9.9208   12.4481   -0.6041 H         1 RES1    0.0000
     40 C26       11.1423   12.3359    0.9735 C.ar      1 RES1    0.0000
     41 H15       11.9360   12.4004    0.4924 H         1 RES1    0.0000
     42 C27       11.1719   12.2284    2.3381 C.ar      1 RES1    0.0000
     43 H16       11.9848   12.2416    2.7893 H         1 RES1    0.0000
     44 C28        9.9890   12.1008    3.0446 C.ar      1 RES1    0.0000
     45 H17       10.0159   12.0282    3.9715 H         1 RES1    0.0000
     46 C29        7.8633   14.0723    4.2341 C.ar      1 RES1    0.0000
     47 C30        8.1316   14.9903    3.2338 C.ar      1 RES1    0.0000
     48 H18        7.7688   14.8709    2.3852 H         1 RES1    0.0000
     49 C31        8.9417   16.0908    3.4928 C.ar      1 RES1    0.0000
     50 H19        9.1091   16.7141    2.8231 H         1 RES1    0.0000
     51 C32        9.4921   16.2560    4.7363 C.ar      1 RES1    0.0000
     52 H20       10.0309   16.9944    4.9082 H         1 RES1    0.0000
     53 C33        9.2566   15.3469    5.7215 C.ar      1 RES1    0.0000
     54 H21        9.6409   15.4611    6.5607 H         1 RES1    0.0000
     55 C34        8.4519   14.2615    5.4755 C.ar      1 RES1    0.0000
     56 H22        8.2991   13.6432    6.1528 H         1 RES1    0.0000
     57 C35        5.2542   15.1459    5.1728 C.3       1 RES1    0.0000
     58 H23        6.1853   15.4058    5.2564 H         1 RES1    0.0000
     59 H24        4.7481   15.6497    5.8293 H         1 RES1    0.0000
     60 C36        4.7634   15.5242    3.7809 C.3       1 RES1    0.0000
     61 H25        5.2892   15.0505    3.1167 H         1 RES1    0.0000
     62 H26        3.8386   15.2473    3.6818 H         1 RES1    0.0000
     63 C37        4.8686   17.0201    3.5307 C.3       1 RES1    0.0000
     64 H27        4.3509   17.4856    4.2066 H         1 RES1    0.0000
     65 H28        5.7950   17.2877    3.6363 H         1 RES1    0.0000
     66 C38        4.3929   17.4578    2.1744 C.3       1 RES1    0.0000
     67 H29        5.0017   17.1398    1.5031 H         1 RES1    0.0000
     68 H30        4.3551   18.4170    2.1423 H         1 RES1    0.0000
     69 H31        3.5187   17.0973    2.0098 H         1 RES1    0.0000
     70 C39        4.2202    9.5464    6.5598 C.3       1 RES1    0.0000
     71 H32        3.8830    9.6050    7.4571 H         1 RES1    0.0000
     72 H33        5.0406    9.0482    6.5581 H         1 RES1    0.0000
     73 H34        3.5751    9.1020    6.0047 H         1 RES1    0.0000
@<TRIPOS>BOND
     1    1    2 ar
     2    2    3 ar
     3    3    4 ar
     4    4    5 ar
     5    5    6 ar
     6    6    7 ar
     7    7    8 1
     8    9    7 ar
     9   10    9 1
    10   11    9 ar
    11   12    1 ar
    12   13    1 1
    13   14   13 ar
    14   15   14 1
    15   16   14 ar
    16   17   16 1
    17   18   16 ar
    18   19   18 1
    19   20   18 ar
    20   21   20 1
    21   22   13 ar
    22   23   22 1
    23   24    2 1
    24   25   24 ar
    25   26   25 1
    26   27   25 ar
    27   28   27 1
    28   29   27 ar
    29   30   29 1
    30   31   29 ar
    31   32   31 1
    32   33   24 ar
    33   34   33 1
    34   35    3 1
    35   36   35 ar
    36   37   36 1
    37   38   36 ar
    38   39   38 1
    39   40   38 ar
    40   41   40 1
    41   42   40 ar
    42   43   42 1
    43   44   35 ar
    44   45   44 1
    45   46    4 1
    46   47   46 ar
    47   48   47 1
    48   49   47 ar
    49   50   49 1
    50   51   49 ar
    51   52   51 1
    52   53   51 ar
    53   54   53 1
    54   55   46 ar
    55   56   55 1
    56   57    6 1
    57   58   57 1
    58   59   57 1
    59   60   57 1
    60   61   60 1
    61   62   60 1
    62   63   60 1
    63   64   63 1
    64   65   63 1
    65   66   63 1
    66   67   66 1
    67   68   66 1
    68   69   66 1
    69   70   11 1
    70   71   70 1
    71   72   70 1
    72   73   70 1
    73    5   12 ar
    74   11   12 ar
    75   20   22 ar
    76   31   33 ar
    77   42   44 ar
    78   53   55 ar
@<TRIPOS>SUBSTRUCTURE
     1 RES1 1

@<TRIPOS>CRYSIN
   8.2578   14.0480   14.4510  64.2650  86.4690  74.4290   2 1

