# MOL2 file generated by ConQuest
# Please check atom types

@<TRIPOS>MOLECULE
UFOJAB
    76    81     1
SMALL
NO_CHARGES
****
Generated from CSD

@<TRIPOS>ATOM
      1 C1        -1.3620    9.1803   -1.0041 C.ar      1 RES1    0.0000
      2 C2        -2.5253    8.6726   -0.5127 C.ar      1 RES1    0.0000
      3 H1        -3.3330    9.0520   -0.7768 H         1 RES1    0.0000
      4 C3        -2.5382    7.6073    0.3721 C.ar      1 RES1    0.0000
      5 H2        -3.3573    7.2323    0.6047 H         1 RES1    0.0000
      6 C4        -1.4103    7.0855    0.9159 C.ar      1 RES1    0.0000
      7 C5        -0.1303    7.6530    0.5387 C.ar      1 RES1    0.0000
      8 C6         1.1003    7.3464    1.1891 C.ar      1 RES1    0.0000
      9 C7         2.3063    7.7736    0.6776 C.ar      1 RES1    0.0000
     10 C8         2.3323    8.4770   -0.5631 C.ar      1 RES1    0.0000
     11 C9         1.1520    8.8998   -1.1377 C.ar      1 RES1    0.0000
     12 C10       -0.1248    8.5900   -0.5500 C.ar      1 RES1    0.0000
     13 C11       -1.4766   10.4043   -1.8822 C.3       1 RES1    0.0000
     14 H3        -1.2881   10.1641   -2.7916 H         1 RES1    0.0000
     15 H4        -0.8468   11.0675   -1.5894 H         1 RES1    0.0000
     16 H5        -2.3664   10.7587   -1.8236 H         1 RES1    0.0000
     17 C12       -1.5654    5.8484    1.7773 C.3       1 RES1    0.0000
     18 H6        -1.4434    6.0832    2.7008 H         1 RES1    0.0000
     19 H7        -0.9058    5.1973    1.5225 H         1 RES1    0.0000
     20 H8        -2.4422    5.4799    1.6539 H         1 RES1    0.0000
     21 C13        1.1213    6.6387    2.5089 C.ar      1 RES1    0.0000
     22 C14        0.6518    7.2660    3.6375 C.ar      1 RES1    0.0000
     23 H9         0.3461    8.1422    3.5780 H         1 RES1    0.0000
     24 C15        0.6222    6.6170    4.8676 C.ar      1 RES1    0.0000
     25 H10        0.2925    7.0583    5.6167 H         1 RES1    0.0000
     26 C16        1.0798    5.3223    4.9819 C.ar      1 RES1    0.0000
     27 C17        1.5795    4.7070    3.8645 C.ar      1 RES1    0.0000
     28 H11        1.9018    3.8374    3.9317 H         1 RES1    0.0000
     29 C18        1.6140    5.3473    2.6394 C.ar      1 RES1    0.0000
     30 H12        1.9695    4.9114    1.9001 H         1 RES1    0.0000
     31 C19        1.0053    4.6146    6.3277 C.3       1 RES1    0.0000
     32 H13        1.8897    4.5222    6.6898 H         1 RES1    0.0000
     33 H14        0.6159    3.7450    6.2094 H         1 RES1    0.0000
     34 H15        0.4638    5.1288    6.9312 H         1 RES1    0.0000
     35 C20        3.5811    7.5486    1.4185 C.ar      1 RES1    0.0000
     36 C21        3.8784    8.3063    2.5335 C.ar      1 RES1    0.0000
     37 H16        3.2656    8.9412    2.8275 H         1 RES1    0.0000
     38 C22        5.0577    8.1432    3.2194 C.ar      1 RES1    0.0000
     39 H17        5.2373    8.6857    3.9532 H         1 RES1    0.0000
     40 C23        5.9751    7.1964    2.8418 C.ar      1 RES1    0.0000
     41 C24        5.6713    6.4050    1.7591 C.ar      1 RES1    0.0000
     42 H18        6.2577    5.7332    1.4986 H         1 RES1    0.0000
     43 C25        4.5084    6.6007    1.0660 C.ar      1 RES1    0.0000
     44 H19        4.3378    6.0669    0.3251 H         1 RES1    0.0000
     45 C26        7.2683    6.9942    3.6234 C.3       1 RES1    0.0000
     46 H20        7.6142    6.1169    3.4489 H         1 RES1    0.0000
     47 H21        7.0897    7.0866    4.5627 H         1 RES1    0.0000
     48 H22        7.9114    7.6530    3.3557 H         1 RES1    0.0000
     49 C27        3.6456    8.7390   -1.2627 C.ar      1 RES1    0.0000
     50 C28        4.4851    9.7478   -0.9223 C.ar      1 RES1    0.0000
     51 H23        4.2875   10.2717   -0.1793 H         1 RES1    0.0000
     52 C29        5.6380   10.0195   -1.6611 C.ar      1 RES1    0.0000
     53 H24        6.1683   10.7457   -1.4221 H         1 RES1    0.0000
     54 C30        6.0065    9.2466   -2.7199 C.ar      1 RES1    0.0000
     55 C31        5.1834    8.2237   -3.0521 C.ar      1 RES1    0.0000
     56 H25        5.4138    7.6780   -3.7692 H         1 RES1    0.0000
     57 C32        4.0024    7.9584   -2.3542 C.ar      1 RES1    0.0000
     58 H26        3.4533    7.2573   -2.6219 H         1 RES1    0.0000
     59 C33        7.2449    9.5466   -3.5302 C.3       1 RES1    0.0000
     60 H27        7.6152   10.3870   -3.2505 H         1 RES1    0.0000
     61 H28        7.0150    9.5945   -4.4623 H         1 RES1    0.0000
     62 H29        7.8920    8.8509   -3.3963 H         1 RES1    0.0000
     63 C34        1.2514    9.6271   -2.4604 C.ar      1 RES1    0.0000
     64 C35        1.7431   10.9218   -2.5397 C.ar      1 RES1    0.0000
     65 H30        1.9878   11.3773   -1.7663 H         1 RES1    0.0000
     66 C36        1.8675   11.5382   -3.7931 C.ar      1 RES1    0.0000
     67 H31        2.1899   12.4089   -3.8337 H         1 RES1    0.0000
     68 C37        1.5274   10.8979   -4.9690 C.ar      1 RES1    0.0000
     69 C38        1.0504    9.6173   -4.8590 C.ar      1 RES1    0.0000
     70 H32        0.8108    9.1597   -5.6334 H         1 RES1    0.0000
     71 C39        0.9153    8.9825   -3.6375 C.ar      1 RES1    0.0000
     72 H33        0.5928    8.1106   -3.6066 H         1 RES1    0.0000
     73 C40        1.6820   11.6153   -6.3027 C.3       1 RES1    0.0000
     74 H34        1.5038   11.0001   -7.0173 H         1 RES1    0.0000
     75 H35        2.5767   11.9512   -6.3815 H         1 RES1    0.0000
     76 H36        1.0596   12.3459   -6.3457 H         1 RES1    0.0000
@<TRIPOS>BOND
     1    1    2 ar
     2    2    3 1
     3    4    2 ar
     4    5    4 1
     5    6    4 ar
     6    7    6 ar
     7    8    7 ar
     8    9    8 ar
     9   10    9 ar
    10   11   10 ar
    11   12    1 ar
    12   13    1 1
    13   14   13 1
    14   15   13 1
    15   16   13 1
    16   17    6 1
    17   18   17 1
    18   19   17 1
    19   20   17 1
    20   21    8 1
    21   22   21 ar
    22   23   22 1
    23   24   22 ar
    24   25   24 1
    25   26   24 ar
    26   27   26 ar
    27   28   27 1
    28   29   21 ar
    29   30   29 1
    30   31   26 1
    31   32   31 1
    32   33   31 1
    33   34   31 1
    34   35    9 1
    35   36   35 ar
    36   37   36 1
    37   38   36 ar
    38   39   38 1
    39   40   38 ar
    40   41   40 ar
    41   42   41 1
    42   43   35 ar
    43   44   43 1
    44   45   40 1
    45   46   45 1
    46   47   45 1
    47   48   45 1
    48   49   10 1
    49   50   49 ar
    50   51   50 1
    51   52   50 ar
    52   53   52 1
    53   54   52 ar
    54   55   54 ar
    55   56   55 1
    56   57   49 ar
    57   58   57 1
    58   59   54 1
    59   60   59 1
    60   61   59 1
    61   62   59 1
    62   63   11 1
    63   64   63 ar
    64   65   64 1
    65   66   64 ar
    66   67   66 1
    67   68   66 ar
    68   69   68 ar
    69   70   69 1
    70   71   63 ar
    71   72   71 1
    72   73   68 1
    73   74   73 1
    74   75   73 1
    75   76   73 1
    76    7   12 ar
    77   11   12 ar
    78   27   29 ar
    79   41   43 ar
    80   55   57 ar
    81   69   71 ar
@<TRIPOS>SUBSTRUCTURE
     1 RES1 1

@<TRIPOS>CRYSIN
  12.2147   10.8707   24.5770  90.0000 103.4710  90.0000 231 1

