# MOL2 file generated by ConQuest
# Please check atom types

@<TRIPOS>MOLECULE
UFUBAA
    62    67     1
SMALL
NO_CHARGES
****
Generated from CSD

@<TRIPOS>ATOM
      1 C1         0.0618    7.0198    3.9623 C.ar      1 RES1    0.0000
      2 C2         1.3040    6.5587    3.4114 C.ar      1 RES1    0.0000
      3 C3         1.8992    7.2440    2.3147 C.ar      1 RES1    0.0000
      4 C4         3.0629    6.7307    1.7154 C.ar      1 RES1    0.0000
      5 H1         3.4617    7.2939    0.9347 H         1 RES1    0.0000
      6 C5         3.6499    5.5454    2.1477 C.ar      1 RES1    0.0000
      7 C6         3.0339    4.8648    3.2102 C.ar      1 RES1    0.0000
      8 H2         3.4194    3.9897    3.5092 H         1 RES1    0.0000
      9 C7         1.8886    5.3462    3.8643 C.ar      1 RES1    0.0000
     10 C8         1.3269    4.6973    5.0521 C.ar      1 RES1    0.0000
     11 C9         0.2569    5.2992    5.7385 C.ar      1 RES1    0.0000
     12 C10       -0.5487    6.2959    5.0310 C.ar      1 RES1    0.0000
     13 C11       -1.9336    6.4733    5.2400 C.ar      1 RES1    0.0000
     14 C12       -2.5827    7.5259    4.5784 C.ar      1 RES1    0.0000
     15 H3        -3.5716    7.6348    4.7169 H         1 RES1    0.0000
     16 C13       -1.9468    8.3973    3.7059 C.ar      1 RES1    0.0000
     17 C14       -0.6069    8.1201    3.3511 C.ar      1 RES1    0.0000
     18 C15        0.0711    8.8442    2.3102 C.ar      1 RES1    0.0000
     19 H4        -0.3782    9.6399    1.9146 H         1 RES1    0.0000
     20 C16        1.2670    8.4300    1.8171 C.ar      1 RES1    0.0000
     21 H5         1.7408    8.9447    1.0771 H         1 RES1    0.0000
     22 C17        1.8499    3.4611    5.5414 C.ar      1 RES1    0.0000
     23 H6         2.5540    2.9555    5.0117 H         1 RES1    0.0000
     24 C18        1.3635    2.8972    6.6811 C.ar      1 RES1    0.0000
     25 H7         1.6904    2.0091    6.9732 H         1 RES1    0.0000
     26 C19        0.4803    3.6238    7.5313 C.ar      1 RES1    0.0000
     27 C20        0.2095    3.1404    8.8320 C.ar      1 RES1    0.0000
     28 H8         0.5550    2.2168    9.1072 H         1 RES1    0.0000
     29 C21       -0.4227    3.9278    9.7638 C.ar      1 RES1    0.0000
     30 C22       -0.7618    5.2482    9.3858 C.ar      1 RES1    0.0000
     31 H9        -1.0789    5.8904   10.0821 H         1 RES1    0.0000
     32 C23       -0.5723    5.7540    8.1122 C.ar      1 RES1    0.0000
     33 C24       -0.0056    4.8975    7.1067 C.ar      1 RES1    0.0000
     34 C25        4.8927    4.9719    1.4417 C.3       1 RES1    0.0000
     35 C26        5.7975    6.0973    0.9189 C.3       1 RES1    0.0000
     36 H10        5.3495    6.6907    0.2278 H         1 RES1    0.0000
     37 H11        6.6314    5.6888    0.4874 H         1 RES1    0.0000
     38 H12        6.1001    6.6779    1.6482 H         1 RES1    0.0000
     39 C27        4.4246    4.1219    0.2482 C.3       1 RES1    0.0000
     40 H13        3.8712    4.6796   -0.3987 H         1 RES1    0.0000
     41 H14        3.8430    3.3779    0.5511 H         1 RES1    0.0000
     42 H15        5.2190    3.7228   -0.2211 H         1 RES1    0.0000
     43 C28        5.7317    4.0870    2.3796 C.3       1 RES1    0.0000
     44 H16        6.5778    3.7771    1.9246 H         1 RES1    0.0000
     45 H17        5.2551    3.2406    2.6516 H         1 RES1    0.0000
     46 H18        6.0049    4.5721    3.1910 H         1 RES1    0.0000
     47 C29       -2.7938    5.5105    6.0248 C.3       1 RES1    0.0000
     48 H19       -2.9633    5.7911    6.9866 H         1 RES1    0.0000
     49 H20       -2.3781    4.5883    6.1005 H         1 RES1    0.0000
     50 H21       -3.6830    5.4209    5.5813 H         1 RES1    0.0000
     51 C30       -2.7303    9.5041    3.0437 C.3       1 RES1    0.0000
     52 H22       -3.6632    9.5047    3.3266 H         1 RES1    0.0000
     53 H23       -2.7968    9.3864    2.0586 H         1 RES1    0.0000
     54 H24       -2.3499   10.3770    3.1809 H         1 RES1    0.0000
     55 C31       -0.6779    3.4540   11.1682 C.3       1 RES1    0.0000
     56 H25       -1.6424    3.1168   11.2513 H         1 RES1    0.0000
     57 H26       -0.5461    4.1821   11.7890 H         1 RES1    0.0000
     58 H27       -0.0888    2.6831   11.4355 H         1 RES1    0.0000
     59 C32       -0.8070    7.2408    7.9241 C.3       1 RES1    0.0000
     60 H28       -1.7040    7.4575    7.5344 H         1 RES1    0.0000
     61 H29       -0.1103    7.6689    7.3367 H         1 RES1    0.0000
     62 H30       -0.6970    7.6964    8.7772 H         1 RES1    0.0000
@<TRIPOS>BOND
     1    1    2 ar
     2    2    3 ar
     3    3    4 ar
     4    4    5 1
     5    6    4 ar
     6    7    6 ar
     7    8    7 1
     8    9    2 ar
     9   10    9 ar
    10   11   10 ar
    11   12    1 ar
    12   13   12 ar
    13   14   13 ar
    14   15   14 1
    15   16   14 ar
    16   17    1 ar
    17   18   17 ar
    18   19   18 1
    19   20    3 ar
    20   21   20 1
    21   22   10 ar
    22   23   22 1
    23   24   22 ar
    24   25   24 1
    25   26   24 ar
    26   27   26 ar
    27   28   27 1
    28   29   27 ar
    29   30   29 ar
    30   31   30 1
    31   32   30 ar
    32   33   11 ar
    33   34    6 1
    34   35   34 1
    35   36   35 1
    36   37   35 1
    37   38   35 1
    38   39   34 1
    39   40   39 1
    40   41   39 1
    41   42   39 1
    42   43   34 1
    43   44   43 1
    44   45   43 1
    45   46   43 1
    46   47   13 1
    47   48   47 1
    48   49   47 1
    49   50   47 1
    50   51   16 1
    51   52   51 1
    52   53   51 1
    53   54   51 1
    54   55   29 1
    55   56   55 1
    56   57   55 1
    57   58   55 1
    58   59   32 1
    59   60   59 1
    60   61   59 1
    61   62   59 1
    62    7    9 ar
    63   11   12 ar
    64   16   17 ar
    65   18   20 ar
    66   26   33 ar
    67   32   33 ar
@<TRIPOS>SUBSTRUCTURE
     1 RES1 1

@<TRIPOS>CRYSIN
   8.2687    8.4703   16.9751  98.2723  91.1145 110.5735   2 1

