# MOL2 file generated by ConQuest
# Please check atom types

@<TRIPOS>MOLECULE
UHELIC
    72    82     1
SMALL
NO_CHARGES
****
Generated from CSD

@<TRIPOS>ATOM
      1 C1        -1.6929    2.8026   -1.9062 C.ar      1 RES1    0.0000
      2 C2        -0.4021    2.5299   -1.5072 C.ar      1 RES1    0.0000
      3 C3         0.0375    2.9432   -0.2556 C.ar      1 RES1    0.0000
      4 C4        -0.8266    3.5516    0.6205 C.ar      1 RES1    0.0000
      5 C5        -3.0794    4.3150    1.2068 C.ar      1 RES1    0.0000
      6 C6        -4.3760    4.4428    0.8790 C.ar      1 RES1    0.0000
      7 C7        -6.2586    4.1658   -0.6780 C.ar      1 RES1    0.0000
      8 C8        -6.7611    3.7755   -1.8741 C.ar      1 RES1    0.0000
      9 C9        -6.3948    3.0910   -4.2027 C.ar      1 RES1    0.0000
     10 C10       -5.5990    2.8456   -5.2514 C.ar      1 RES1    0.0000
     11 C11       -3.3676    2.9432   -6.3246 C.ar      1 RES1    0.0000
     12 C12       -2.0355    3.2072   -6.2485 C.ar      1 RES1    0.0000
     13 C13       -0.1218    4.2605   -5.0797 C.ar      1 RES1    0.0000
     14 C14        0.3597    4.9551   -4.0291 C.ar      1 RES1    0.0000
     15 C15        0.0103    6.3585   -2.0009 C.ar      1 RES1    0.0000
     16 C16       -0.8318    6.9454   -1.1346 C.ar      1 RES1    0.0000
     17 C17       -3.0779    7.7633   -0.5297 C.ar      1 RES1    0.0000
     18 C18       -4.3952    7.8954   -0.8224 C.ar      1 RES1    0.0000
     19 C19       -6.2890    7.7174   -2.4067 C.ar      1 RES1    0.0000
     20 C20       -6.7793    7.3716   -3.6271 C.ar      1 RES1    0.0000
     21 C21       -6.4286    6.6857   -5.9665 C.ar      1 RES1    0.0000
     22 C22       -5.6216    6.4058   -6.9958 C.ar      1 RES1    0.0000
     23 C23       -3.3615    6.4618   -8.0025 C.ar      1 RES1    0.0000
     24 C24       -2.0434    6.8005   -7.9245 C.ar      1 RES1    0.0000
     25 C25       -1.5214    7.2467   -6.6855 C.ar      1 RES1    0.0000
     26 C26       -2.3028    7.2640   -5.5597 C.ar      1 RES1    0.0000
     27 C27       -3.6511    6.8435   -5.5958 C.ar      1 RES1    0.0000
     28 C28       -4.1969    6.5264   -6.8650 C.ar      1 RES1    0.0000
     29 C29       -4.5071    6.8521   -4.4232 C.ar      1 RES1    0.0000
     30 C30       -5.9078    6.9468   -4.6573 C.ar      1 RES1    0.0000
     31 C31       -4.0588    6.9095   -3.0477 C.ar      1 RES1    0.0000
     32 C32       -4.9180    7.4964   -2.0877 C.ar      1 RES1    0.0000
     33 C33       -2.7385    6.4675   -2.6077 C.ar      1 RES1    0.0000
     34 C34       -2.2294    7.0430   -1.4029 C.ar      1 RES1    0.0000
     35 C35       -1.9030    5.5118   -3.2857 C.ar      1 RES1    0.0000
     36 C36       -0.5053    5.6152   -3.1091 C.ar      1 RES1    0.0000
     37 C37       -2.3959    4.4700   -4.1666 C.ar      1 RES1    0.0000
     38 C38       -1.5132    3.9936   -5.1812 C.ar      1 RES1    0.0000
     39 C39       -3.6871    3.8573   -4.0574 C.ar      1 RES1    0.0000
     40 C40       -4.2253    3.2230   -5.2124 C.ar      1 RES1    0.0000
     41 C41       -4.4626    3.7769   -2.8379 C.ar      1 RES1    0.0000
     42 C42       -5.8543    3.5516   -2.9745 C.ar      1 RES1    0.0000
     43 C43       -3.9468    3.8688   -1.4770 C.ar      1 RES1    0.0000
     44 C44       -4.8697    4.1802   -0.4341 C.ar      1 RES1    0.0000
     45 C45       -2.5815    3.5244   -1.0829 C.ar      1 RES1    0.0000
     46 C46       -2.1502    3.8157    0.2390 C.ar      1 RES1    0.0000
     47 H1        -1.9691    2.4251   -2.6925 H         1 RES1    0.0000
     48 H2         0.1173    2.1238   -2.2633 H         1 RES1    0.0000
     49 H3         0.8807    2.8270   -0.0195 H         1 RES1    0.0000
     50 H4        -0.6343    3.7597    1.6194 H         1 RES1    0.0000
     51 H5        -2.8761    4.4628    2.1560 H         1 RES1    0.0000
     52 H6        -5.0884    4.6638    1.6585 H         1 RES1    0.0000
     53 H7        -6.8052    4.3911    0.1561 H         1 RES1    0.0000
     54 H8        -7.6877    3.5301   -1.9901 H         1 RES1    0.0000
     55 H9        -7.4297    2.8700   -4.1949 H         1 RES1    0.0000
     56 H10       -5.9604    2.4108   -5.9021 H         1 RES1    0.0000
     57 H11       -3.8600    2.5973   -7.0533 H         1 RES1    0.0000
     58 H12       -1.4411    2.8843   -6.9070 H         1 RES1    0.0000
     59 H13        0.4128    3.9749   -5.7168 H         1 RES1    0.0000
     60 H14        1.2959    4.9794   -4.0096 H         1 RES1    0.0000
     61 H15        1.1611    6.4145   -1.9901 H         1 RES1    0.0000
     62 H16       -0.3745    7.4333   -0.4097 H         1 RES1    0.0000
     63 H17       -2.6234    8.1221    0.4195 H         1 RES1    0.0000
     64 H18       -5.0370    8.3230   -0.1951 H         1 RES1    0.0000
     65 H19       -6.7350    8.1364   -1.8145 H         1 RES1    0.0000
     66 H20       -7.8360    7.3902   -3.7852 H         1 RES1    0.0000
     67 H21       -7.3785    6.8162   -6.0680 H         1 RES1    0.0000
     68 H22       -5.9293    6.2996   -7.7752 H         1 RES1    0.0000
     69 H23       -3.9334    6.2853   -8.8776 H         1 RES1    0.0000
     70 H24       -1.5936    6.8306   -8.6337 H         1 RES1    0.0000
     71 H25       -0.8534    7.5481   -6.7021 H         1 RES1    0.0000
     72 H26       -1.8946    7.4907   -4.7315 H         1 RES1    0.0000
@<TRIPOS>BOND
     1    1    2 ar
     2    2    3 ar
     3    3    4 ar
     4    4   46 ar
     5    5    6 ar
     6    6   44 ar
     7    7    8 ar
     8    8   42 ar
     9    9   10 ar
    10   10   40 ar
    11   11   12 ar
    12   12   38 ar
    13   13   14 ar
    14   14   36 ar
    15   15   16 ar
    16   16   34 ar
    17   17   18 ar
    18   18   32 ar
    19   19   20 ar
    20   20   30 ar
    21   21   22 ar
    22   22   28 ar
    23   23   24 ar
    24   24   25 ar
    25   25   26 ar
    26   26   27 ar
    27   27   28 ar
    28   28   23 ar
    29   29   27 ar
    30   30   21 ar
    31   31   29 ar
    32   32   19 ar
    33   33   31 ar
    34   34   17 ar
    35   35   33 ar
    36   36   15 ar
    37   37   35 ar
    38   38   13 ar
    39   39   37 ar
    40   40   11 ar
    41   41   39 ar
    42   42    9 ar
    43   43   41 ar
    44   44    7 ar
    45   45    1 ar
    46   46    5 ar
    47   47    1 1
    48   48    2 1
    49   49    3 1
    50   50    4 1
    51   51    5 1
    52   52    6 1
    53   53    7 1
    54   54    8 1
    55   55    9 1
    56   56   10 1
    57   57   11 1
    58   58   12 1
    59   59   13 1
    60   60   14 1
    61   61   15 1
    62   62   16 1
    63   63   17 1
    64   64   18 1
    65   65   19 1
    66   66   20 1
    67   67   21 1
    68   68   22 1
    69   69   23 1
    70   70   24 1
    71   71   25 1
    72   72   26 1
    73   29   30 ar
    74   31   32 ar
    75   33   34 ar
    76   35   36 ar
    77   37   38 ar
    78   39   40 ar
    79   41   42 ar
    80   43   44 ar
    81   43   45 ar
    82   45   46 ar
@<TRIPOS>SUBSTRUCTURE
     1 RES1 1

@<TRIPOS>CRYSIN
  10.0100   14.3500   10.9200  90.0000 116.7000  90.0000   4 1

