# MOL2 file generated by ConQuest
# Please check atom types

@<TRIPOS>MOLECULE
UHIJIE
    88   100     1
SMALL
NO_CHARGES
****
Generated from CSD

@<TRIPOS>ATOM
      1 C1         5.1423    5.9436   17.6191 C.ar      1 RES1    0.0000
      2 C2         4.1008    5.0089   17.8659 C.ar      1 RES1    0.0000
      3 C3         4.1737    4.1945   18.9947 C.ar      1 RES1    0.0000
      4 H1         3.4885    3.5564   19.1515 H         1 RES1    0.0000
      5 C4         5.2270    4.2976   19.8936 C.ar      1 RES1    0.0000
      6 H2         5.2452    3.7524   20.6710 H         1 RES1    0.0000
      7 C5         6.2484    5.1946   19.6516 C.ar      1 RES1    0.0000
      8 H3         6.9733    5.2659   20.2611 H         1 RES1    0.0000
      9 C6         6.2158    5.9950   18.5128 C.ar      1 RES1    0.0000
     10 H4         6.9378    6.5874   18.3399 H         1 RES1    0.0000
     11 C7         5.1505    6.6949   16.3087 C.ar      1 RES1    0.0000
     12 C8         4.6977    8.0023   16.1221 C.ar      1 RES1    0.0000
     13 C9         4.5280    8.9621   17.2626 C.ar      1 RES1    0.0000
     14 C10        5.6087    9.1909   18.1267 C.ar      1 RES1    0.0000
     15 H5         6.4108    8.6950   18.0149 H         1 RES1    0.0000
     16 C11        5.5248   10.1317   19.1436 C.ar      1 RES1    0.0000
     17 H6         6.2580   10.2550   19.7353 H         1 RES1    0.0000
     18 C12        4.3797   10.8919   19.3005 C.ar      1 RES1    0.0000
     19 H7         4.3323   11.5441   19.9899 H         1 RES1    0.0000
     20 C13        3.2995   10.6999   18.4490 C.ar      1 RES1    0.0000
     21 H8         2.5163   11.2269   18.5511 H         1 RES1    0.0000
     22 C14        3.3613    9.7340   17.4437 C.ar      1 RES1    0.0000
     23 C15        2.2797    9.4843   16.4372 C.2       1 RES1    0.0000
     24 C16        2.6426   10.1784   15.1729 C.ar      1 RES1    0.0000
     25 C17        1.9549   11.3340   14.7958 C.ar      1 RES1    0.0000
     26 H9         1.1232   11.5421   15.2057 H         1 RES1    0.0000
     27 C18        2.4777   12.1819   13.8254 C.ar      1 RES1    0.0000
     28 H10        1.9970   12.9546   13.5557 H         1 RES1    0.0000
     29 C19        3.7075   11.8883   13.2549 C.ar      1 RES1    0.0000
     30 H11        4.0915   12.4878   12.6262 H         1 RES1    0.0000
     31 C20        4.3788   10.7252   13.5992 C.ar      1 RES1    0.0000
     32 H12        5.2153   10.5318   13.1934 H         1 RES1    0.0000
     33 C21        3.8461    9.8296   14.5353 C.ar      1 RES1    0.0000
     34 C22        4.4663    8.4891   14.7815 C.ar      1 RES1    0.0000
     35 C23        4.7071    7.6751   13.6843 C.ar      1 RES1    0.0000
     36 C24        5.2549    6.3690   13.8584 C.ar      1 RES1    0.0000
     37 C25        5.4969    5.4991   12.7599 C.ar      1 RES1    0.0000
     38 H13        5.2585    5.7751   11.8830 H         1 RES1    0.0000
     39 C26        6.0682    4.2685   12.9454 C.ar      1 RES1    0.0000
     40 H14        6.2052    3.6918   12.2039 H         1 RES1    0.0000
     41 C27        6.4520    3.8577   14.2341 C.ar      1 RES1    0.0000
     42 H15        6.9027    3.0290   14.3527 H         1 RES1    0.0000
     43 C28        6.1792    4.6459   15.3150 C.ar      1 RES1    0.0000
     44 H16        6.4267    4.3465   16.1828 H         1 RES1    0.0000
     45 C29        5.5326    5.9050   15.1723 C.ar      1 RES1    0.0000
     46 C30        4.3744    8.1058   12.2840 C.ar      1 RES1    0.0000
     47 C31        3.0538    8.0704   11.8414 C.ar      1 RES1    0.0000
     48 H17        2.3660    7.7857   12.4316 H         1 RES1    0.0000
     49 C32        2.7381    8.4470   10.5446 C.ar      1 RES1    0.0000
     50 H18        1.8350    8.4141   10.2517 H         1 RES1    0.0000
     51 C33        3.7251    8.8702    9.6759 C.ar      1 RES1    0.0000
     52 H19        3.5020    9.1375    8.7922 H         1 RES1    0.0000
     53 C34        5.0371    8.9005   10.0993 C.ar      1 RES1    0.0000
     54 H20        5.7226    9.1860    9.5064 H         1 RES1    0.0000
     55 C35        5.3562    8.5129   11.3969 C.ar      1 RES1    0.0000
     56 H21        6.2626    8.5273   11.6801 H         1 RES1    0.0000
     57 C36        2.9489    4.9571   16.9014 C.2       1 RES1    0.0000
     58 C37        2.8996    3.9961   15.8155 C.ar      1 RES1    0.0000
     59 C38        3.6909    2.8277   15.8555 C.ar      1 RES1    0.0000
     60 H22        4.2977    2.6996   16.5761 H         1 RES1    0.0000
     61 C39        3.5992    1.8728   14.8728 C.ar      1 RES1    0.0000
     62 H23        4.1379    1.0912   14.9138 H         1 RES1    0.0000
     63 C40        2.7102    2.0573   13.8124 C.ar      1 RES1    0.0000
     64 H24        2.6477    1.3983   13.1313 H         1 RES1    0.0000
     65 C41        1.9230    3.1844   13.7445 C.ar      1 RES1    0.0000
     66 H25        1.3210    3.2897   13.0174 H         1 RES1    0.0000
     67 C42        1.9938    4.1864   14.7345 C.ar      1 RES1    0.0000
     68 C43        1.2463    5.4326   14.6455 C.ar      1 RES1    0.0000
     69 C44        0.5445    5.8472   13.4938 C.ar      1 RES1    0.0000
     70 H26        0.4623    5.2538   12.7566 H         1 RES1    0.0000
     71 C45       -0.0219    7.0982   13.4247 C.ar      1 RES1    0.0000
     72 H27       -0.5353    7.3351   12.6614 H         1 RES1    0.0000
     73 C46        0.1439    8.0306   14.4604 C.ar      1 RES1    0.0000
     74 H28       -0.1943    8.9132   14.3693 H         1 RES1    0.0000
     75 C47        0.8021    7.6535   15.6114 C.ar      1 RES1    0.0000
     76 C48        1.3376    8.5523   16.6724 C.2       1 RES1    0.0000
     77 C49        1.2038    7.9914   18.0360 C.ar      1 RES1    0.0000
     78 C50        0.6722    8.6819   19.1183 C.ar      1 RES1    0.0000
     79 H29        0.3825    9.5800   19.0128 H         1 RES1    0.0000
     80 C51        0.5651    8.0591   20.3524 C.ar      1 RES1    0.0000
     81 H30        0.1879    8.5273   21.0871 H         1 RES1    0.0000
     82 C52        1.0074    6.7521   20.5192 C.ar      1 RES1    0.0000
     83 H31        0.9580    6.3389   21.3728 H         1 RES1    0.0000
     84 C53        1.5216    6.0529   19.4353 C.ar      1 RES1    0.0000
     85 H32        1.8022    5.1527   19.5448 H         1 RES1    0.0000
     86 C54        1.6283    6.6689   18.1814 C.ar      1 RES1    0.0000
     87 C55        1.9973    5.9412   16.9525 C.2       1 RES1    0.0000
     88 C56        1.2834    6.3138   15.7443 C.ar      1 RES1    0.0000
@<TRIPOS>BOND
     1    1    2 ar
     2    2    3 ar
     3    3    4 1
     4    5    3 ar
     5    6    5 1
     6    7    5 ar
     7    8    7 1
     8    9    1 ar
     9   10    9 1
    10   11    1 1
    11   12   11 ar
    12   13   12 1
    13   14   13 ar
    14   15   14 1
    15   16   14 ar
    16   17   16 1
    17   18   16 ar
    18   19   18 1
    19   20   18 ar
    20   21   20 1
    21   22   13 ar
    22   23   22 1
    23   24   23 1
    24   25   24 ar
    25   26   25 1
    26   27   25 ar
    27   28   27 1
    28   29   27 ar
    29   30   29 1
    30   31   29 ar
    31   32   31 1
    32   33   24 ar
    33   34   12 ar
    34   35   34 ar
    35   36   35 ar
    36   37   36 ar
    37   38   37 1
    38   39   37 ar
    39   40   39 1
    40   41   39 ar
    41   42   41 1
    42   43   41 ar
    43   44   43 1
    44   45   11 ar
    45   46   35 1
    46   47   46 ar
    47   48   47 1
    48   49   47 ar
    49   50   49 1
    50   51   49 ar
    51   52   51 1
    52   53   51 ar
    53   54   53 1
    54   55   46 ar
    55   56   55 1
    56   57    2 1
    57   58   57 1
    58   59   58 ar
    59   60   59 1
    60   61   59 ar
    61   62   61 1
    62   63   61 ar
    63   64   63 1
    64   65   63 ar
    65   66   65 1
    66   67   58 ar
    67   68   67 1
    68   69   68 ar
    69   70   69 1
    70   71   69 ar
    71   72   71 1
    72   73   71 ar
    73   74   73 1
    74   75   73 ar
    75   76   23 2
    76   77   76 1
    77   78   77 ar
    78   79   78 1
    79   80   78 ar
    80   81   80 1
    81   82   80 ar
    82   83   82 1
    83   84   82 ar
    84   85   84 1
    85   86   77 ar
    86   87   57 2
    87   88   68 ar
    88    7    9 ar
    89   20   22 ar
    90   31   33 ar
    91   33   34 1
    92   36   45 ar
    93   43   45 ar
    94   53   55 ar
    95   65   67 ar
    96   75   76 1
    97   75   88 ar
    98   84   86 ar
    99   86   87 1
   100   87   88 1
@<TRIPOS>SUBSTRUCTURE
     1 RES1 1

@<TRIPOS>CRYSIN
   8.5137   20.2068   21.1413  90.0000 101.7000  90.0000  14 1

