# MOL2 file generated by ConQuest
# Please check atom types

@<TRIPOS>MOLECULE
UKIMUY
   272   288     4
SMALL
NO_CHARGES
****
Generated from CSD

@<TRIPOS>ATOM
      1 C1         9.6621    7.4918    3.4159 C.ar      1 RES1    0.0000
      2 C2         9.2218    7.7926    4.6287 C.ar      1 RES1    0.0000
      3 H1         8.5213    7.2690    4.9990 H         1 RES1    0.0000
      4 C3         9.7548    8.8672    5.3962 C.ar      1 RES1    0.0000
      5 H2         9.3992    9.0444    6.2575 H         1 RES1    0.0000
      6 C4        10.7716    9.6525    4.9132 C.ar      1 RES1    0.0000
      7 C5        11.2377    9.4102    3.5608 C.ar      1 RES1    0.0000
      8 C6        10.6983    8.3209    2.8121 C.ar      1 RES1    0.0000
      9 C7        11.1616    8.0917    1.5214 C.ar      1 RES1    0.0000
     10 H3        10.8118    7.3568    1.0331 H         1 RES1    0.0000
     11 C8        12.1203    8.9030    0.9231 C.ar      1 RES1    0.0000
     12 C9        12.6444   10.0167    1.6556 C.ar      1 RES1    0.0000
     13 C10       12.1641   10.2492    2.9517 C.ar      1 RES1    0.0000
     14 H4        12.4827   11.0052    3.4293 H         1 RES1    0.0000
     15 C11       13.6089   10.8523    1.0304 C.ar      1 RES1    0.0000
     16 H5        13.9185   11.6246    1.4892 H         1 RES1    0.0000
     17 C12       14.1010   10.5776   -0.2066 C.ar      1 RES1    0.0000
     18 H6        14.7751   11.1287   -0.5876 H         1 RES1    0.0000
     19 C13       13.6048    9.4720   -0.9177 C.ar      1 RES1    0.0000
     20 H7        13.9387    9.2916   -1.7898 H         1 RES1    0.0000
     21 C14       12.6639    8.6607   -0.3918 C.ar      1 RES1    0.0000
     22 H8        12.3534    7.9177   -0.8962 H         1 RES1    0.0000
     23 C15        9.1011    6.3326    2.6565 C.ar      1 RES1    0.0000
     24 C16        7.8678    6.3927    2.0554 C.ar      1 RES1    0.0000
     25 H9         7.3833    7.2089    2.0796 H         1 RES1    0.0000
     26 C17        7.3120    5.3116    1.4195 C.ar      1 RES1    0.0000
     27 H10        6.4687    5.4124    0.9928 H         1 RES1    0.0000
     28 C18        7.9368    4.0889    1.3765 C.ar      1 RES1    0.0000
     29 C19        9.1922    4.0369    1.9400 C.ar      1 RES1    0.0000
     30 H11        9.6847    3.2256    1.9052 H         1 RES1    0.0000
     31 C20        9.7542    5.1490    2.5572 C.ar      1 RES1    0.0000
     32 H12       10.6285    5.0758    2.9248 H         1 RES1    0.0000
     33 C21        7.3091    2.8566    0.7218 C.3       1 RES1    0.0000
     34 C22        6.7386    1.9835    1.8595 C.3       1 RES1    0.0000
     35 H13        7.4647    1.7136    2.4579 H         1 RES1    0.0000
     36 H14        6.3160    1.1852    1.4785 H         1 RES1    0.0000
     37 H15        6.0724    2.4956    2.3613 H         1 RES1    0.0000
     38 C23        6.1725    3.2500   -0.2173 C.3       1 RES1    0.0000
     39 H16        5.4899    3.7443    0.2817 H         1 RES1    0.0000
     40 H17        5.7740    2.4420   -0.6037 H         1 RES1    0.0000
     41 H18        6.5246    3.8158   -0.9365 H         1 RES1    0.0000
     42 C24        8.3373    2.0664   -0.0429 C.3       1 RES1    0.0000
     43 H19        9.0728    1.8209    0.5554 H         1 RES1    0.0000
     44 H20        8.6862    2.6111   -0.7808 H         1 RES1    0.0000
     45 H21        7.9249    1.2551   -0.4052 H         1 RES1    0.0000
     46 C25       11.3735   10.7190    5.7369 C.ar      1 RES1    0.0000
     47 C26       12.7007   10.6784    6.0911 C.ar      1 RES1    0.0000
     48 H22       13.2281    9.9354    5.8201 H         1 RES1    0.0000
     49 C27       13.2850   11.6848    6.8264 C.ar      1 RES1    0.0000
     50 H23       14.2119   11.6327    7.0303 H         1 RES1    0.0000
     51 C28       12.5557   12.7659    7.2745 C.ar      1 RES1    0.0000
     52 C29       11.2142   12.7627    6.9793 C.ar      1 RES1    0.0000
     53 H24       10.6719   13.4667    7.3147 H         1 RES1    0.0000
     54 C30       10.6137   11.7628    6.2092 C.ar      1 RES1    0.0000
     55 H25        9.6861   11.8035    6.0133 H         1 RES1    0.0000
     56 C31       13.2144   13.8650    8.1278 C.3       1 RES1    0.0000
     57 C32       14.6300   14.1479    7.6823 C.3       1 RES1    0.0000
     58 H26       15.1594   13.3252    7.7333 H         1 RES1    0.0000
     59 H27       15.0264   14.8275    8.2673 H         1 RES1    0.0000
     60 H28       14.6244   14.4747    6.7593 H         1 RES1    0.0000
     61 C33       12.4740   15.1803    7.9775 C.3       1 RES1    0.0000
     62 H29       11.5413   15.0632    8.2593 H         1 RES1    0.0000
     63 H30       12.5002   15.4664    7.0410 H         1 RES1    0.0000
     64 H31       12.9005   15.8615    8.5410 H         1 RES1    0.0000
     65 C34       13.1973   13.4569    9.5714 C.3       1 RES1    0.0000
     66 H32       13.7076   12.6261    9.6814 H         1 RES1    0.0000
     67 H33       12.2724   13.3122    9.8612 H         1 RES1    0.0000
     68 H34       13.6029   14.1641   10.1161 H         1 RES1    0.0000
     69 C35        5.8881    2.7444    6.3648 C.ar      2 RES2    0.0000
     70 C36        6.8963    3.4971    5.8416 C.ar      2 RES2    0.0000
     71 H35        7.2286    3.2988    4.9749 H         2 RES2    0.0000
     72 C37        7.4574    4.5734    6.5714 C.ar      2 RES2    0.0000
     73 H36        8.1639    5.0774    6.1850 H         2 RES2    0.0000
     74 C38        7.0008    4.9018    7.8229 C.ar      2 RES2    0.0000
     75 C39        5.9877    4.1068    8.4337 C.ar      2 RES2    0.0000
     76 C40        5.4181    2.9834    7.6928 C.ar      2 RES2    0.0000
     77 C41        4.4745    2.1819    8.3379 C.ar      2 RES2    0.0000
     78 H37        4.1143    1.4340    7.8755 H         2 RES2    0.0000
     79 C42        4.0445    2.4436    9.6412 C.ar      2 RES2    0.0000
     80 C43        4.5563    3.5475   10.3504 C.ar      2 RES2    0.0000
     81 C44        5.5247    4.3377    9.7353 C.ar      2 RES2    0.0000
     82 H38        5.8876    5.0677   10.2234 H         2 RES2    0.0000
     83 C45        4.1129    3.8223   11.6724 C.ar      2 RES2    0.0000
     84 H39        4.4788    4.5539   12.1527 H         2 RES2    0.0000
     85 C46        3.1595    3.0305   12.2493 C.ar      2 RES2    0.0000
     86 H40        2.8534    3.2175   13.1295 H         2 RES2    0.0000
     87 C47        2.6296    1.9282   11.5302 C.ar      2 RES2    0.0000
     88 H41        1.9664    1.3852   11.9381 H         2 RES2    0.0000
     89 C48        3.0407    1.6323   10.2825 C.ar      2 RES2    0.0000
     90 H42        2.6696    0.8877    9.8236 H         2 RES2    0.0000
     91 C49        5.2811    1.6323    5.5448 C.ar      2 RES2    0.0000
     92 C50        6.0660    0.6324    4.9974 C.ar      2 RES2    0.0000
     93 H43        7.0053    0.6438    5.1386 H         2 RES2    0.0000
     94 C51        5.5007   -0.3869    4.2477 C.ar      2 RES2    0.0000
     95 H44        6.0597   -1.0763    3.9096 H         2 RES2    0.0000
     96 C52        4.1242   -0.4260    3.9740 C.ar      2 RES2    0.0000
     97 C53        3.3835    0.6227    4.4597 C.ar      2 RES2    0.0000
     98 H45        2.4568    0.6585    4.2531 H         2 RES2    0.0000
     99 C54        3.9311    1.6291    5.2378 C.ar      2 RES2    0.0000
    100 H46        3.3741    2.3265    5.5652 H         2 RES2    0.0000
    101 C55        3.5162   -1.5413    3.1234 C.3       2 RES2    0.0000
    102 C56        3.7174   -1.1966    1.6476 C.3       2 RES2    0.0000
    103 H47        4.6740   -1.1007    1.4624 H         2 RES2    0.0000
    104 H48        3.2585   -0.3544    1.4463 H         2 RES2    0.0000
    105 H49        3.3459   -1.9120    1.0921 H         2 RES2    0.0000
    106 C57        4.2195   -2.8777    3.4078 C.3       2 RES2    0.0000
    107 H50        5.1776   -2.7899    3.2200 H         2 RES2    0.0000
    108 H51        3.8377   -3.5752    2.8336 H         2 RES2    0.0000
    109 H52        4.0923   -3.1216    4.3470 H         2 RES2    0.0000
    110 C58        2.0115   -1.7039    3.4132 C.3       2 RES2    0.0000
    111 H53        1.6473   -2.4225    2.8551 H         2 RES2    0.0000
    112 H54        1.5469   -0.8649    3.2092 H         2 RES2    0.0000
    113 H55        1.8814   -1.9266    4.3577 H         2 RES2    0.0000
    114 C59        7.6049    6.0513    8.5348 C.ar      2 RES2    0.0000
    115 C60        6.9538    7.2609    8.6805 C.ar      2 RES2    0.0000
    116 H56        6.0758    7.3536    8.3290 H         2 RES2    0.0000
    117 C61        7.5323    8.3356    9.3138 C.ar      2 RES2    0.0000
    118 H57        7.0546    9.1534    9.3701 H         2 RES2    0.0000
    119 C62        8.7916    8.2494    9.8730 C.ar      2 RES2    0.0000
    120 C63        9.4341    7.0479    9.7592 C.ar      2 RES2    0.0000
    121 H58       10.2948    6.9488   10.1483 H         2 RES2    0.0000
    122 C64        8.8725    5.9733    9.0938 C.ar      2 RES2    0.0000
    123 H59        9.3648    5.1636    9.0186 H         2 RES2    0.0000
    124 C65        9.4674    9.4541   10.5481 C.3       2 RES2    0.0000
    125 C66        8.4118   10.3044   11.3156 C.3       2 RES2    0.0000
    126 H60        8.8536   11.0702   11.7368 H         2 RES2    0.0000
    127 H61        7.9873    9.7517   12.0052 H         2 RES2    0.0000
    128 H62        7.7297   10.6231   10.6877 H         2 RES2    0.0000
    129 C67       10.5138    9.0119   11.5463 C.3       2 RES2    0.0000
    130 H63       11.2002    8.4835   11.0875 H         2 RES2    0.0000
    131 H64       10.0925    8.4673   12.2413 H         2 RES2    0.0000
    132 H65       10.9295    9.8004   11.9542 H         2 RES2    0.0000
    133 C68       10.1311   10.3028    9.4882 C.3       2 RES2    0.0000
    134 H66       10.7910    9.7630    9.0052 H         2 RES2    0.0000
    135 H67       10.5784   11.0637    9.9149 H         2 RES2    0.0000
    136 H68        9.4537   10.6296    8.8603 H         2 RES2    0.0000
    137 C69       10.8811    1.3332    4.8944 C.ar      3 RES3    0.0000
    138 C70       10.0548    0.4162    5.4820 C.ar      3 RES3    0.0000
    139 H69        9.8495    0.5105    6.4051 H         3 RES3    0.0000
    140 C71        9.4940   -0.6731    4.7629 C.ar      3 RES3    0.0000
    141 H70        8.9274   -1.2795    5.2217 H         3 RES3    0.0000
    142 C72        9.7344   -0.8763    3.4588 C.ar      3 RES3    0.0000
    143 C73       10.6480    0.0228    2.7746 C.ar      3 RES3    0.0000
    144 C74       11.2084    1.1104    3.4982 C.ar      3 RES3    0.0000
    145 C75       12.1200    1.9640    2.8390 C.ar      3 RES3    0.0000
    146 H71       12.4799    2.7070    3.3058 H         3 RES3    0.0000
    147 C76       12.5077    1.7445    1.5161 C.ar      3 RES3    0.0000
    148 C77       11.9233    0.6341    0.7969 C.ar      3 RES3    0.0000
    149 C78       11.0125   -0.1967    1.4463 C.ar      3 RES3    0.0000
    150 H72       10.6317   -0.9283    0.9740 H         3 RES3    0.0000
    151 C79       12.3490    0.4097   -0.5554 C.ar      3 RES3    0.0000
    152 H73       11.9933   -0.3235   -1.0438 H         3 RES3    0.0000
    153 C80       13.2475    1.2242   -1.1431 C.ar      3 RES3    0.0000
    154 H74       13.4950    1.0633   -2.0447 H         3 RES3    0.0000
    155 C81       13.8340    2.3152   -0.4481 C.ar      3 RES3    0.0000
    156 H75       14.4867    2.8598   -0.8721 H         3 RES3    0.0000
    157 C82       13.4494    2.5753    0.8372 C.ar      3 RES3    0.0000
    158 H76       13.8175    3.3248    1.2907 H         3 RES3    0.0000
    159 C83       11.4331    2.4712    5.6613 C.ar      3 RES3    0.0000
    160 C84       12.5425    2.3217    6.4856 C.ar      3 RES3    0.0000
    161 H77       12.9591    1.4714    6.5661 H         3 RES3    0.0000
    162 C85       13.0467    3.3996    7.1859 C.ar      3 RES3    0.0000
    163 H78       13.8005    3.2646    7.7494 H         3 RES3    0.0000
    164 C86       12.5053    4.6563    7.1084 C.ar      3 RES3    0.0000
    165 C87       11.4388    4.8222    6.2682 C.ar      3 RES3    0.0000
    166 H79       11.0630    5.6871    6.1528 H         3 RES3    0.0000
    167 C88       10.8924    3.7361    5.5759 C.ar      3 RES3    0.0000
    168 H80       10.1278    3.8743    5.0285 H         3 RES3    0.0000
    169 C89       13.1371    5.8058    7.9158 C.3       3 RES3    0.0000
    170 C90       12.9701    5.5229    9.4077 C.3       3 RES3    0.0000
    171 H81       12.0170    5.4563    9.6224 H         3 RES3    0.0000
    172 H82       13.3723    6.2513    9.9229 H         3 RES3    0.0000
    173 H83       13.4154    4.6791    9.6304 H         3 RES3    0.0000
    174 C91       12.5037    7.1634    7.5455 C.3       3 RES3    0.0000
    175 H84       12.6113    7.3243    6.5849 H         3 RES3    0.0000
    176 H85       12.9470    7.8787    8.0500 H         3 RES3    0.0000
    177 H86       11.5496    7.1504    7.7709 H         3 RES3    0.0000
    178 C92       14.6281    5.9245    7.5911 C.3       3 RES3    0.0000
    179 H87       14.7398    6.1245    6.6385 H         3 RES3    0.0000
    180 H88       15.0765    5.0791    7.8031 H         3 RES3    0.0000
    181 H89       15.0215    6.6447    8.1251 H         3 RES3    0.0000
    182 C93        9.0796   -2.0128    2.7153 C.ar      3 RES3    0.0000
    183 C94        8.1247   -1.7754    1.7576 C.ar      3 RES3    0.0000
    184 H90        7.9104   -0.8796    1.5241 H         3 RES3    0.0000
    185 C95        7.4677   -2.8208    1.1270 C.ar      3 RES3    0.0000
    186 H91        6.7950   -2.6208    0.4857 H         3 RES3    0.0000
    187 C96        7.7582   -4.1572    1.4007 C.ar      3 RES3    0.0000
    188 C97        8.7618   -4.3751    2.3425 C.ar      3 RES3    0.0000
    189 H92        9.0160   -5.2660    2.5518 H         3 RES3    0.0000
    190 C98        9.4023   -3.3150    2.9865 C.ar      3 RES3    0.0000
    191 H93       10.0773   -3.5004    3.6278 H         3 RES3    0.0000
    192 C99        7.0900   -5.3359    0.6896 C.3       3 RES3    0.0000
    193 C100       6.1482   -4.8531   -0.4266 C.3       3 RES3    0.0000
    194 H94        5.4576   -4.2727   -0.0456 H         3 RES3    0.0000
    195 H95        5.7246   -5.6270   -0.8533 H         3 RES3    0.0000
    196 H96        6.6622   -4.3523   -1.0948 H         3 RES3    0.0000
    197 C101       8.1366   -6.2448    0.0751 C.3       3 RES3    0.0000
    198 H97        8.7428   -6.5634    0.7755 H         3 RES3    0.0000
    199 H98        8.6463   -5.7473   -0.5984 H         3 RES3    0.0000
    200 H99        7.6950   -7.0105   -0.3488 H         3 RES3    0.0000
    201 C102       6.2833   -6.1293    1.7307 C.3       3 RES3    0.0000
    202 H100       6.8829   -6.4415    2.4391 H         3 RES3    0.0000
    203 H101       5.8603   -6.9000    1.2960 H         3 RES3    0.0000
    204 H102       5.5922   -5.5522    2.1171 H         3 RES3    0.0000
    205 C103       6.7589   12.8667    7.6797 C.ar      4 RES4    0.0000
    206 C104       7.0168   12.6716    6.3353 C.ar      4 RES4    0.0000
    207 H103       7.5702   13.2943    5.8792 H         4 RES4    0.0000
    208 C105       6.4829   11.5775    5.6216 C.ar      4 RES4    0.0000
    209 H104       6.6963   11.4750    4.7012 H         4 RES4    0.0000
    210 C106       5.6778   10.6735    6.2119 C.ar      4 RES4    0.0000
    211 C107       5.3267   10.8393    7.5930 C.ar      4 RES4    0.0000
    212 C108       5.8900   11.9579    8.3398 C.ar      4 RES4    0.0000
    213 C109       5.4833   12.1514    9.6760 C.ar      4 RES4    0.0000
    214 H105       5.8434   12.8797   10.1698 H         4 RES4    0.0000
    215 C110       4.5608   11.2978   10.2959 C.ar      4 RES4    0.0000
    216 C111       4.0500   10.1874    9.5741 C.ar      4 RES4    0.0000
    217 C112       4.4230    9.9874    8.2432 C.ar      4 RES4    0.0000
    218 H106       4.0546    9.2542    7.7655 H         4 RES4    0.0000
    219 C113       3.0811    9.3403   10.2100 C.ar      4 RES4    0.0000
    220 H107       2.7055    8.6087    9.7324 H         4 RES4    0.0000
    221 C114       2.7028    9.5810   11.4900 C.ar      4 RES4    0.0000
    222 H108       2.0871    8.9924   11.9113 H         4 RES4    0.0000
    223 C115       3.2031   10.6800   12.2091 C.ar      4 RES4    0.0000
    224 H109       2.8944   10.8491   13.0919 H         4 RES4    0.0000
    225 C116       4.1409   11.5157   11.6349 C.ar      4 RES4    0.0000
    226 H110       4.5050   12.2359   12.1366 H         4 RES4    0.0000
    227 C117       7.3922   14.0227    8.3827 C.ar      4 RES4    0.0000
    228 C118       7.0428   15.3494    8.0902 C.ar      4 RES4    0.0000
    229 H111       6.3630   15.5233    7.4489 H         4 RES4    0.0000
    230 C119       7.6706   16.3980    8.7154 C.ar      4 RES4    0.0000
    231 H112       7.4221   17.2841    8.4793 H         4 RES4    0.0000
    232 C120       8.6509   16.2192    9.6814 C.ar      4 RES4    0.0000
    233 C121       9.0013   14.9234    9.9605 C.ar      4 RES4    0.0000
    234 H113       9.6826   14.7576   10.5991 H         4 RES4    0.0000
    235 C122       8.3827   13.8341    9.3245 C.ar      4 RES4    0.0000
    236 H114       8.6501   12.9497    9.5472 H         4 RES4    0.0000
    237 C123       9.3197   17.4272   10.3415 C.3       4 RES4    0.0000
    238 C124       9.9925   18.3067    9.3138 C.3       4 RES4    0.0000
    239 H115      10.6504   17.7800    8.8120 H         4 RES4    0.0000
    240 H116      10.4450   19.0497    9.7646 H         4 RES4    0.0000
    241 H117       9.3192   18.6612    8.6940 H         4 RES4    0.0000
    242 C125       8.2461   18.2677   11.0955 C.3       4 RES4    0.0000
    243 H118       8.6733   19.0465   11.5088 H         4 RES4    0.0000
    244 H119       7.8274   17.7166   11.7878 H         4 RES4    0.0000
    245 H120       7.5635   18.5701   10.4596 H         4 RES4    0.0000
    246 C126      10.3395   17.0240   11.3746 C.3       4 RES4    0.0000
    247 H121      11.0419   16.4907   10.9506 H         4 RES4    0.0000
    248 H122       9.9023   16.4939   12.0749 H         4 RES4    0.0000
    249 H123      10.7357   17.8271   11.7744 H         4 RES4    0.0000
    250 C127       5.1164    9.5354    5.4284 C.ar      4 RES4    0.0000
    251 C128       5.6528    8.2754    5.4793 C.ar      4 RES4    0.0000
    252 H124       6.4151    8.1307    6.0267 H         4 RES4    0.0000
    253 C129       5.1341    7.1975    4.7683 C.ar      4 RES4    0.0000
    254 H125       5.5473    6.3439    4.8327 H         4 RES4    0.0000
    255 C130       4.0109    7.3650    3.9676 C.ar      4 RES4    0.0000
    256 C131       3.4798    8.6299    3.9096 C.ar      4 RES4    0.0000
    257 H126       2.7176    8.7794    3.3622 H         4 RES4    0.0000
    258 C132       4.0109    9.6883    4.6153 C.ar      4 RES4    0.0000
    259 H127       3.6059   10.5451    4.5375 H         4 RES4    0.0000
    260 C133       3.3934    6.2123    3.1744 C.3       4 RES4    0.0000
    261 C134       4.0837    4.8823    3.4588 C.3       4 RES4    0.0000
    262 H128       5.0369    4.9571    3.2441 H         4 RES4    0.0000
    263 H129       3.6800    4.1800    2.9060 H         4 RES4    0.0000
    264 H130       3.9783    4.6547    4.4060 H         4 RES4    0.0000
    265 C135       1.8789    6.1017    3.5259 C.3       4 RES4    0.0000
    266 H131       1.4758    5.3733    3.0080 H         4 RES4    0.0000
    267 H132       1.4311    6.9455    3.3058 H         4 RES4    0.0000
    268 H133       1.7776    5.9164    4.4811 H         4 RES4    0.0000
    269 C136       3.5298    6.5374    1.6798 C.3       4 RES4    0.0000
    270 H134       4.4767    6.6561    1.4544 H         4 RES4    0.0000
    271 H135       3.0425    7.3633    1.4785 H         4 RES4    0.0000
    272 H136       3.1586    5.8026    1.1485 H         4 RES4    0.0000
@<TRIPOS>BOND
     1    1    2 ar
     2    2    3 1
     3    4    2 ar
     4    5    4 1
     5    6    4 ar
     6    7    6 ar
     7    8    1 ar
     8    9    8 ar
     9   10    9 1
    10   11    9 ar
    11   12   11 ar
    12   13    7 ar
    13   14   13 1
    14   15   12 ar
    15   16   15 1
    16   17   15 ar
    17   18   17 1
    18   19   17 ar
    19   20   19 1
    20   21   11 ar
    21   22   21 1
    22   23    1 1
    23   24   23 ar
    24   25   24 1
    25   26   24 ar
    26   27   26 1
    27   28   26 ar
    28   29   28 ar
    29   30   29 1
    30   31   23 ar
    31   32   31 1
    32   33   28 1
    33   34   33 1
    34   35   34 1
    35   36   34 1
    36   37   34 1
    37   38   33 1
    38   39   38 1
    39   40   38 1
    40   41   38 1
    41   42   33 1
    42   43   42 1
    43   44   42 1
    44   45   42 1
    45   46    6 1
    46   47   46 ar
    47   48   47 1
    48   49   47 ar
    49   50   49 1
    50   51   49 ar
    51   52   51 ar
    52   53   52 1
    53   54   46 ar
    54   55   54 1
    55   56   51 1
    56   57   56 1
    57   58   57 1
    58   59   57 1
    59   60   57 1
    60   61   56 1
    61   62   61 1
    62   63   61 1
    63   64   61 1
    64   65   56 1
    65   66   65 1
    66   67   65 1
    67   68   65 1
    68   69   70 ar
    69   70   71 1
    70   72   70 ar
    71   73   72 1
    72   74   72 ar
    73   75   74 ar
    74   76   69 ar
    75   77   76 ar
    76   78   77 1
    77   79   77 ar
    78   80   79 ar
    79   81   75 ar
    80   82   81 1
    81   83   80 ar
    82   84   83 1
    83   85   83 ar
    84   86   85 1
    85   87   85 ar
    86   88   87 1
    87   89   79 ar
    88   90   89 1
    89   91   69 1
    90   92   91 ar
    91   93   92 1
    92   94   92 ar
    93   95   94 1
    94   96   94 ar
    95   97   96 ar
    96   98   97 1
    97   99   91 ar
    98  100   99 1
    99  101   96 1
   100  102  101 1
   101  103  102 1
   102  104  102 1
   103  105  102 1
   104  106  101 1
   105  107  106 1
   106  108  106 1
   107  109  106 1
   108  110  101 1
   109  111  110 1
   110  112  110 1
   111  113  110 1
   112  114   74 1
   113  115  114 ar
   114  116  115 1
   115  117  115 ar
   116  118  117 1
   117  119  117 ar
   118  120  119 ar
   119  121  120 1
   120  122  114 ar
   121  123  122 1
   122  124  119 1
   123  125  124 1
   124  126  125 1
   125  127  125 1
   126  128  125 1
   127  129  124 1
   128  130  129 1
   129  131  129 1
   130  132  129 1
   131  133  124 1
   132  134  133 1
   133  135  133 1
   134  136  133 1
   135  137  138 ar
   136  138  139 1
   137  140  138 ar
   138  141  140 1
   139  142  140 ar
   140  143  142 ar
   141  144  137 ar
   142  145  144 ar
   143  146  145 1
   144  147  145 ar
   145  148  147 ar
   146  149  143 ar
   147  150  149 1
   148  151  148 ar
   149  152  151 1
   150  153  151 ar
   151  154  153 1
   152  155  153 ar
   153  156  155 1
   154  157  147 ar
   155  158  157 1
   156  159  137 1
   157  160  159 ar
   158  161  160 1
   159  162  160 ar
   160  163  162 1
   161  164  162 ar
   162  165  164 ar
   163  166  165 1
   164  167  159 ar
   165  168  167 1
   166  169  164 1
   167  170  169 1
   168  171  170 1
   169  172  170 1
   170  173  170 1
   171  174  169 1
   172  175  174 1
   173  176  174 1
   174  177  174 1
   175  178  169 1
   176  179  178 1
   177  180  178 1
   178  181  178 1
   179  182  142 1
   180  183  182 ar
   181  184  183 1
   182  185  183 ar
   183  186  185 1
   184  187  185 ar
   185  188  187 ar
   186  189  188 1
   187  190  182 ar
   188  191  190 1
   189  192  187 1
   190  193  192 1
   191  194  193 1
   192  195  193 1
   193  196  193 1
   194  197  192 1
   195  198  197 1
   196  199  197 1
   197  200  197 1
   198  201  192 1
   199  202  201 1
   200  203  201 1
   201  204  201 1
   202  205  206 ar
   203  206  207 1
   204  208  206 ar
   205  209  208 1
   206  210  208 ar
   207  211  210 ar
   208  212  205 ar
   209  213  212 ar
   210  214  213 1
   211  215  213 ar
   212  216  215 ar
   213  217  211 ar
   214  218  217 1
   215  219  216 ar
   216  220  219 1
   217  221  219 ar
   218  222  221 1
   219  223  221 ar
   220  224  223 1
   221  225  215 ar
   222  226  225 1
   223  227  205 1
   224  228  227 ar
   225  229  228 1
   226  230  228 ar
   227  231  230 1
   228  232  230 ar
   229  233  232 ar
   230  234  233 1
   231  235  227 ar
   232  236  235 1
   233  237  232 1
   234  238  237 1
   235  239  238 1
   236  240  238 1
   237  241  238 1
   238  242  237 1
   239  243  242 1
   240  244  242 1
   241  245  242 1
   242  246  237 1
   243  247  246 1
   244  248  246 1
   245  249  246 1
   246  250  210 1
   247  251  250 ar
   248  252  251 1
   249  253  251 ar
   250  254  253 1
   251  255  253 ar
   252  256  255 ar
   253  257  256 1
   254  258  250 ar
   255  259  258 1
   256  260  255 1
   257  261  260 1
   258  262  261 1
   259  263  261 1
   260  264  261 1
   261  265  260 1
   262  266  265 1
   263  267  265 1
   264  268  265 1
   265  269  260 1
   266  270  269 1
   267  271  269 1
   268  272  269 1
   269    7    8 ar
   270   12   13 ar
   271   19   21 ar
   272   29   31 ar
   273   52   54 ar
   274   75   76 ar
   275   80   81 ar
   276   87   89 ar
   277   97   99 ar
   278  120  122 ar
   279  143  144 ar
   280  148  149 ar
   281  155  157 ar
   282  165  167 ar
   283  188  190 ar
   284  211  212 ar
   285  216  217 ar
   286  223  225 ar
   287  233  235 ar
   288  256  258 ar
@<TRIPOS>SUBSTRUCTURE
     1 RES1 1
     2 RES2 69
     3 RES3 137
     4 RES4 205

