# MOL2 file generated by ConQuest
# Please check atom types

@<TRIPOS>MOLECULE
UKISOX
    56    60     1
SMALL
NO_CHARGES
****
Generated from CSD

@<TRIPOS>ATOM
      1 C1        16.0380    2.5262    4.3250 C.ar      1 RES1    0.0000
      2 H1        15.8135    2.9904    3.5278 H         1 RES1    0.0000
      3 C2        17.2586    1.8424    4.3974 C.ar      1 RES1    0.0000
      4 C3        17.5405    1.1925    5.5895 C.ar      1 RES1    0.0000
      5 H2        18.3619    0.7242    5.6782 H         1 RES1    0.0000
      6 C4        16.6520    1.2095    6.6548 C.ar      1 RES1    0.0000
      7 H3        16.8818    0.7549    7.4572 H         1 RES1    0.0000
      8 C5        14.5230    1.8563    7.7287 C.2       1 RES1    0.0000
      9 H4        14.8963    1.5803    8.5579 H         1 RES1    0.0000
     10 C6        13.2271    2.1847    7.7382 C.2       1 RES1    0.0000
     11 H5        12.8470    2.4687    6.9142 H         1 RES1    0.0000
     12 C7        12.8279    2.0747   10.2308 C.ar      1 RES1    0.0000
     13 H6        13.7619    1.9900   10.3868 H         1 RES1    0.0000
     14 C8        11.9649    2.1259   11.2849 C.ar      1 RES1    0.0000
     15 H7        12.3134    2.1173   12.1693 H         1 RES1    0.0000
     16 C9         9.6994    2.3914   12.2106 C.ar      1 RES1    0.0000
     17 H8        10.0485    2.3736   13.0941 H         1 RES1    0.0000
     18 C10        8.3778    2.6060   12.0081 C.ar      1 RES1    0.0000
     19 H9         7.8258    2.8431   12.7441 H         1 RES1    0.0000
     20 C11        6.3941    2.6634   10.5566 C.ar      1 RES1    0.0000
     21 H10        5.8734    2.9336   11.3048 H         1 RES1    0.0000
     22 C12        5.7881    2.4584    9.3698 C.ar      1 RES1    0.0000
     23 H11        4.8623    2.6497    9.2776 H         1 RES1    0.0000
     24 C13        5.8430    1.6159    7.0582 C.ar      1 RES1    0.0000
     25 H12        4.9142    1.7951    6.9789 H         1 RES1    0.0000
     26 C14        6.5031    1.0310    6.0135 C.ar      1 RES1    0.0000
     27 H13        6.0478    0.8408    5.2016 H         1 RES1    0.0000
     28 C15        7.8620    0.7165    6.1592 C.ar      1 RES1    0.0000
     29 H14        8.3163    0.2654    5.4567 H         1 RES1    0.0000
     30 C16        8.5443    1.0507    7.2982 C.ar      1 RES1    0.0000
     31 H15        9.4613    0.8132    7.3745 H         1 RES1    0.0000
     32 C17        7.9178    1.7427    8.3686 C.ar      1 RES1    0.0000
     33 C18        6.5150    1.9604    8.2553 C.ar      1 RES1    0.0000
     34 C19        8.5942    2.1256    9.5991 C.ar      1 RES1    0.0000
     35 C20        7.8006    2.4831   10.7118 C.ar      1 RES1    0.0000
     36 C21       10.0373    2.1407    9.7793 C.ar      1 RES1    0.0000
     37 C22       10.5678    2.1917   11.0953 C.ar      1 RES1    0.0000
     38 C23       10.9709    2.1964    8.7087 C.ar      1 RES1    0.0000
     39 H16       10.6417    2.2708    7.8209 H         1 RES1    0.0000
     40 C24       12.3385    2.1465    8.9052 C.ar      1 RES1    0.0000
     41 C25       15.1509    2.5425    5.3852 C.ar      1 RES1    0.0000
     42 H17       14.3337    3.0180    5.2999 H         1 RES1    0.0000
     43 C26       15.4306    1.8760    6.5781 C.ar      1 RES1    0.0000
     44 C27       18.2621    1.8924    3.2373 C.3       1 RES1    0.0000
     45 C28       19.2106    0.6892    3.2623 C.3       1 RES1    0.0000
     46 H18       18.6887   -0.1396    3.2115 H         1 RES1    0.0000
     47 H19       19.7280    0.6981    4.0941 H         1 RES1    0.0000
     48 H20       19.8202    0.7380    2.4969 H         1 RES1    0.0000
     49 C29       17.5500    1.8812    1.8815 C.3       1 RES1    0.0000
     50 H21       17.0039    2.6896    1.7928 H         1 RES1    0.0000
     51 H22       16.9755    1.0894    1.8212 H         1 RES1    0.0000
     52 H23       18.2157    1.8565    1.1627 H         1 RES1    0.0000
     53 C30       19.0724    3.1838    3.3761 C.3       1 RES1    0.0000
     54 H24       19.7013    3.2573    2.6280 H         1 RES1    0.0000
     55 H25       19.5695    3.1683    4.2199 H         1 RES1    0.0000
     56 H26       18.4652    3.9524    3.3692 H         1 RES1    0.0000
@<TRIPOS>BOND
     1    1    2 1
     2    3    1 ar
     3    4    3 ar
     4    5    4 1
     5    6    4 ar
     6    7    6 1
     7    8    9 1
     8   10    8 2
     9   11   10 1
    10   12   13 1
    11   14   12 ar
    12   15   14 1
    13   16   17 1
    14   18   16 ar
    15   19   18 1
    16   20   21 1
    17   22   20 ar
    18   23   22 1
    19   24   25 1
    20   26   24 ar
    21   27   26 1
    22   28   26 ar
    23   29   28 1
    24   30   28 ar
    25   31   30 1
    26   32   30 ar
    27   33   22 ar
    28   34   32 ar
    29   35   18 ar
    30   36   34 ar
    31   37   14 ar
    32   38   36 ar
    33   39   38 1
    34   40   10 1
    35   41    1 ar
    36   42   41 1
    37   43    6 ar
    38   44    3 1
    39   45   44 1
    40   46   45 1
    41   47   45 1
    42   48   45 1
    43   49   44 1
    44   50   49 1
    45   51   49 1
    46   52   49 1
    47   53   44 1
    48   54   53 1
    49   55   53 1
    50   56   53 1
    51    8   43 1
    52   12   40 ar
    53   16   37 ar
    54   20   35 ar
    55   24   33 ar
    56   32   33 ar
    57   34   35 ar
    58   36   37 ar
    59   38   40 ar
    60   41   43 ar
@<TRIPOS>SUBSTRUCTURE
     1 RES1 1

@<TRIPOS>CRYSIN
  15.8912   15.3430    8.6285  90.0000  92.6800  90.0000  14 1

