# MOL2 file generated by ConQuest
# Please check atom types

@<TRIPOS>MOLECULE
UKISOX04
    56    60     1
SMALL
NO_CHARGES
****
Generated from CSD

@<TRIPOS>ATOM
      1 C1         9.7255    6.6056    5.7027 C.ar      1 RES1    0.0000
      2 H1        10.5291    7.0639    5.7986 H         1 RES1    0.0000
      3 C2         9.4591    5.9635    4.5042 C.ar      1 RES1    0.0000
      4 C3         8.2467    5.2821    4.4324 C.ar      1 RES1    0.0000
      5 H2         8.0330    4.8229    3.6525 H         1 RES1    0.0000
      6 C4         7.3519    5.2679    5.4839 C.ar      1 RES1    0.0000
      7 H3         6.5517    4.8024    5.3931 H         1 RES1    0.0000
      8 C5         6.7027    5.9464    7.8160 C.2       1 RES1    0.0000
      9 H4         7.0662    6.2033    8.6322 H         1 RES1    0.0000
     10 C6         5.4127    5.6335    7.8177 C.2       1 RES1    0.0000
     11 H5         5.0410    5.3741    7.0049 H         1 RES1    0.0000
     12 C7         4.9900    5.7075   10.3028 C.ar      1 RES1    0.0000
     13 H6         5.9024    5.7871   10.4611 H         1 RES1    0.0000
     14 C8         4.1306    5.6417   11.3474 C.ar      1 RES1    0.0000
     15 H7         4.4718    5.6332   12.2121 H         1 RES1    0.0000
     16 C9         1.8580    5.3741   12.2674 C.ar      1 RES1    0.0000
     17 H8         2.1940    5.3819   13.1347 H         1 RES1    0.0000
     18 C10        0.5469    5.1629   12.0547 C.ar      1 RES1    0.0000
     19 H9         0.0023    4.9234   12.7689 H         1 RES1    0.0000
     20 C11       -1.4230    5.0956   10.5916 C.ar      1 RES1    0.0000
     21 H10       -1.9331    4.8134   11.3154 H         1 RES1    0.0000
     22 C12       -2.0193    5.3034    9.4096 C.ar      1 RES1    0.0000
     23 H11       -2.9197    5.0930    9.3084 H         1 RES1    0.0000
     24 C13       -1.9631    6.2050    7.1225 C.ar      1 RES1    0.0000
     25 H12       -2.8697    6.0195    7.0351 H         1 RES1    0.0000
     26 C14       -1.3162    6.8209    6.1039 C.ar      1 RES1    0.0000
     27 H13       -1.7651    7.0278    5.3161 H         1 RES1    0.0000
     28 C15        0.0295    7.1386    6.2543 C.ar      1 RES1    0.0000
     29 H14        0.4712    7.5978    5.5764 H         1 RES1    0.0000
     30 C16        0.7096    6.7850    7.3819 C.ar      1 RES1    0.0000
     31 H15        1.6056    7.0231    7.4606 H         1 RES1    0.0000
     32 C17        0.0972    6.0673    8.4368 C.ar      1 RES1    0.0000
     33 C18       -1.3020    5.8367    8.3114 C.ar      1 RES1    0.0000
     34 C19        0.7693    5.6753    9.6586 C.ar      1 RES1    0.0000
     35 C20       -0.0228    5.2981   10.7611 C.ar      1 RES1    0.0000
     36 C21        2.2135    5.6640    9.8463 C.ar      1 RES1    0.0000
     37 C22        2.7303    5.5858   11.1649 C.ar      1 RES1    0.0000
     38 C23        3.1457    5.6238    8.7844 C.ar      1 RES1    0.0000
     39 H16        2.8246    5.5720    7.9128 H         1 RES1    0.0000
     40 C24        4.5129    5.6577    8.9833 C.ar      1 RES1    0.0000
     41 C25        8.8388    6.5871    6.7550 C.ar      1 RES1    0.0000
     42 H17        9.0636    7.0246    7.5436 H         1 RES1    0.0000
     43 C26        7.6166    5.9322    6.6728 C.ar      1 RES1    0.0000
     44 C27       10.4635    5.9214    3.3533 C.3       1 RES1    0.0000
     45 C28        9.7601    5.9661    1.9974 C.3       1 RES1    0.0000
     46 H18       10.4146    5.9379    1.2962 H         1 RES1    0.0000
     47 H19        9.2529    6.7781    1.9274 H         1 RES1    0.0000
     48 H20        9.1718    5.2123    1.9170 H         1 RES1    0.0000
     49 C29       11.4186    7.1016    3.3792 C.3       1 RES1    0.0000
     50 H21       12.0333    7.0340    2.6442 H         1 RES1    0.0000
     51 H22       11.9062    7.1000    4.2059 H         1 RES1    0.0000
     52 H23       10.9199    7.9198    3.3040 H         1 RES1    0.0000
     53 C30       11.2441    4.6281    3.4415 C.3       1 RES1    0.0000
     54 H24       11.8795    4.5873    2.7229 H         1 RES1    0.0000
     55 H25       10.6401    3.8837    3.3766 H         1 RES1    0.0000
     56 H26       11.7078    4.5904    4.2820 H         1 RES1    0.0000
@<TRIPOS>BOND
     1    1    2 1
     2    3    1 ar
     3    4    3 ar
     4    5    4 1
     5    6    4 ar
     6    7    6 1
     7    8    9 1
     8   10    8 2
     9   11   10 1
    10   12   13 1
    11   14   12 ar
    12   15   14 1
    13   16   17 1
    14   18   16 ar
    15   19   18 1
    16   20   21 1
    17   22   20 ar
    18   23   22 1
    19   24   25 1
    20   26   24 ar
    21   27   26 1
    22   28   26 ar
    23   29   28 1
    24   30   28 ar
    25   31   30 1
    26   32   30 ar
    27   33   22 ar
    28   34   32 ar
    29   35   18 ar
    30   36   34 ar
    31   37   14 ar
    32   38   36 ar
    33   39   38 1
    34   40   10 1
    35   41    1 ar
    36   42   41 1
    37   43    6 ar
    38   44    3 1
    39   45   44 1
    40   46   45 1
    41   47   45 1
    42   48   45 1
    43   49   44 1
    44   50   49 1
    45   51   49 1
    46   52   49 1
    47   53   44 1
    48   54   53 1
    49   55   53 1
    50   56   53 1
    51    8   43 1
    52   12   40 ar
    53   16   37 ar
    54   20   35 ar
    55   24   33 ar
    56   32   33 ar
    57   34   35 ar
    58   36   37 ar
    59   38   40 ar
    60   41   43 ar
@<TRIPOS>SUBSTRUCTURE
     1 RES1 1

@<TRIPOS>CRYSIN
  15.9882   15.7045    8.6555  90.0000  92.5490  90.0000  14 1

