# MOL2 file generated by ConQuest
# Please check atom types

@<TRIPOS>MOLECULE
UKISOX03
    56    60     1
SMALL
NO_CHARGES
****
Generated from CSD

@<TRIPOS>ATOM
      1 C1         9.7275    6.6069    5.7085 C.ar      1 RES1    0.0000
      2 H1        10.5306    7.0657    5.8037 H         1 RES1    0.0000
      3 C2         9.4589    5.9643    4.5121 C.ar      1 RES1    0.0000
      4 C3         8.2490    5.2833    4.4428 C.ar      1 RES1    0.0000
      5 H2         8.0369    4.8204    3.6645 H         1 RES1    0.0000
      6 C4         7.3514    5.2715    5.4912 C.ar      1 RES1    0.0000
      7 H3         6.5495    4.8094    5.3977 H         1 RES1    0.0000
      8 C5         6.7017    5.9506    7.8277 C.2       1 RES1    0.0000
      9 H4         7.0641    6.2125    8.6432 H         1 RES1    0.0000
     10 C6         5.4131    5.6345    7.8303 C.2       1 RES1    0.0000
     11 H5         5.0432    5.3719    7.0183 H         1 RES1    0.0000
     12 C7         4.9941    5.7082   10.3166 C.ar      1 RES1    0.0000
     13 H6         5.9066    5.7836   10.4750 H         1 RES1    0.0000
     14 C8         4.1290    5.6439   11.3633 C.ar      1 RES1    0.0000
     15 H7         4.4695    5.6375   12.2290 H         1 RES1    0.0000
     16 C9         1.8527    5.3752   12.2800 C.ar      1 RES1    0.0000
     17 H8         2.1869    5.3829   13.1483 H         1 RES1    0.0000
     18 C10        0.5470    5.1641   12.0714 C.ar      1 RES1    0.0000
     19 H9         0.0027    4.9241   12.7865 H         1 RES1    0.0000
     20 C11       -1.4215    5.0962   10.6032 C.ar      1 RES1    0.0000
     21 H10       -1.9312    4.8110   11.3269 H         1 RES1    0.0000
     22 C12       -2.0210    5.3061    9.4197 C.ar      1 RES1    0.0000
     23 H11       -2.9213    5.0985    9.3185 H         1 RES1    0.0000
     24 C13       -1.9619    6.2062    7.1360 C.ar      1 RES1    0.0000
     25 H12       -2.8683    6.0177    7.0477 H         1 RES1    0.0000
     26 C14       -1.3146    6.8253    6.1162 C.ar      1 RES1    0.0000
     27 H13       -1.7655    7.0358    5.3302 H         1 RES1    0.0000
     28 C15        0.0302    7.1405    6.2625 C.ar      1 RES1    0.0000
     29 H14        0.4715    7.5952    5.5821 H         1 RES1    0.0000
     30 C16        0.7136    6.7904    7.3940 C.ar      1 RES1    0.0000
     31 H15        1.6091    7.0311    7.4736 H         1 RES1    0.0000
     32 C17        0.0988    6.0732    8.4470 C.ar      1 RES1    0.0000
     33 C18       -1.2997    5.8397    8.3246 C.ar      1 RES1    0.0000
     34 C19        0.7714    5.6793    9.6724 C.ar      1 RES1    0.0000
     35 C20       -0.0256    5.3008   10.7728 C.ar      1 RES1    0.0000
     36 C21        2.2103    5.6654    9.8565 C.ar      1 RES1    0.0000
     37 C22        2.7340    5.5878   11.1780 C.ar      1 RES1    0.0000
     38 C23        3.1500    5.6287    8.7957 C.ar      1 RES1    0.0000
     39 H16        2.8300    5.5809    7.9238 H         1 RES1    0.0000
     40 C24        4.5128    5.6601    8.9921 C.ar      1 RES1    0.0000
     41 C25        8.8399    6.5874    6.7655 C.ar      1 RES1    0.0000
     42 H17        9.0665    7.0248    7.5542 H         1 RES1    0.0000
     43 C26        7.6191    5.9333    6.6824 C.ar      1 RES1    0.0000
     44 C27       10.4656    5.9225    3.3589 C.3       1 RES1    0.0000
     45 C28        9.7602    5.9706    2.0032 C.3       1 RES1    0.0000
     46 H18       10.4156    5.9878    1.3020 H         1 RES1    0.0000
     47 H19        9.2178    6.7624    1.9530 H         1 RES1    0.0000
     48 H20        9.2040    5.1944    1.9037 H         1 RES1    0.0000
     49 C29       11.4188    7.1065    3.3858 C.3       1 RES1    0.0000
     50 H21       11.9389    7.0798    4.1926 H         1 RES1    0.0000
     51 H22       10.9160    7.9236    3.3555 H         1 RES1    0.0000
     52 H23       12.0037    7.0625    2.6266 H         1 RES1    0.0000
     53 C30       11.2467    4.6316    3.4472 C.3       1 RES1    0.0000
     54 H24       11.8778    4.5895    2.7261 H         1 RES1    0.0000
     55 H25       10.6427    3.8871    3.3884 H         1 RES1    0.0000
     56 H26       11.7158    4.5973    4.2852 H         1 RES1    0.0000
@<TRIPOS>BOND
     1    1    2 1
     2    3    1 ar
     3    4    3 ar
     4    5    4 1
     5    6    4 ar
     6    7    6 1
     7    8    9 1
     8   10    8 2
     9   11   10 1
    10   12   13 1
    11   14   12 ar
    12   15   14 1
    13   16   17 1
    14   18   16 ar
    15   19   18 1
    16   20   21 1
    17   22   20 ar
    18   23   22 1
    19   24   25 1
    20   26   24 ar
    21   27   26 1
    22   28   26 ar
    23   29   28 1
    24   30   28 ar
    25   31   30 1
    26   32   30 ar
    27   33   22 ar
    28   34   32 ar
    29   35   18 ar
    30   36   34 ar
    31   37   14 ar
    32   38   36 ar
    33   39   38 1
    34   40   10 1
    35   41    1 ar
    36   42   41 1
    37   43    6 ar
    38   44    3 1
    39   45   44 1
    40   46   45 1
    41   47   45 1
    42   48   45 1
    43   49   44 1
    44   50   49 1
    45   51   49 1
    46   52   49 1
    47   53   44 1
    48   54   53 1
    49   55   53 1
    50   56   53 1
    51    8   43 1
    52   12   40 ar
    53   16   37 ar
    54   20   35 ar
    55   24   33 ar
    56   32   33 ar
    57   34   35 ar
    58   36   37 ar
    59   38   40 ar
    60   41   43 ar
@<TRIPOS>SUBSTRUCTURE
     1 RES1 1

@<TRIPOS>CRYSIN
  15.9900   15.7120    8.6656  90.0000  92.5440  90.0000  14 1

