# MOL2 file generated by ConQuest
# Please check atom types

@<TRIPOS>MOLECULE
UKISOX02
    56    60     1
SMALL
NO_CHARGES
****
Generated from CSD

@<TRIPOS>ATOM
      1 C1         9.5995    6.4887    5.5881 C.ar      1 RES1    0.0000
      2 H1        10.4203    6.9589    5.6774 H         1 RES1    0.0000
      3 C2         9.3171    5.8340    4.3923 C.ar      1 RES1    0.0000
      4 C3         8.1025    5.1464    4.3209 C.ar      1 RES1    0.0000
      5 H2         7.8833    4.6756    3.5251 H         1 RES1    0.0000
      6 C4         7.2104    5.1327    5.3792 C.ar      1 RES1    0.0000
      7 H3         6.3920    4.6587    5.2924 H         1 RES1    0.0000
      8 C5         6.5817    5.8226    7.7240 C.2       1 RES1    0.0000
      9 H4         6.9535    6.1021    8.5523 H         1 RES1    0.0000
     10 C6         5.2866    5.4894    7.7335 C.2       1 RES1    0.0000
     11 H5         4.9093    5.2007    6.9107 H         1 RES1    0.0000
     12 C7         4.8884    5.6030   10.2238 C.ar      1 RES1    0.0000
     13 H6         5.8219    5.6906   10.3790 H         1 RES1    0.0000
     14 C8         4.0240    5.5479   11.2779 C.ar      1 RES1    0.0000
     15 H7         4.3728    5.5539   12.1618 H         1 RES1    0.0000
     16 C9         1.7569    5.2844   12.2034 C.ar      1 RES1    0.0000
     17 H8         2.1053    5.3036   13.0868 H         1 RES1    0.0000
     18 C10        0.4337    5.0676   12.0033 C.ar      1 RES1    0.0000
     19 H9        -0.1187    4.8291   12.7389 H         1 RES1    0.0000
     20 C11       -1.5496    5.0086   10.5533 C.ar      1 RES1    0.0000
     21 H10       -2.0675    4.7370   11.3023 H         1 RES1    0.0000
     22 C12       -2.1580    5.2141    9.3621 C.ar      1 RES1    0.0000
     23 H11       -3.0837    5.0211    9.2680 H         1 RES1    0.0000
     24 C13       -2.1006    6.0603    7.0522 C.ar      1 RES1    0.0000
     25 H12       -3.0288    5.8794    6.9719 H         1 RES1    0.0000
     26 C14       -1.4415    6.6483    6.0113 C.ar      1 RES1    0.0000
     27 H13       -1.8983    6.8422    5.2011 H         1 RES1    0.0000
     28 C15       -0.0829    6.9613    6.1532 C.ar      1 RES1    0.0000
     29 H14        0.3700    7.4119    5.4500 H         1 RES1    0.0000
     30 C16        0.6016    6.6260    7.2934 C.ar      1 RES1    0.0000
     31 H15        1.5188    6.8637    7.3698 H         1 RES1    0.0000
     32 C17       -0.0250    5.9332    8.3621 C.ar      1 RES1    0.0000
     33 C18       -1.4263    5.7157    8.2483 C.ar      1 RES1    0.0000
     34 C19        0.6522    5.5505    9.5928 C.ar      1 RES1    0.0000
     35 C20       -0.1419    5.1926   10.7033 C.ar      1 RES1    0.0000
     36 C21        2.0942    5.5355    9.7694 C.ar      1 RES1    0.0000
     37 C22        2.6261    5.4831   11.0936 C.ar      1 RES1    0.0000
     38 C23        3.0270    5.4799    8.7019 C.ar      1 RES1    0.0000
     39 H16        2.6968    5.4065    7.8142 H         1 RES1    0.0000
     40 C24        4.3950    5.5287    8.8978 C.ar      1 RES1    0.0000
     41 C25        8.7106    6.4697    6.6510 C.ar      1 RES1    0.0000
     42 H17        8.9398    6.9236    7.4533 H         1 RES1    0.0000
     43 C26        7.4906    5.8023    6.5728 C.ar      1 RES1    0.0000
     44 C27       10.3240    5.7861    3.2351 C.3       1 RES1    0.0000
     45 C28        9.6105    5.7994    1.8777 C.3       1 RES1    0.0000
     46 H18       10.2754    5.8441    1.1593 H         1 RES1    0.0000
     47 H19        9.0216    6.5812    1.8259 H         1 RES1    0.0000
     48 H20        9.0778    4.9827    1.7802 H         1 RES1    0.0000
     49 C29       11.2761    6.9842    3.2588 C.3       1 RES1    0.0000
     50 H21       11.8017    6.9681    4.0858 H         1 RES1    0.0000
     51 H22       10.7579    7.8142    3.2177 H         1 RES1    0.0000
     52 H23       11.8795    6.9374    2.4882 H         1 RES1    0.0000
     53 C30       11.1326    4.4898    3.3718 C.3       1 RES1    0.0000
     54 H24       11.7588    4.4146    2.6217 H         1 RES1    0.0000
     55 H25       10.5236    3.7221    3.3675 H         1 RES1    0.0000
     56 H26       11.6335    4.5052    4.2141 H         1 RES1    0.0000
@<TRIPOS>BOND
     1    1    2 1
     2    3    1 ar
     3    4    3 ar
     4    5    4 1
     5    6    4 ar
     6    7    6 1
     7    8    9 1
     8   10    8 2
     9   11   10 1
    10   12   13 1
    11   14   12 ar
    12   15   14 1
    13   16   17 1
    14   18   16 ar
    15   19   18 1
    16   20   21 1
    17   22   20 ar
    18   23   22 1
    19   24   25 1
    20   26   24 ar
    21   27   26 1
    22   28   26 ar
    23   29   28 1
    24   30   28 ar
    25   31   30 1
    26   32   30 ar
    27   33   22 ar
    28   34   32 ar
    29   35   18 ar
    30   36   34 ar
    31   37   14 ar
    32   38   36 ar
    33   39   38 1
    34   40   10 1
    35   41    1 ar
    36   42   41 1
    37   43    6 ar
    38   44    3 1
    39   45   44 1
    40   46   45 1
    41   47   45 1
    42   48   45 1
    43   49   44 1
    44   50   49 1
    45   51   49 1
    46   52   49 1
    47   53   44 1
    48   54   53 1
    49   55   53 1
    50   56   53 1
    51    8   43 1
    52   12   40 ar
    53   16   37 ar
    54   20   35 ar
    55   24   33 ar
    56   32   33 ar
    57   34   35 ar
    58   36   37 ar
    59   38   40 ar
    60   41   43 ar
@<TRIPOS>SUBSTRUCTURE
     1 RES1 1

@<TRIPOS>CRYSIN
  15.8991   15.3550    8.6220  90.0000  92.6770  90.0000  14 1

