# MOL2 file generated by ConQuest
# Please check atom types

@<TRIPOS>MOLECULE
UNASEI
    70    77     1
SMALL
NO_CHARGES
****
Generated from CSD

@<TRIPOS>ATOM
      1 C1         9.2043    1.2174    6.1603 C.ar      1 RES1    0.0000
      2 C2         8.8795    0.0911    6.9430 C.ar      1 RES1    0.0000
      3 H1         8.4768   -0.6635    6.5280 H         1 RES1    0.0000
      4 C3         9.1297    0.0613    8.2752 C.ar      1 RES1    0.0000
      5 H2         8.8936   -0.7184    8.7635 H         1 RES1    0.0000
      6 C4         9.7228    1.1301    8.9637 C.ar      1 RES1    0.0000
      7 C5        10.1066    2.2276    8.1609 C.ar      1 RES1    0.0000
      8 H3        10.5454    2.9636    8.5705 H         1 RES1    0.0000
      9 C6         9.8686    2.2638    6.8295 C.ar      1 RES1    0.0000
     10 H4        10.1589    3.0185    6.3314 H         1 RES1    0.0000
     11 C7         8.7817    1.3382    4.7717 C.2       1 RES1    0.0000
     12 C8         9.8617    1.4665    3.7369 C.ar      1 RES1    0.0000
     13 C9        10.9122    0.5446    3.7049 C.ar      1 RES1    0.0000
     14 H5        10.9513   -0.1496    4.3508 H         1 RES1    0.0000
     15 C10       11.8915    0.6394    2.7375 C.ar      1 RES1    0.0000
     16 H6        12.5870   -0.0074    2.7088 H         1 RES1    0.0000
     17 C11       11.8727    1.6570    1.8153 C.ar      1 RES1    0.0000
     18 H7        12.5476    1.7109    1.1505 H         1 RES1    0.0000
     19 C12       10.8613    2.6049    1.8605 C.ar      1 RES1    0.0000
     20 H8        10.8556    3.3214    1.2379 H         1 RES1    0.0000
     21 C13        9.8673    2.5055    2.8089 C.ar      1 RES1    0.0000
     22 H9         9.1755    3.1560    2.8289 H         1 RES1    0.0000
     23 C14        7.4752    1.3020    4.4207 C.2       1 RES1    0.0000
     24 C15        7.0051    1.2434    3.0313 C.ar      1 RES1    0.0000
     25 C16        7.3383    0.1933    2.1725 C.ar      1 RES1    0.0000
     26 H10        7.9041   -0.5009    2.4903 H         1 RES1    0.0000
     27 C17        6.8717    0.1375    0.8895 C.ar      1 RES1    0.0000
     28 H11        7.0997   -0.6013    0.3386 H         1 RES1    0.0000
     29 C18        6.0715    1.1477    0.3885 C.ar      1 RES1    0.0000
     30 H12        5.7483    1.1152   -0.5061 H         1 RES1    0.0000
     31 C19        5.7495    2.2072    1.2171 C.ar      1 RES1    0.0000
     32 H13        5.2251    2.9218    0.8774 H         1 RES1    0.0000
     33 C20        6.1701    2.2462    2.5067 C.ar      1 RES1    0.0000
     34 H14        5.8946    2.9636    3.0656 H         1 RES1    0.0000
     35 C21        6.4243    1.2397    5.4827 C.ar      1 RES1    0.0000
     36 C22        5.5310    0.1775    5.5341 C.ar      1 RES1    0.0000
     37 H15        5.5605   -0.4898    4.8569 H         1 RES1    0.0000
     38 C23        4.5997    0.0716    6.5506 C.ar      1 RES1    0.0000
     39 H16        4.0156   -0.6766    6.5826 H         1 RES1    0.0000
     40 C24        4.5148    1.0492    7.5205 C.ar      1 RES1    0.0000
     41 H17        3.8790    0.9795    8.2246 H         1 RES1    0.0000
     42 C25        5.3777    2.1375    7.4502 C.ar      1 RES1    0.0000
     43 H18        5.3231    2.8233    8.1045 H         1 RES1    0.0000
     44 C26        6.3112    2.2313    6.4413 C.ar      1 RES1    0.0000
     45 H19        6.8859    2.9869    6.4042 H         1 RES1    0.0000
     46 C27        9.8918    1.1338   10.4069 C.ar      1 RES1    0.0000
     47 C28        8.7706    1.1570   11.2876 C.ar      1 RES1    0.0000
     48 C29        7.4254    1.1988   10.7925 C.ar      1 RES1    0.0000
     49 H20        7.2693    1.1635    9.8557 H         1 RES1    0.0000
     50 C30        6.3755    1.2871   11.6444 C.ar      1 RES1    0.0000
     51 H21        5.4946    1.3234   11.2902 H         1 RES1    0.0000
     52 C31        6.5514    1.3271   13.0341 C.ar      1 RES1    0.0000
     53 C32        7.8643    1.2732   13.5843 C.ar      1 RES1    0.0000
     54 C33        8.9835    1.1868   12.6701 C.ar      1 RES1    0.0000
     55 C34       10.3065    1.1579   13.2206 C.ar      1 RES1    0.0000
     56 C35       11.3867    1.1384   12.3300 C.ar      1 RES1    0.0000
     57 H22       12.2737    1.1291   12.6664 H         1 RES1    0.0000
     58 C36       11.1727    1.1338   10.9782 C.ar      1 RES1    0.0000
     59 H23       11.9263    1.1310   10.4018 H         1 RES1    0.0000
     60 C37        5.4841    1.4525   13.9553 C.ar      1 RES1    0.0000
     61 H24        4.5936    1.4906   13.6276 H         1 RES1    0.0000
     62 C38        5.7004    1.5185   15.2889 C.ar      1 RES1    0.0000
     63 H25        4.9581    1.6115   15.8740 H         1 RES1    0.0000
     64 C39        6.9834    1.4553   15.8263 C.ar      1 RES1    0.0000
     65 H26        7.1111    1.4981   16.7660 H         1 RES1    0.0000
     66 C40        8.0881    1.3271   14.9685 C.ar      1 RES1    0.0000
     67 C41        9.4271    1.2760   15.4735 C.ar      1 RES1    0.0000
     68 H27        9.5783    1.2973   16.4092 H         1 RES1    0.0000
     69 C42       10.4746    1.1970   14.6223 C.ar      1 RES1    0.0000
     70 H28       11.3546    1.1672   14.9783 H         1 RES1    0.0000
@<TRIPOS>BOND
     1    1    2 ar
     2    2    3 1
     3    4    2 ar
     4    5    4 1
     5    6    4 ar
     6    7    6 ar
     7    8    7 1
     8    9    1 ar
     9   10    9 1
    10   11    1 1
    11   12   11 1
    12   13   12 ar
    13   14   13 1
    14   15   13 ar
    15   16   15 1
    16   17   15 ar
    17   18   17 1
    18   19   17 ar
    19   20   19 1
    20   21   12 ar
    21   22   21 1
    22   23   11 2
    23   24   23 1
    24   25   24 ar
    25   26   25 1
    26   27   25 ar
    27   28   27 1
    28   29   27 ar
    29   30   29 1
    30   31   29 ar
    31   32   31 1
    32   33   24 ar
    33   34   33 1
    34   35   23 1
    35   36   35 ar
    36   37   36 1
    37   38   36 ar
    38   39   38 1
    39   40   38 ar
    40   41   40 1
    41   42   40 ar
    42   43   42 1
    43   44   35 ar
    44   45   44 1
    45   46    6 1
    46   47   46 ar
    47   48   47 ar
    48   49   48 1
    49   50   48 ar
    50   51   50 1
    51   52   50 ar
    52   53   52 ar
    53   54   47 ar
    54   55   54 ar
    55   56   55 ar
    56   57   56 1
    57   58   46 ar
    58   59   58 1
    59   60   52 ar
    60   61   60 1
    61   62   60 ar
    62   63   62 1
    63   64   62 ar
    64   65   64 1
    65   66   53 ar
    66   67   66 ar
    67   68   67 1
    68   69   55 ar
    69   70   69 1
    70    7    9 ar
    71   19   21 ar
    72   31   33 ar
    73   42   44 ar
    74   53   54 ar
    75   56   58 ar
    76   64   66 ar
    77   67   69 ar
@<TRIPOS>SUBSTRUCTURE
     1 RES1 1

