# MOL2 file generated by ConQuest
# Please check atom types

@<TRIPOS>MOLECULE
UNASIM
    68    74     1
SMALL
NO_CHARGES
****
Generated from CSD

@<TRIPOS>ATOM
      1 C1         3.3144    5.2887    5.2210 C.ar      1 RES1    0.0000
      2 C2         2.2788    5.2128    6.1430 C.ar      1 RES1    0.0000
      3 H1         1.3816    5.3271    5.8502 H         1 RES1    0.0000
      4 C3         2.5352    4.9719    7.4840 C.ar      1 RES1    0.0000
      5 H2         1.8095    4.9041    8.0942 H         1 RES1    0.0000
      6 C4         3.8356    4.8288    7.9510 C.ar      1 RES1    0.0000
      7 C5         4.8705    4.8598    7.0189 C.ar      1 RES1    0.0000
      8 H3         5.7668    4.7384    7.3101 H         1 RES1    0.0000
      9 C6         4.6117    5.0657    5.6720 C.ar      1 RES1    0.0000
     10 H4         5.3291    5.0541    5.0493 H         1 RES1    0.0000
     11 C7         3.0469    5.5877    3.7779 C.2       1 RES1    0.0000
     12 C8         3.2161    4.4261    2.8646 C.ar      1 RES1    0.0000
     13 C9         4.1339    4.4502    1.8263 C.ar      1 RES1    0.0000
     14 H5         4.6442    5.2346    1.6628 H         1 RES1    0.0000
     15 C10        4.3086    3.3274    1.0221 C.ar      1 RES1    0.0000
     16 H6         4.9432    3.3502    0.3158 H         1 RES1    0.0000
     17 C11        3.5748    2.1852    1.2382 C.ar      1 RES1    0.0000
     18 H7         3.6876    1.4301    0.6727 H         1 RES1    0.0000
     19 C12        2.6744    2.1429    2.2823 C.ar      1 RES1    0.0000
     20 H8         2.1685    1.3548    2.4423 H         1 RES1    0.0000
     21 C13        2.5090    3.2455    3.0926 C.ar      1 RES1    0.0000
     22 H9         1.9009    3.2005    3.8213 H         1 RES1    0.0000
     23 C14        2.6826    6.8244    3.3669 C.2       1 RES1    0.0000
     24 C15        2.2923    7.1274    1.9517 C.ar      1 RES1    0.0000
     25 C16        2.8894    8.1983    1.2838 C.ar      1 RES1    0.0000
     26 H10        3.5911    8.6844    1.7009 H         1 RES1    0.0000
     27 C17        2.4615    8.5564    0.0087 C.ar      1 RES1    0.0000
     28 H11        2.8786    9.2806   -0.4424 H         1 RES1    0.0000
     29 C18        1.4377    7.8684   -0.6036 C.ar      1 RES1    0.0000
     30 H12        1.1374    8.1293   -1.4660 H         1 RES1    0.0000
     31 C19        0.8505    6.7976    0.0401 C.ar      1 RES1    0.0000
     32 H13        0.1547    6.3093   -0.3844 H         1 RES1    0.0000
     33 C20        1.2796    6.4362    1.3093 C.ar      1 RES1    0.0000
     34 H14        0.8697    5.6993    1.7467 H         1 RES1    0.0000
     35 C21        2.6012    7.9945    4.2918 C.ar      1 RES1    0.0000
     36 C22        3.6609    8.3797    5.1125 C.ar      1 RES1    0.0000
     37 H15        4.4614    7.8688    5.1104 H         1 RES1    0.0000
     38 C23        3.5669    9.4917    5.9286 C.ar      1 RES1    0.0000
     39 H16        4.2983    9.7356    6.4833 H         1 RES1    0.0000
     40 C24        2.4124   10.2495    5.9384 C.ar      1 RES1    0.0000
     41 H17        2.3487   11.0161    6.4955 H         1 RES1    0.0000
     42 C25        1.3552    9.8883    5.1381 C.ar      1 RES1    0.0000
     43 H18        0.5564   10.4022    5.1531 H         1 RES1    0.0000
     44 C26        1.4448    8.7794    4.3089 C.ar      1 RES1    0.0000
     45 H19        0.7130    8.5510    3.7481 H         1 RES1    0.0000
     46 C27        4.1257    4.6970    9.4086 C.ar      1 RES1    0.0000
     47 C28        4.0233    5.8257   10.2441 C.ar      1 RES1    0.0000
     48 C29        3.6641    7.1172    9.7457 C.ar      1 RES1    0.0000
     49 H20        3.4795    7.2281    8.8203 H         1 RES1    0.0000
     50 C30        3.5824    8.1909   10.5800 C.ar      1 RES1    0.0000
     51 H21        3.3316    9.0376   10.2299 H         1 RES1    0.0000
     52 C31        3.8661    8.0630   11.9589 C.ar      1 RES1    0.0000
     53 H22        3.8039    8.8226   12.5257 H         1 RES1    0.0000
     54 C32        4.2257    6.8681   12.4749 C.ar      1 RES1    0.0000
     55 H23        4.4196    6.7995   13.4029 H         1 RES1    0.0000
     56 C33        4.3197    5.7035   11.6506 C.ar      1 RES1    0.0000
     57 C34        4.7058    4.4655   12.1569 C.ar      1 RES1    0.0000
     58 H24        4.8996    4.3863   13.0841 H         1 RES1    0.0000
     59 C35        4.8158    3.3458   11.3485 C.ar      1 RES1    0.0000
     60 C36        5.2369    2.0750   11.8574 C.ar      1 RES1    0.0000
     61 H25        5.4394    1.9905   12.7820 H         1 RES1    0.0000
     62 C37        5.3527    0.9984   11.0591 C.ar      1 RES1    0.0000
     63 H26        5.6555    0.1727   11.4182 H         1 RES1    0.0000
     64 C38        5.0245    1.0907    9.6844 C.ar      1 RES1    0.0000
     65 H27        5.0917    0.3207    9.1315 H         1 RES1    0.0000
     66 C39        4.6128    2.2748    9.1453 C.ar      1 RES1    0.0000
     67 H28        4.3867    2.3172    8.2239 H         1 RES1    0.0000
     68 C40        4.5170    3.4501    9.9472 C.ar      1 RES1    0.0000
@<TRIPOS>BOND
     1    1    2 ar
     2    2    3 1
     3    4    2 ar
     4    5    4 1
     5    6    4 ar
     6    7    6 ar
     7    8    7 1
     8    9    1 ar
     9   10    9 1
    10   11    1 1
    11   12   11 1
    12   13   12 ar
    13   14   13 1
    14   15   13 ar
    15   16   15 1
    16   17   15 ar
    17   18   17 1
    18   19   17 ar
    19   20   19 1
    20   21   12 ar
    21   22   21 1
    22   23   11 2
    23   24   23 1
    24   25   24 ar
    25   26   25 1
    26   27   25 ar
    27   28   27 1
    28   29   27 ar
    29   30   29 1
    30   31   29 ar
    31   32   31 1
    32   33   24 ar
    33   34   33 1
    34   35   23 1
    35   36   35 ar
    36   37   36 1
    37   38   36 ar
    38   39   38 1
    39   40   38 ar
    40   41   40 1
    41   42   40 ar
    42   43   42 1
    43   44   35 ar
    44   45   44 1
    45   46    6 1
    46   47   46 ar
    47   48   47 ar
    48   49   48 1
    49   50   48 ar
    50   51   50 1
    51   52   50 ar
    52   53   52 1
    53   54   52 ar
    54   55   54 1
    55   56   47 ar
    56   57   56 ar
    57   58   57 1
    58   59   57 ar
    59   60   59 ar
    60   61   60 1
    61   62   60 ar
    62   63   62 1
    63   64   62 ar
    64   65   64 1
    65   66   64 ar
    66   67   66 1
    67   68   46 ar
    68    7    9 ar
    69   19   21 ar
    70   31   33 ar
    71   42   44 ar
    72   54   56 ar
    73   59   68 ar
    74   66   68 ar
@<TRIPOS>SUBSTRUCTURE
     1 RES1 1

@<TRIPOS>CRYSIN
   9.4850    9.6830   15.5796  79.5920  83.9010  85.6620   2 1

