# MOL2 file generated by ConQuest
# Please check atom types

@<TRIPOS>MOLECULE
UPAJIG
    62    71     1
SMALL
NO_CHARGES
****
Generated from CSD

@<TRIPOS>ATOM
      1 C1         5.1532    4.7097    9.7613 C.ar      1 RES1    0.0000
      2 C2         5.5887    4.2580   11.0296 C.ar      1 RES1    0.0000
      3 H1         5.4778    3.3438   11.2643 H         1 RES1    0.0000
      4 C3         6.1719    5.1234   11.9284 C.ar      1 RES1    0.0000
      5 H2         6.4505    4.8034   12.7788 H         1 RES1    0.0000
      6 C4         6.3556    6.4657   11.5958 C.ar      1 RES1    0.0000
      7 H3         6.7765    7.0538   12.2115 H         1 RES1    0.0000
      8 C5         5.9289    6.9352   10.3782 C.ar      1 RES1    0.0000
      9 H4         6.0683    7.8473   10.1572 H         1 RES1    0.0000
     10 C6         5.2845    6.0854    9.4437 C.ar      1 RES1    0.0000
     11 C7         4.9678    6.5456    8.0949 C.ar      1 RES1    0.0000
     12 C8         4.7305    7.9508    7.7681 C.ar      1 RES1    0.0000
     13 C9         4.2889    8.8870    8.7256 C.ar      1 RES1    0.0000
     14 H5         4.2127    8.6275    9.6359 H         1 RES1    0.0000
     15 C10        3.9647   10.1850    8.3516 C.ar      1 RES1    0.0000
     16 H6         3.6836   10.8036    9.0156 H         1 RES1    0.0000
     17 C11        4.0415   10.5974    7.0339 C.ar      1 RES1    0.0000
     18 H7         3.8308   11.4963    6.8106 H         1 RES1    0.0000
     19 C12        4.4293    9.6967    6.0177 C.ar      1 RES1    0.0000
     20 C13        4.7911    8.3757    6.4078 C.ar      1 RES1    0.0000
     21 C14        4.5972   10.0982    4.6217 C.ar      1 RES1    0.0000
     22 C15        3.8353   11.1882    3.9911 C.ar      1 RES1    0.0000
     23 C16        2.5919   11.6268    4.5239 C.ar      1 RES1    0.0000
     24 H8         2.3300   11.3450    5.3928 H         1 RES1    0.0000
     25 C17        1.7575   12.4580    3.7977 C.ar      1 RES1    0.0000
     26 H9         0.9276   12.7356    4.1683 H         1 RES1    0.0000
     27 C18        2.1278   12.8892    2.5295 C.ar      1 RES1    0.0000
     28 H10        1.5483   13.4521    2.0301 H         1 RES1    0.0000
     29 C19        3.3359   12.4994    1.9967 C.ar      1 RES1    0.0000
     30 H11        3.5922   12.8179    1.1393 H         1 RES1    0.0000
     31 C20        4.2002   11.6361    2.7021 C.ar      1 RES1    0.0000
     32 C21        5.4544   11.1722    2.1129 C.ar      1 RES1    0.0000
     33 C22        6.0760   11.7930    1.0127 C.ar      1 RES1    0.0000
     34 H12        5.6655   12.5551    0.6238 H         1 RES1    0.0000
     35 C23        7.2540   11.3344    0.4822 C.ar      1 RES1    0.0000
     36 H13        7.6437   11.7669   -0.2681 H         1 RES1    0.0000
     37 C24        7.8702   10.2293    1.0553 C.ar      1 RES1    0.0000
     38 H14        8.6974    9.9173    0.7078 H         1 RES1    0.0000
     39 C25        7.2957    9.5861    2.1187 C.ar      1 RES1    0.0000
     40 H15        7.7436    8.8425    2.5042 H         1 RES1    0.0000
     41 C26        6.0533    9.9953    2.6607 C.ar      1 RES1    0.0000
     42 C27        5.4487    9.3496    3.8196 C.ar      1 RES1    0.0000
     43 C28        5.6471    7.9304    4.1395 C.ar      1 RES1    0.0000
     44 C29        6.0784    6.9901    3.1878 C.ar      1 RES1    0.0000
     45 H16        6.3546    7.2847    2.3281 H         1 RES1    0.0000
     46 C30        6.1061    5.6298    3.4905 C.ar      1 RES1    0.0000
     47 H17        6.4168    5.0130    2.8379 H         1 RES1    0.0000
     48 C31        5.6889    5.1624    4.7219 C.ar      1 RES1    0.0000
     49 H18        5.7207    4.2302    4.9048 H         1 RES1    0.0000
     50 C32        5.2188    6.0483    5.7070 C.ar      1 RES1    0.0000
     51 C33        5.2276    7.4484    5.4112 C.ar      1 RES1    0.0000
     52 C34        4.9000    5.6131    7.0638 C.ar      1 RES1    0.0000
     53 C35        4.5358    4.2317    7.4079 C.ar      1 RES1    0.0000
     54 C36        3.9580    3.3433    6.4527 C.ar      1 RES1    0.0000
     55 H19        3.8432    3.6357    5.5562 H         1 RES1    0.0000
     56 C37        3.5612    2.0649    6.8049 C.ar      1 RES1    0.0000
     57 H20        3.1871    1.4888    6.1500 H         1 RES1    0.0000
     58 C38        3.7087    1.6223    8.1168 C.ar      1 RES1    0.0000
     59 H21        3.4614    0.7351    8.3516 H         1 RES1    0.0000
     60 C39        4.2122    2.4728    9.0708 C.ar      1 RES1    0.0000
     61 H22        4.2865    2.1655    9.9662 H         1 RES1    0.0000
     62 C40        4.6241    3.7870    8.7636 C.ar      1 RES1    0.0000
@<TRIPOS>BOND
     1    1    2 ar
     2    2    3 1
     3    4    2 ar
     4    5    4 1
     5    6    4 ar
     6    7    6 1
     7    8    6 ar
     8    9    8 1
     9   10    1 ar
    10   11   10 ar
    11   12   11 ar
    12   13   12 ar
    13   14   13 1
    14   15   13 ar
    15   16   15 1
    16   17   15 ar
    17   18   17 1
    18   19   17 ar
    19   20   12 ar
    20   21   19 ar
    21   22   21 ar
    22   23   22 ar
    23   24   23 1
    24   25   23 ar
    25   26   25 1
    26   27   25 ar
    27   28   27 1
    28   29   27 ar
    29   30   29 1
    30   31   22 ar
    31   32   31 ar
    32   33   32 ar
    33   34   33 1
    34   35   33 ar
    35   36   35 1
    36   37   35 ar
    37   38   37 1
    38   39   37 ar
    39   40   39 1
    40   41   32 ar
    41   42   21 ar
    42   43   42 ar
    43   44   43 ar
    44   45   44 1
    45   46   44 ar
    46   47   46 1
    47   48   46 ar
    48   49   48 1
    49   50   48 ar
    50   51   20 ar
    51   52   11 ar
    52   53   52 ar
    53   54   53 ar
    54   55   54 1
    55   56   54 ar
    56   57   56 1
    57   58   56 ar
    58   59   58 1
    59   60   58 ar
    60   61   60 1
    61   62    1 ar
    62    8   10 ar
    63   19   20 ar
    64   29   31 ar
    65   39   41 ar
    66   41   42 ar
    67   43   51 ar
    68   50   51 ar
    69   50   52 ar
    70   53   62 ar
    71   60   62 ar
@<TRIPOS>SUBSTRUCTURE
     1 RES1 1

@<TRIPOS>CRYSIN
   7.8390   26.5380   11.6400  90.0000  98.6270  90.0000  14 2

