# MOL2 file generated by ConQuest
# Please check atom types

@<TRIPOS>MOLECULE
UPIXEY
    36    40     1
SMALL
NO_CHARGES
****
Generated from CSD

@<TRIPOS>ATOM
      1 C1        21.5324    7.5886    5.3149 C.ar      1 RES1    0.0000
      2 C2        20.6823    7.8754    6.3607 C.ar      1 RES1    0.0000
      3 C3        19.9237    6.8675    6.9419 C.ar      1 RES1    0.0000
      4 C4        19.9669    5.6008    6.4157 C.ar      1 RES1    0.0000
      5 C5        20.0462    2.8930    5.2386 C.ar      1 RES1    0.0000
      6 C6        19.9867    1.6779    4.6043 C.ar      1 RES1    0.0000
      7 C7        20.6483    1.4965    3.3846 C.ar      1 RES1    0.0000
      8 C8        21.3604    2.5288    2.8354 C.ar      1 RES1    0.0000
      9 C9        23.1257    4.6223    1.7866 C.ar      1 RES1    0.0000
     10 C10       24.1096    5.4758    1.4266 C.ar      1 RES1    0.0000
     11 C11       25.7291    7.2219    2.0444 C.ar      1 RES1    0.0000
     12 C12       26.2414    8.0908    2.9619 C.ar      1 RES1    0.0000
     13 C13       25.5796    8.2816    4.1810 C.ar      1 RES1    0.0000
     14 C14       24.3997    7.6247    4.4458 C.ar      1 RES1    0.0000
     15 C15       23.8163    6.7324    3.5105 C.ar      1 RES1    0.0000
     16 C16       24.5382    6.5027    2.3045 C.ar      1 RES1    0.0000
     17 C17       22.3916    4.8051    2.9992 C.ar      1 RES1    0.0000
     18 C18       22.6304    5.9407    3.7748 C.ar      1 RES1    0.0000
     19 C19       21.6772    6.2716    4.8342 C.ar      1 RES1    0.0000
     20 C20       20.8116    5.2786    5.3374 C.ar      1 RES1    0.0000
     21 C21       20.7806    3.9675    4.6983 C.ar      1 RES1    0.0000
     22 C22       21.4722    3.7796    3.4792 C.ar      1 RES1    0.0000
     23 H1        22.0160    8.3011    4.8774 H         1 RES1    0.0000
     24 H2        20.5783    8.7992    6.6510 H         1 RES1    0.0000
     25 H3        19.3156    7.0844    7.6501 H         1 RES1    0.0000
     26 H4        19.3756    4.9270    6.7633 H         1 RES1    0.0000
     27 H5        19.5931    2.9805    6.0834 H         1 RES1    0.0000
     28 H6        19.4806    0.9332    4.9661 H         1 RES1    0.0000
     29 H7        20.5958    0.6375    2.9205 H         1 RES1    0.0000
     30 H8        21.8110    2.3797    1.9983 H         1 RES1    0.0000
     31 H9        22.9087    3.8732    1.2415 H         1 RES1    0.0000
     32 H10       24.5614    5.3394    0.5853 H         1 RES1    0.0000
     33 H11       26.1967    7.0835    1.2474 H         1 RES1    0.0000
     34 H12       27.0943    8.5506    2.7846 H         1 RES1    0.0000
     35 H13       25.9667    8.8699    4.8656 H         1 RES1    0.0000
     36 H14       23.9788    7.7144    5.3326 H         1 RES1    0.0000
@<TRIPOS>BOND
     1    1    2 ar
     2    2    3 ar
     3    3    4 ar
     4    4   20 ar
     5    5    6 ar
     6    6    7 ar
     7    7    8 ar
     8    8   22 ar
     9    9   10 ar
    10   10   16 ar
    11   11   12 ar
    12   12   13 ar
    13   13   14 ar
    14   14   15 ar
    15   15   16 ar
    16   16   11 ar
    17   17    9 ar
    18   18   15 ar
    19   19    1 ar
    20   20   19 ar
    21   21    5 ar
    22   22   17 ar
    23   23    1 1
    24   24    2 1
    25   25    3 1
    26   26    4 1
    27   27    5 1
    28   28    6 1
    29   29    7 1
    30   30    8 1
    31   31    9 1
    32   32   10 1
    33   33   11 1
    34   34   12 1
    35   35   13 1
    36   36   14 1
    37   17   18 ar
    38   18   19 ar
    39   20   21 ar
    40   21   22 ar
@<TRIPOS>SUBSTRUCTURE
     1 RES1 1

@<TRIPOS>CRYSIN
  25.0040    9.4170    5.9120  90.0000  90.0000  90.0000  29 1

