# MOL2 file generated by ConQuest
# Please check atom types

@<TRIPOS>MOLECULE
URITIA
   420   462     6
SMALL
NO_CHARGES
****
Generated from CSD

@<TRIPOS>ATOM
      1 C1        13.4226    5.2919   19.9177 C.3       1 RES1    0.0000
      2 H1        14.0987    4.7226   19.5379 H         1 RES1    0.0000
      3 H2        13.5049    5.2815   20.8760 H         1 RES1    0.0000
      4 H3        13.5351    6.1855   19.5953 H         1 RES1    0.0000
      5 C2        21.9575    5.4305   11.3676 C.3       1 RES1    0.0000
      6 H4        22.7918    5.4942   11.8446 H         1 RES1    0.0000
      7 H5        21.9024    6.1515   10.7317 H         1 RES1    0.0000
      8 H6        21.9150    4.5930   10.9039 H         1 RES1    0.0000
      9 C3        11.6979    3.5187   20.2842 C.3       1 RES1    0.0000
     10 H7        12.3023    2.8205   20.0193 H         1 RES1    0.0000
     11 H8        10.7981    3.2479   20.1032 H         1 RES1    0.0000
     12 H9        11.8044    3.6905   21.2205 H         1 RES1    0.0000
     13 C4        20.9388    6.4348   13.5891 C.3       1 RES1    0.0000
     14 H10       20.0990    6.3960   14.0528 H         1 RES1    0.0000
     15 H11       21.1180    7.3450   13.3329 H         1 RES1    0.0000
     16 H12       21.6357    6.1252   14.1676 H         1 RES1    0.0000
     17 C5        21.0237    4.2737   13.2004 C.3       1 RES1    0.0000
     18 H13       20.3181    4.2633   13.8496 H         1 RES1    0.0000
     19 H14       21.8715    4.3097   13.6509 H         1 RES1    0.0000
     20 H15       20.9823    3.4827   12.6616 H         1 RES1    0.0000
     21 C6        13.6021    4.5085   13.4477 C.ar      1 RES1    0.0000
     22 C7        12.2799    4.2896   12.9310 C.ar      1 RES1    0.0000
     23 C8        15.9898    4.9089   13.0370 C.ar      1 RES1    0.0000
     24 C9        14.7119    4.6477   12.5424 C.ar      1 RES1    0.0000
     25 C10       14.5029    4.5120   11.1071 C.ar      1 RES1    0.0000
     26 C11       11.4085    4.2869   15.2540 C.ar      1 RES1    0.0000
     27 C12       12.7175    4.5501   15.7310 C.ar      1 RES1    0.0000
     28 C13       11.1829    4.1788   13.8364 C.ar      1 RES1    0.0000
     29 C14       12.0834    4.1837   11.5620 C.ar      1 RES1    0.0000
     30 C15       13.8181    4.6339   14.8477 C.ar      1 RES1    0.0000
     31 C16       13.2159    4.2439   10.6345 C.ar      1 RES1    0.0000
     32 C17       15.6035    4.6477   10.2238 C.ar      1 RES1    0.0000
     33 C18       17.1578    5.0557   12.1052 C.ar      1 RES1    0.0000
     34 C19       12.8862    4.6796   17.1486 C.ar      1 RES1    0.0000
     35 H16       13.7462    4.8244   17.4754 H         1 RES1    0.0000
     36 C20       16.9154    4.8881   10.7317 C.ar      1 RES1    0.0000
     37 C21       15.0920    4.9484   15.2805 C.ar      1 RES1    0.0000
     38 H17       15.2344    5.0841   16.1903 H         1 RES1    0.0000
     39 C22       11.8398    4.6006   18.0628 C.ar      1 RES1    0.0000
     40 C23       16.1692    5.0710   14.4149 C.ar      1 RES1    0.0000
     41 H18       17.0156    5.2614   14.7506 H         1 RES1    0.0000
     42 C24       15.3593    4.5078    8.8901 C.ar      1 RES1    0.0000
     43 H19       16.0861    4.5681    8.3160 H         1 RES1    0.0000
     44 C25       13.0031    4.1657    9.2611 C.ar      1 RES1    0.0000
     45 H20       12.1378    4.0368    8.9431 H         1 RES1    0.0000
     46 C26       10.6742    3.9682   11.0188 C.ar      1 RES1    0.0000
     47 H21       10.4871    3.9184   10.1090 H         1 RES1    0.0000
     48 C27       10.3638    4.1684   16.1991 C.ar      1 RES1    0.0000
     49 H22        9.5086    3.9696   15.8944 H         1 RES1    0.0000
     50 C28       14.0980    4.2799    8.3160 C.ar      1 RES1    0.0000
     51 H23       13.9676    4.2079    7.3974 H         1 RES1    0.0000
     52 C29       10.5563    4.3333   17.5505 C.ar      1 RES1    0.0000
     53 H24        9.8342    4.2682   18.1335 H         1 RES1    0.0000
     54 C30        9.9013    3.9648   13.3020 C.ar      1 RES1    0.0000
     55 H25        9.1641    3.8976   13.8673 H         1 RES1    0.0000
     56 C31       18.4168    5.3404   12.5601 C.ar      1 RES1    0.0000
     57 H26       18.5361    5.4505   13.4787 H         1 RES1    0.0000
     58 C32       19.2816    5.2642   10.3740 C.ar      1 RES1    0.0000
     59 H27       19.9989    5.2621    9.7822 H         1 RES1    0.0000
     60 C33       18.0388    5.0633    9.9058 C.ar      1 RES1    0.0000
     61 H28       17.9199    5.0329    8.9828 H         1 RES1    0.0000
     62 C34        9.7360    3.8574   11.9594 C.ar      1 RES1    0.0000
     63 H29        8.8692    3.6870   11.6591 H         1 RES1    0.0000
     64 C35       19.5164    5.4789   11.7519 C.ar      1 RES1    0.0000
     65 C36       12.0124    4.7655   19.5114 C.3       1 RES1    0.0000
     66 C37       20.8753    5.5205   12.2951 C.3       1 RES1    0.0000
     67 C38       11.0258    5.6036   20.0546 C.3       1 RES1    0.0000
     68 H30       11.1591    5.6722   21.0041 H         1 RES1    0.0000
     69 H31       10.1592    5.2289   19.8779 H         1 RES1    0.0000
     70 H32       11.0891    6.4715   19.6571 H         1 RES1    0.0000
     71 C39       -0.7758    0.7758    6.1431 C.3       2 RES2    0.0000
     72 H33       -0.6537    0.6996    7.0926 H         2 RES2    0.0000
     73 H34       -0.4022    0.0007    5.7103 H         2 RES2    0.0000
     74 H35       -1.7127    0.8312    5.9400 H         2 RES2    0.0000
     75 C40        9.3295    1.3091   -2.7337 C.3       2 RES2    0.0000
     76 H36        9.4315    0.3830   -2.4996 H         2 RES2    0.0000
     77 H37       10.1693    1.7600   -2.6321 H         2 RES2    0.0000
     78 H38        9.0363    1.3784   -3.6435 H         2 RES2    0.0000
     79 C41       -0.8017    3.3871    6.1829 C.3       2 RES2    0.0000
     80 H39       -0.2800    4.1144    5.8428 H         2 RES2    0.0000
     81 H40       -0.8144    3.4190    7.1412 H         2 RES2    0.0000
     82 H41       -1.6993    3.4529    5.8516 H         2 RES2    0.0000
     83 C42        6.9666    1.4269   -2.2877 C.3       2 RES2    0.0000
     84 H42        6.3399    1.8667   -1.7091 H         2 RES2    0.0000
     85 H43        6.8894    0.4745   -2.1728 H         2 RES2    0.0000
     86 H44        6.7795    1.6568   -3.1974 H         2 RES2    0.0000
     87 C43        8.0923    3.3386   -2.2612 C.3       2 RES2    0.0000
     88 H45        7.4501    3.6766   -1.6340 H         2 RES2    0.0000
     89 H46        7.7357    3.3899   -3.1488 H         2 RES2    0.0000
     90 H47        8.8974    3.8637   -2.2082 H         2 RES2    0.0000
     91 C44        8.6136    1.9755    4.6623 C.ar      2 RES2    0.0000
     92 C45        7.2052    1.9498    4.2353 C.ar      2 RES2    0.0000
     93 C46        6.1813    1.9658    5.1539 C.ar      2 RES2    0.0000
     94 C47        6.9466    1.9893    2.8490 C.ar      2 RES2    0.0000
     95 C48        9.6436    1.9727    3.7186 C.ar      2 RES2    0.0000
     96 C49        8.9008    2.0233    6.0535 C.ar      2 RES2    0.0000
     97 C50        6.4380    1.9852    6.5671 C.ar      2 RES2    0.0000
     98 C51        4.8290    1.9824    4.7431 C.ar      2 RES2    0.0000
     99 C52        7.9968    1.9921    1.8549 C.ar      2 RES2    0.0000
    100 C53        7.8302    2.0039    7.0264 C.ar      2 RES2    0.0000
    101 C54        9.3446    2.0066    2.3097 C.ar      2 RES2    0.0000
    102 C55        5.6228    1.9637    2.4378 C.ar      2 RES2    0.0000
    103 H48        5.4207    1.9471    1.5281 H         2 RES2    0.0000
    104 C56       10.2119    2.0808    6.4876 C.ar      2 RES2    0.0000
    105 H49       10.3990    2.0939    7.3974 H         2 RES2    0.0000
    106 C57        4.0345    1.9879    7.0617 C.ar      2 RES2    0.0000
    107 C58        3.7496    1.9678    5.7015 C.ar      2 RES2    0.0000
    108 C59       10.9860    2.0447    4.2220 C.ar      2 RES2    0.0000
    109 H50       11.6957    2.0413    3.6214 H         2 RES2    0.0000
    110 C60        4.6056    1.9637    3.3564 C.ar      2 RES2    0.0000
    111 H51        3.7273    1.9505    3.0473 H         2 RES2    0.0000
    112 C61        2.4019    1.9713    5.2643 C.ar      2 RES2    0.0000
    113 H52        2.2319    1.9644    4.3501 H         2 RES2    0.0000
    114 C62        8.0564    1.9796    8.4308 C.ar      2 RES2    0.0000
    115 H53        8.9324    1.9401    8.7532 H         2 RES2    0.0000
    116 C63        5.4141    2.0184    7.4989 C.ar      2 RES2    0.0000
    117 C64       10.3121    1.9533    1.3470 C.ar      2 RES2    0.0000
    118 H54       11.1976    1.8826    1.6252 H         2 RES2    0.0000
    119 C65        7.7731    1.9741    0.4902 C.ar      2 RES2    0.0000
    120 H55        6.8968    1.9131    0.1899 H         2 RES2    0.0000
    121 C66       11.2446    2.1188    5.5646 C.ar      2 RES2    0.0000
    122 H56       12.1218    2.1957    5.8605 H         2 RES2    0.0000
    123 C67        5.7398    1.9879    8.8592 C.ar      2 RES2    0.0000
    124 H57        5.0425    1.9505    9.4775 H         2 RES2    0.0000
    125 C68        8.7804    2.0433   -0.4549 C.ar      2 RES2    0.0000
    126 C69        7.0168    2.0129    9.3185 C.ar      2 RES2    0.0000
    127 H58        7.1812    2.0524   10.2327 H         2 RES2    0.0000
    128 C70        1.6154    1.8286    7.5122 C.ar      2 RES2    0.0000
    129 H59        0.9356    1.6374    8.1216 H         2 RES2    0.0000
    130 C71       10.0698    2.0087   -0.0088 C.ar      2 RES2    0.0000
    131 H60       10.7771    2.0191   -0.6139 H         2 RES2    0.0000
    132 C72        2.9463    1.9602    7.9317 C.ar      2 RES2    0.0000
    133 H61        3.1110    2.0413    8.8415 H         2 RES2    0.0000
    134 C73       -0.1258    1.9256    5.6794 C.3       2 RES2    0.0000
    135 C74        1.3240    1.9810    6.1431 C.ar      2 RES2    0.0000
    136 C75       -0.2793    2.1126    4.2044 C.3       2 RES2    0.0000
    137 H62        0.1232    2.9493    3.9482 H         2 RES2    0.0000
    138 H63       -1.2142    2.1265    3.9791 H         2 RES2    0.0000
    139 H64        0.1529    1.3964    3.7406 H         2 RES2    0.0000
    140 C76        8.4195    1.8771   -1.9211 C.3       2 RES2    0.0000
    141 C77        1.5391    5.2850   -2.3583 C.3       3 RES3    0.0000
    142 H65        1.0081    6.0407   -2.1022 H         3 RES3    0.0000
    143 H66        1.1846    4.4905   -1.9520 H         3 RES3    0.0000
    144 H67        1.5235    5.1887   -3.3123 H         3 RES3    0.0000
    145 C78        2.9063    5.4859   -1.9079 C.3       3 RES3    0.0000
    146 C79        3.3729    3.9343   -2.3186 C.3       3 RES3    0.0000
    147 H68        4.3137    3.8353   -2.1596 H         3 RES3    0.0000
    148 H69        3.1874    3.7812   -3.2460 H         3 RES3    0.0000
    149 H70        2.8893    3.3061   -1.7798 H         3 RES3    0.0000
    150 C80        3.8722    6.2616   -2.7205 C.3       3 RES3    0.0000
    151 H71        4.7407    6.2159   -2.3142 H         3 RES3    0.0000
    152 H72        3.5857    7.1780   -2.7646 H         3 RES3    0.0000
    153 H73        3.9121    5.8980   -3.6081 H         3 RES3    0.0000
    154 C81       10.2121    5.4540    5.0620 C.ar      3 RES3    0.0000
    155 C82        7.5315    5.4277    4.0644 C.ar      3 RES3    0.0000
    156 C83        7.7567    5.4395    5.4233 C.ar      3 RES3    0.0000
    157 C84        9.1005    5.4561    5.9616 C.ar      3 RES3    0.0000
    158 C85        6.1867    5.4824    3.5375 C.ar      3 RES3    0.0000
    159 C86        9.9980    5.4187    3.6837 C.ar      3 RES3    0.0000
    160 C87        8.6055    5.4720    3.1665 C.ar      3 RES3    0.0000
    161 C88        5.0917    5.4408    4.4517 C.ar      3 RES3    0.0000
    162 C89        5.9860    5.4034    2.1287 C.ar      3 RES3    0.0000
    163 C90        6.6647    5.4277    6.3551 C.ar      3 RES3    0.0000
    164 C91        9.2420    5.4782    7.3709 C.ar      3 RES3    0.0000
    165 H74       10.1015    5.5018    7.7286 H         3 RES3    0.0000
    166 C92        4.6337    5.4464    1.5855 C.ar      3 RES3    0.0000
    167 C93       11.5203    5.4589    5.5160 C.ar      3 RES3    0.0000
    168 H75       11.6914    5.4734    6.4302 H         3 RES3    0.0000
    169 C94       12.4191    5.4838    3.2548 C.ar      3 RES3    0.0000
    170 C95        3.5502    5.3944    2.4643 C.ar      3 RES3    0.0000
    171 C96       11.0924    5.4478    2.8265 C.ar      3 RES3    0.0000
    172 H76       10.9320    5.4429    1.9123 H         3 RES3    0.0000
    173 C97        3.7352    5.4658    3.8996 C.ar      3 RES3    0.0000
    174 C98        5.2737    5.4118    5.8075 C.ar      3 RES3    0.0000
    175 C99       12.5819    5.4422    4.6195 C.ar      3 RES3    0.0000
    176 H77       13.4470    5.4014    4.9640 H         3 RES3    0.0000
    177 C100       6.9058    5.4228    7.6800 C.ar      3 RES3    0.0000
    178 H78        6.1786    5.3882    8.2585 H         3 RES3    0.0000
    179 C101       8.3404    5.3958    1.8284 C.ar      3 RES3    0.0000
    180 H79        9.0642    5.3141    1.2498 H         3 RES3    0.0000
    181 C102       7.0793    5.4318    1.2763 C.ar      3 RES3    0.0000
    182 H80        6.9661    5.4748    0.3533 H         3 RES3    0.0000
    183 C103      13.6146    5.4519    2.3539 C.3       3 RES3    0.0000
    184 C104       4.2107    5.4097    6.6510 C.ar      3 RES3    0.0000
    185 H81        4.3467    5.4201    7.5696 H         3 RES3    0.0000
    186 C105       4.4161    5.3958    0.2032 C.ar      3 RES3    0.0000
    187 H82        5.1633    5.3556   -0.3489 H         3 RES3    0.0000
    188 C106       2.2356    5.4789    1.9255 C.ar      3 RES3    0.0000
    189 H83        1.4931    5.4990    2.4864 H         3 RES3    0.0000
    190 C107       8.1802    5.4665    8.2321 C.ar      3 RES3    0.0000
    191 H84        8.3107    5.4866    9.1506 H         3 RES3    0.0000
    192 C108       3.1635    5.4027   -0.4063 C.ar      3 RES3    0.0000
    193 C109       2.9220    5.3958    6.1343 C.ar      3 RES3    0.0000
    194 H85        2.1899    5.3612    6.7040 H         3 RES3    0.0000
    195 C110       2.7391    5.4443    4.8006 C.ar      3 RES3    0.0000
    196 H86        1.8687    5.4561    4.4782 H         3 RES3    0.0000
    197 C111       2.0854    5.5344    0.5388 C.ar      3 RES3    0.0000
    198 H87        1.2273    5.6708    0.2032 H         3 RES3    0.0000
    199 C112      13.2218    5.5621    0.8435 C.3       3 RES3    0.0000
    200 H88       14.0181    5.5184    0.3047 H         3 RES3    0.0000
    201 H89       12.7777    6.3960    0.6889 H         3 RES3    0.0000
    202 H90       12.6391    4.8362    0.6139 H         3 RES3    0.0000
    203 C113      14.4400    4.2294    2.5924 C.3       3 RES3    0.0000
    204 H91       15.1855    4.2266    1.9962 H         3 RES3    0.0000
    205 H92       13.9009    3.4481    2.4378 H         3 RES3    0.0000
    206 H93       14.7499    4.2273    3.5022 H         3 RES3    0.0000
    207 C114      14.4507    6.7811    2.5968 C.3       3 RES3    0.0000
    208 H94       15.2275    6.7777    2.0271 H         3 RES3    0.0000
    209 H95       14.7264    6.8241    3.5154 H         3 RES3    0.0000
    210 H96       13.9052    7.5438    2.3892 H         3 RES3    0.0000
    211 C115      -3.5692    2.1611   19.0786 C.3       4 RES4    0.0000
    212 H97       -2.7903    1.6146   19.2376 H         4 RES4    0.0000
    213 H98       -4.2837    1.8667   19.6394 H         4 RES4    0.0000
    214 H99       -3.3575    3.0761   19.2729 H         4 RES4    0.0000
    215 C116      -5.1749    2.6183   17.1663 C.3       4 RES4    0.0000
    216 H100      -5.2706    2.3890   16.2345 H         4 RES4    0.0000
    217 H101      -5.1384    3.5700   17.2590 H         4 RES4    0.0000
    218 H102      -5.9278    2.2726   17.6565 H         4 RES4    0.0000
    219 C117       7.7038    3.3525   21.8653 C.3       4 RES4    0.0000
    220 H103       7.8654    3.3178   22.8104 H         4 RES4    0.0000
    221 H104       7.2990    4.1947   21.6445 H         4 RES4    0.0000
    222 H105       8.5333    3.2652   21.3927 H         4 RES4    0.0000
    223 C118      -3.9691    2.0433   17.6742 C.3       4 RES4    0.0000
    224 C119      -4.4951    0.6165   17.8111 C.3       4 RES4    0.0000
    225 H106      -3.8006    0.0513   18.1644 H         4 RES4    0.0000
    226 H107      -4.7647    0.2902   16.9499 H         4 RES4    0.0000
    227 H108      -5.2466    0.6075   18.4117 H         4 RES4    0.0000
    228 C120       3.3556    2.2276   16.2124 C.ar      4 RES4    0.0000
    229 C121       4.4770    2.1680   15.3026 C.ar      4 RES4    0.0000
    230 C122       2.0237    2.2158   15.7045 C.ar      4 RES4    0.0000
    231 C123       0.4429    2.1431   13.8011 C.ar      4 RES4    0.0000
    232 C124       5.8132    2.1881   15.7884 C.ar      4 RES4    0.0000
    233 C125       6.0581    2.2380   17.1840 C.ar      4 RES4    0.0000
    234 C126       1.7754    2.1535   14.3089 C.ar      4 RES4    0.0000
    235 C127       3.6137    2.2671   17.5859 C.ar      4 RES4    0.0000
    236 C128       4.9805    2.2809   18.1158 C.ar      4 RES4    0.0000
    237 C129      -0.6693    2.1334   14.7329 C.ar      4 RES4    0.0000
    238 C130      -0.4245    2.1403   16.1240 C.ar      4 RES4    0.0000
    239 C131       0.9509    2.1971   16.6010 C.ar      4 RES4    0.0000
    240 C132       4.2182    2.1161   13.9070 C.ar      4 RES4    0.0000
    241 C133       2.8589    2.1251   13.3859 C.ar      4 RES4    0.0000
    242 C134       6.8411    2.1569   14.8433 C.ar      4 RES4    0.0000
    243 H109       7.7217    2.1860   15.1392 H         4 RES4    0.0000
    244 C135       5.2634    2.2373   19.4805 C.ar      4 RES4    0.0000
    245 H110       4.5409    2.1950   20.0678 H         4 RES4    0.0000
    246 C136       5.3064    2.0406   13.0370 C.ar      4 RES4    0.0000
    247 H111       5.1588    1.9588   12.1228 H         4 RES4    0.0000
    248 C137       7.3507    2.2130   17.7448 C.ar      4 RES4    0.0000
    249 H112       8.0874    2.2124   17.1795 H         4 RES4    0.0000
    250 C138       6.5110    2.2650   20.0193 C.ar      4 RES4    0.0000
    251 C139       2.5084    2.2442   18.4338 C.ar      4 RES4    0.0000
    252 H113       2.6444    2.2484   19.3524 H         4 RES4    0.0000
    253 C140       2.5787    2.1195   12.0610 C.ar      4 RES4    0.0000
    254 H114       3.2911    2.1355   11.4604 H         4 RES4    0.0000
    255 C141       7.5490    2.1909   19.0874 C.ar      4 RES4    0.0000
    256 H115       8.4202    2.1244   19.4010 H         4 RES4    0.0000
    257 C142      -1.5084    2.2789   17.0073 C.ar      4 RES4    0.0000
    258 H116      -1.3433    2.4222   17.9127 H         4 RES4    0.0000
    259 C143       0.2519    2.0711   12.4143 C.ar      4 RES4    0.0000
    260 H117      -0.6117    2.0136   12.0787 H         4 RES4    0.0000
    261 C144      -2.0081    2.1334   14.3398 C.ar      4 RES4    0.0000
    262 H118      -2.2008    2.0690   13.4301 H         4 RES4    0.0000
    263 C145       1.3055    2.0918   11.5576 C.ar      4 RES4    0.0000
    264 H119       1.1643    2.0808   10.6345 H         4 RES4    0.0000
    265 C146       6.5939    2.0842   13.5052 C.ar      4 RES4    0.0000
    266 H120       7.3063    2.0648   12.9045 H         4 RES4    0.0000
    267 C147      -2.8202    2.2096   16.5613 C.ar      4 RES4    0.0000
    268 C148      -3.0465    2.2096   15.2143 C.ar      4 RES4    0.0000
    269 H121      -3.9169    2.2698   14.8919 H         4 RES4    0.0000
    270 C149       6.8053    2.2581   21.4811 C.3       4 RES4    0.0000
    271 C150       5.5472    2.3066   22.3776 C.3       4 RES4    0.0000
    272 H122       5.8113    2.2955   23.3006 H         4 RES4    0.0000
    273 H123       4.9941    1.5439   22.1921 H         4 RES4    0.0000
    274 H124       5.0551    3.1100   22.1965 H         4 RES4    0.0000
    275 C151       7.5658    0.9489   21.9094 C.3       4 RES4    0.0000
    276 H125       7.7390    0.9704   22.8501 H         4 RES4    0.0000
    277 H126       8.4013    0.8970   21.4325 H         4 RES4    0.0000
    278 H127       7.0318    0.1822   21.6975 H         4 RES4    0.0000
    279 C152       1.2397    2.2165   17.9436 C.ar      4 RES4    0.0000
    280 H128       0.5324    2.2068   18.5486 H         4 RES4    0.0000
    281 C153      -2.5268    4.2114    9.9412 C.3       5 RES5    0.0000
    282 H129      -2.3055    3.4827   10.5285 H         5 RES5    0.0000
    283 H130      -2.0404    4.1199    9.1197 H         5 RES5    0.0000
    284 H131      -3.4705    4.1927    9.7513 H         5 RES5    0.0000
    285 C154       1.4274    5.8807   23.0489 C.3       5 RES5    0.0000
    286 H132       0.6963    5.8350   23.6716 H         5 RES5    0.0000
    287 H133       1.8412    6.7458   23.1063 H         5 RES5    0.0000
    288 H134       2.0735    5.2019   23.2564 H         5 RES5    0.0000
    289 C155      -2.5586    6.7188    9.7336 C.3       5 RES5    0.0000
    290 H135      -2.0243    6.7098    8.9387 H         5 RES5    0.0000
    291 H136      -2.4112    7.5382   10.2106 H         5 RES5    0.0000
    292 H137      -3.4816    6.6426    9.4995 H         5 RES5    0.0000
    293 C156      -0.1073    4.7101   21.4060 C.3       5 RES5    0.0000
    294 H138      -0.3088    4.7295   20.4697 H         5 RES5    0.0000
    295 H139      -0.8949    4.9179   21.9094 H         5 RES5    0.0000
    296 H140       0.2010    3.8304   21.6445 H         5 RES5    0.0000
    297 C157       0.0153    7.0513   21.4722 C.3       5 RES5    0.0000
    298 H141      -0.3298    7.0589   20.5801 H         5 RES5    0.0000
    299 H142       0.5607    7.8250   21.6180 H         5 RES5    0.0000
    300 H143      -0.7163    7.0527   22.0993 H         5 RES5    0.0000
    301 C158       4.6518    5.6701   16.2124 C.ar      5 RES5    0.0000
    302 C159       2.8605    5.6376   14.4723 C.ar      5 RES5    0.0000
    303 C160       3.2418    5.6424   15.8414 C.ar      5 RES5    0.0000
    304 C161       2.2504    5.7186   16.8837 C.ar      5 RES5    0.0000
    305 C162       4.9885    5.6763   17.6123 C.ar      5 RES5    0.0000
    306 C163       1.5119    5.5988   14.1323 C.ar      5 RES5    0.0000
    307 C164       3.8897    5.5648   13.4566 C.ar      5 RES5    0.0000
    308 C165       5.6382    5.6660   15.2319 C.ar      5 RES5    0.0000
    309 C166       3.9814    5.7380   18.6369 C.ar      5 RES5    0.0000
    310 C167       2.6063    5.7144   18.2748 C.ar      5 RES5    0.0000
    311 C168       5.2751    5.5683   13.8275 C.ar      5 RES5    0.0000
    312 C169       1.6715    5.7560   19.2464 C.ar      5 RES5    0.0000
    313 H144       0.7775    5.8280   18.9947 H         5 RES5    0.0000
    314 C170       0.5364    5.6895   15.1348 C.ar      5 RES5    0.0000
    315 H145      -0.3607    5.7816   14.9051 H         5 RES5    0.0000
    316 C171       1.0964    5.5551   12.7146 C.ar      5 RES5    0.0000
    317 C172       2.1231    5.5690   11.7210 C.ar      5 RES5    0.0000
    318 C173       6.3603    5.7006   17.9480 C.ar      5 RES5    0.0000
    319 H146       6.6216    5.6860   18.8401 H         5 RES5    0.0000
    320 C174       0.9018    5.6438   16.4509 C.ar      5 RES5    0.0000
    321 H147       0.2373    5.5593   17.0956 H         5 RES5    0.0000
    322 C175       6.9752    5.7110   15.6206 C.ar      5 RES5    0.0000
    323 H148       7.6521    5.7248   14.9802 H         5 RES5    0.0000
    324 C176       3.5249    5.5136   12.0963 C.ar      5 RES5    0.0000
    325 C177       4.2971    5.7906   19.9839 C.ar      5 RES5    0.0000
    326 H149       5.1969    5.8211   20.2268 H         5 RES5    0.0000
    327 C178      -0.2544    5.5344   12.3304 C.ar      5 RES5    0.0000
    328 H150      -0.9057    5.5524   12.9973 H         5 RES5    0.0000
    329 C179       1.9668    5.6867   20.6287 C.ar      5 RES5    0.0000
    330 C180       7.2853    5.7352   16.9676 C.ar      5 RES5    0.0000
    331 H151       8.1851    5.7796   17.2105 H         5 RES5    0.0000
    332 C181       3.3187    5.7976   20.9997 C.ar      5 RES5    0.0000
    333 H152       3.5572    5.8758   21.8962 H         5 RES5    0.0000
    334 C182       0.3414    5.4928   10.0295 C.ar      5 RES5    0.0000
    335 H153       0.0973    5.5226    9.1330 H         5 RES5    0.0000
    336 C183       4.4925    5.4374   11.0762 C.ar      5 RES5    0.0000
    337 H154       4.2592    5.3466   10.1841 H         5 RES5    0.0000
    338 C184       1.6490    5.4582   10.3342 C.ar      5 RES5    0.0000
    339 H155       2.2684    5.3550    9.6497 H         5 RES5    0.0000
    340 C185      -2.1625    5.5482   10.6169 C.3       5 RES5    0.0000
    341 C186      -0.6777    5.4859   11.0011 C.ar      5 RES5    0.0000
    342 C187       6.2037    5.6036   12.8074 C.ar      5 RES5    0.0000
    343 H156       7.1007    5.6978   13.0194 H         5 RES5    0.0000
    344 C188      -3.1155    5.7144   11.8490 C.3       5 RES5    0.0000
    345 H157      -2.9587    5.0010   12.4717 H         5 RES5    0.0000
    346 H158      -4.0274    5.6833   11.5531 H         5 RES5    0.0000
    347 H159      -2.9410    6.5560   12.2730 H         5 RES5    0.0000
    348 C189       0.9274    5.6798   21.7019 C.3       5 RES5    0.0000
    349 C190       5.8298    5.5066   11.4869 C.ar      5 RES5    0.0000
    350 H160       6.4963    5.4845   10.8377 H         5 RES5    0.0000
    351 C191      16.6674    2.1195    5.6132 C.3       6 RES6    0.0000
    352 H161      17.3930    2.1957    4.9905 H         6 RES6    0.0000
    353 H162      16.5028    2.9784    6.0195 H         6 RES6    0.0000
    354 H163      15.8766    1.8328    5.1494 H         6 RES6    0.0000
    355 C192      18.3135    1.8217    7.3223 C.3       6 RES6    0.0000
    356 H164      18.6136    1.2468    8.0289 H         6 RES6    0.0000
    357 H165      18.0914    2.6854    7.6844 H         6 RES6    0.0000
    358 H166      19.0083    1.9214    6.6687 H         6 RES6    0.0000
    359 C193      19.8411    2.3758   17.0117 C.3       6 RES6    0.0000
    360 H167      20.0032    1.5758   16.5083 H         6 RES6    0.0000
    361 H168      20.6356    2.6169   17.4975 H         6 RES6    0.0000
    362 H169      19.6098    3.0900   16.4111 H         6 RES6    0.0000
    363 C194      19.1092    1.5654   19.2111 C.3       6 RES6    0.0000
    364 H170      18.3277    1.6077   19.7719 H         6 RES6    0.0000
    365 H171      19.8262    2.0537   19.6262 H         6 RES6    0.0000
    366 H172      19.3656    0.6525   19.0918 H         6 RES6    0.0000
    367 C195      17.1620   -0.1662    5.8914 C.3       6 RES6    0.0000
    368 H173      17.4125   -0.8444    6.5273 H         6 RES6    0.0000
    369 H174      17.8468   -0.0900    5.2245 H         6 RES6    0.0000
    370 H175      16.3333   -0.4107    5.4763 H         6 RES6    0.0000
    371 C196      18.8342    3.7196   18.4117 C.3       6 RES6    0.0000
    372 H176      18.1349    3.8595   19.0521 H         6 RES6    0.0000
    373 H177      18.7055    4.3035   17.6609 H         6 RES6    0.0000
    374 H178      19.6859    3.9011   18.8180 H         6 RES6    0.0000
    375 C197      14.1854    1.0757   12.2907 C.ar      6 RES6    0.0000
    376 C198      12.8424    0.8402   11.7563 C.ar      6 RES6    0.0000
    377 C199      13.3139    1.1186   14.5518 C.ar      6 RES6    0.0000
    378 C200      11.8064    0.7356   12.6661 C.ar      6 RES6    0.0000
    379 C201      15.0630    1.0605    9.8970 C.ar      6 RES6    0.0000
    380 C202      14.3954    1.2135   13.6951 C.ar      6 RES6    0.0000
    381 C203      12.6000    0.7411   10.3386 C.ar      6 RES6    0.0000
    382 C204      13.7249    0.7896    9.4333 C.ar      6 RES6    0.0000
    383 C205      15.2680    1.1893   11.3588 C.ar      6 RES6    0.0000
    384 C206      11.9810    0.8575   14.0925 C.ar      6 RES6    0.0000
    385 C207      15.6889    1.4913   14.1588 C.ar      6 RES6    0.0000
    386 C208      13.5308    1.2378   16.0048 C.ar      6 RES6    0.0000
    387 C209      10.9180    0.7605   15.0553 C.ar      6 RES6    0.0000
    388 H179      10.0524    0.6192   14.7417 H         6 RES6    0.0000
    389 C210      15.9185    1.6374   15.5941 C.ar      6 RES6    0.0000
    390 C211      12.4270    1.1380   16.8616 C.ar      6 RES6    0.0000
    391 H180      12.5522    1.2551   17.7758 H         6 RES6    0.0000
    392 C212      17.1827    1.9214   16.1417 C.ar      6 RES6    0.0000
    393 H181      17.8990    2.0191   15.5543 H         6 RES6    0.0000
    394 C213      16.0822    1.1623    8.9872 C.ar      6 RES6    0.0000
    395 H182      16.9411    1.2939    9.3141 H         6 RES6    0.0000
    396 C214      14.8319    1.5571   16.5083 C.ar      6 RES6    0.0000
    397 C215      16.5276    1.4698   11.8888 C.ar      6 RES6    0.0000
    398 H183      17.2492    1.5640   11.3102 H         6 RES6    0.0000
    399 C216      16.3421    1.9533   18.3013 C.ar      6 RES6    0.0000
    400 H184      16.4837    2.0108   19.2199 H         6 RES6    0.0000
    401 C217      10.2935    0.4502   12.1582 C.ar      6 RES6    0.0000
    402 H185       9.5367    0.3602   12.6926 H         6 RES6    0.0000
    403 C218      11.0964    0.8617   16.3758 C.ar      6 RES6    0.0000
    404 H186      10.3852    0.7564   16.9631 H         6 RES6    0.0000
    405 C219      16.7412    1.6132   13.2534 C.ar      6 RES6    0.0000
    406 H187      17.5956    1.7919   13.5670 H         6 RES6    0.0000
    407 C220      11.2815    0.4627    9.9677 C.ar      6 RES6    0.0000
    408 H188      11.0538    0.3443    9.0756 H         6 RES6    0.0000
    409 C221      15.1025    1.7732   17.8597 C.ar      6 RES6    0.0000
    410 H189      14.4008    1.7857   18.4647 H         6 RES6    0.0000
    411 C222      15.9249    1.0840    7.6182 C.ar      6 RES6    0.0000
    412 C223      13.5852    0.6663    8.1172 C.ar      6 RES6    0.0000
    413 H190      12.7307    0.4655    7.8037 H         6 RES6    0.0000
    414 C224      14.5911    0.8097    7.1677 C.ar      6 RES6    0.0000
    415 H191      14.4037    0.7294    6.2624 H         6 RES6    0.0000
    416 C225      17.4228    2.0614   17.4534 C.ar      6 RES6    0.0000
    417 C226      10.3346    0.3699   10.9437 C.ar      6 RES6    0.0000
    418 H192       9.4957    0.2002   10.5815 H         6 RES6    0.0000
    419 C227      16.9970    1.1844    6.6157 C.3       6 RES6    0.0000
    420 C228      18.8012    2.1680   17.9038 C.3       6 RES6    0.0000
@<TRIPOS>BOND
     1    1    2 1
     2    3    1 1
     3    4    1 1
     4    5    6 1
     5    7    5 1
     6    8    5 1
     7    9   10 1
     8   11    9 1
     9   12    9 1
    10   13   14 1
    11   15   13 1
    12   16   13 1
    13   17   18 1
    14   19   17 1
    15   20   17 1
    16   21   22 ar
    17   22   28 ar
    18   23   24 ar
    19   24   21 ar
    20   25   24 ar
    21   26   27 ar
    22   27   30 ar
    23   28   26 ar
    24   29   22 ar
    25   30   21 ar
    26   31   25 ar
    27   32   25 ar
    28   33   23 ar
    29   34   27 ar
    30   35   34 1
    31   36   32 ar
    32   37   30 ar
    33   38   37 1
    34   39   34 ar
    35   40   23 ar
    36   41   40 1
    37   42   32 ar
    38   43   42 1
    39   44   31 ar
    40   45   44 1
    41   46   29 ar
    42   47   46 1
    43   48   26 ar
    44   49   48 1
    45   50   42 ar
    46   51   50 1
    47   52   39 ar
    48   53   52 1
    49   54   28 ar
    50   55   54 1
    51   56   33 ar
    52   57   56 1
    53   58   59 1
    54   60   36 ar
    55   61   60 1
    56   62   46 ar
    57   63   62 1
    58   64   56 ar
    59   65    1 1
    60   66    5 1
    61   67   65 1
    62   68   67 1
    63   69   67 1
    64   70   67 1
    65   71   72 1
    66   73   71 1
    67   74   71 1
    68   75   76 1
    69   77   75 1
    70   78   75 1
    71   79   80 1
    72   81   79 1
    73   82   79 1
    74   83   84 1
    75   85   83 1
    76   86   83 1
    77   87   88 1
    78   89   87 1
    79   90   87 1
    80   91   92 ar
    81   92   93 ar
    82   93   97 ar
    83   94   92 ar
    84   95   91 ar
    85   96   91 ar
    86   97  100 ar
    87   98   93 ar
    88   99   94 ar
    89  100   96 ar
    90  101   95 ar
    91  102   94 ar
    92  103  102 1
    93  104   96 ar
    94  105  104 1
    95  106  107 ar
    96  107   98 ar
    97  108   95 ar
    98  109  108 1
    99  110   98 ar
   100  111  110 1
   101  112  107 ar
   102  113  112 1
   103  114  100 ar
   104  115  114 1
   105  116   97 ar
   106  117  101 ar
   107  118  117 1
   108  119   99 ar
   109  120  119 1
   110  121  104 ar
   111  122  121 1
   112  123  116 ar
   113  124  123 1
   114  125  119 ar
   115  126  114 ar
   116  127  126 1
   117  128  129 1
   118  130  117 ar
   119  131  130 1
   120  132  106 ar
   121  133  132 1
   122  134   71 1
   123  135  112 ar
   124  136  134 1
   125  137  136 1
   126  138  136 1
   127  139  136 1
   128  140   75 1
   129  141  142 1
   130  143  141 1
   131  144  141 1
   132  145  141 1
   133  146  145 1
   134  147  146 1
   135  148  146 1
   136  149  146 1
   137  150  145 1
   138  151  150 1
   139  152  150 1
   140  153  150 1
   141  154  157 ar
   142  155  156 ar
   143  156  157 ar
   144  157  164 ar
   145  158  155 ar
   146  159  154 ar
   147  160  155 ar
   148  161  158 ar
   149  162  158 ar
   150  163  156 ar
   151  164  165 1
   152  166  162 ar
   153  167  154 ar
   154  168  167 1
   155  169  171 ar
   156  170  166 ar
   157  171  159 ar
   158  172  171 1
   159  173  161 ar
   160  174  161 ar
   161  175  167 ar
   162  176  175 1
   163  177  163 ar
   164  178  177 1
   165  179  160 ar
   166  180  179 1
   167  181  162 ar
   168  182  181 1
   169  183  169 1
   170  184  174 ar
   171  185  184 1
   172  186  166 ar
   173  187  186 1
   174  188  170 ar
   175  189  188 1
   176  190  164 ar
   177  191  190 1
   178  192  145 1
   179  193  184 ar
   180  194  193 1
   181  195  173 ar
   182  196  195 1
   183  197  188 ar
   184  198  197 1
   185  199  183 1
   186  200  199 1
   187  201  199 1
   188  202  199 1
   189  203  183 1
   190  204  203 1
   191  205  203 1
   192  206  203 1
   193  207  183 1
   194  208  207 1
   195  209  207 1
   196  210  207 1
   197  211  212 1
   198  213  211 1
   199  214  211 1
   200  215  216 1
   201  217  215 1
   202  218  215 1
   203  219  220 1
   204  221  219 1
   205  222  219 1
   206  223  211 1
   207  224  223 1
   208  225  224 1
   209  226  224 1
   210  227  224 1
   211  228  229 ar
   212  229  232 ar
   213  230  228 ar
   214  231  234 ar
   215  232  233 ar
   216  233  236 ar
   217  234  230 ar
   218  235  228 ar
   219  236  235 ar
   220  237  231 ar
   221  238  237 ar
   222  239  230 ar
   223  240  229 ar
   224  241  234 ar
   225  242  232 ar
   226  243  242 1
   227  244  236 ar
   228  245  244 1
   229  246  240 ar
   230  247  246 1
   231  248  233 ar
   232  249  248 1
   233  250  244 ar
   234  251  235 ar
   235  252  251 1
   236  253  241 ar
   237  254  253 1
   238  255  248 ar
   239  256  255 1
   240  257  238 ar
   241  258  257 1
   242  259  231 ar
   243  260  259 1
   244  261  237 ar
   245  262  261 1
   246  263  253 ar
   247  264  263 1
   248  265  242 ar
   249  266  265 1
   250  267  223 1
   251  268  261 ar
   252  269  268 1
   253  270  219 1
   254  271  270 1
   255  272  271 1
   256  273  271 1
   257  274  271 1
   258  275  270 1
   259  276  275 1
   260  277  275 1
   261  278  275 1
   262  279  239 ar
   263  280  279 1
   264  281  282 1
   265  283  281 1
   266  284  281 1
   267  285  286 1
   268  287  285 1
   269  288  285 1
   270  289  290 1
   271  291  289 1
   272  292  289 1
   273  293  294 1
   274  295  293 1
   275  296  293 1
   276  297  298 1
   277  299  297 1
   278  300  297 1
   279  301  303 ar
   280  302  303 ar
   281  303  304 ar
   282  304  310 ar
   283  305  301 ar
   284  306  302 ar
   285  307  302 ar
   286  308  301 ar
   287  309  305 ar
   288  310  309 ar
   289  311  307 ar
   290  312  310 ar
   291  313  312 1
   292  314  306 ar
   293  315  314 1
   294  316  306 ar
   295  317  316 ar
   296  318  305 ar
   297  319  318 1
   298  320  304 ar
   299  321  320 1
   300  322  308 ar
   301  323  322 1
   302  324  307 ar
   303  325  309 ar
   304  326  325 1
   305  327  316 ar
   306  328  327 1
   307  329  312 ar
   308  330  318 ar
   309  331  330 1
   310  332  325 ar
   311  333  332 1
   312  334  335 1
   313  336  324 ar
   314  337  336 1
   315  338  317 ar
   316  339  338 1
   317  340  281 1
   318  341  327 ar
   319  342  311 ar
   320  343  342 1
   321  344  340 1
   322  345  344 1
   323  346  344 1
   324  347  344 1
   325  348  285 1
   326  349  336 ar
   327  350  349 1
   328  351  352 1
   329  353  351 1
   330  354  351 1
   331  355  356 1
   332  357  355 1
   333  358  355 1
   334  359  360 1
   335  361  359 1
   336  362  359 1
   337  363  364 1
   338  365  363 1
   339  366  363 1
   340  367  368 1
   341  369  367 1
   342  370  367 1
   343  371  372 1
   344  373  371 1
   345  374  371 1
   346  375  376 ar
   347  376  378 ar
   348  377  380 ar
   349  378  384 ar
   350  379  382 ar
   351  380  375 ar
   352  381  376 ar
   353  382  381 ar
   354  383  375 ar
   355  384  377 ar
   356  385  380 ar
   357  386  377 ar
   358  387  384 ar
   359  388  387 1
   360  389  385 ar
   361  390  386 ar
   362  391  390 1
   363  392  389 ar
   364  393  392 1
   365  394  379 ar
   366  395  394 1
   367  396  386 ar
   368  397  383 ar
   369  398  397 1
   370  399  400 1
   371  401  378 ar
   372  402  401 1
   373  403  387 ar
   374  404  403 1
   375  405  385 ar
   376  406  405 1
   377  407  381 ar
   378  408  407 1
   379  409  396 ar
   380  410  409 1
   381  411  394 ar
   382  412  382 ar
   383  413  412 1
   384  414  411 ar
   385  415  414 1
   386  416  392 ar
   387  417  401 ar
   388  418  417 1
   389  419  351 1
   390  420  359 1
   391    9   65 1
   392   13   66 1
   393   17   66 1
   394   29   31 ar
   395   33   36 ar
   396   37   40 ar
   397   39   65 1
   398   44   50 ar
   399   48   52 ar
   400   54   62 ar
   401   58   60 ar
   402   58   64 ar
   403   64   66 1
   404   79  134 1
   405   83  140 1
   406   87  140 1
   407   99  101 ar
   408  102  110 ar
   409  106  116 ar
   410  108  121 ar
   411  123  126 ar
   412  125  130 ar
   413  125  140 1
   414  128  132 ar
   415  128  135 ar
   416  134  135 1
   417  159  160 ar
   418  163  174 ar
   419  169  175 ar
   420  170  173 ar
   421  177  190 ar
   422  179  181 ar
   423  186  192 ar
   424  192  197 ar
   425  193  195 ar
   426  215  223 1
   427  238  239 ar
   428  240  241 ar
   429  246  265 ar
   430  250  255 ar
   431  250  270 1
   432  251  279 ar
   433  257  267 ar
   434  259  263 ar
   435  267  268 ar
   436  289  340 1
   437  293  348 1
   438  297  348 1
   439  308  311 ar
   440  314  320 ar
   441  317  324 ar
   442  322  330 ar
   443  329  332 ar
   444  329  348 1
   445  334  338 ar
   446  334  341 ar
   447  340  341 1
   448  342  349 ar
   449  355  419 1
   450  363  420 1
   451  367  419 1
   452  371  420 1
   453  379  383 ar
   454  389  396 ar
   455  390  403 ar
   456  397  405 ar
   457  399  409 ar
   458  399  416 ar
   459  407  417 ar
   460  411  419 1
   461  412  414 ar
   462  416  420 1
@<TRIPOS>SUBSTRUCTURE
     1 RES1 1
     2 RES2 71
     3 RES3 141
     4 RES4 211
     5 RES5 281
     6 RES6 351

@<TRIPOS>CRYSIN
  55.8460    6.9266   44.3380  90.0000  95.0870  90.0000   5 1

