# MOL2 file generated by ConQuest
# Please check atom types

@<TRIPOS>MOLECULE
UTAHUU
    48    54     1
SMALL
NO_CHARGES
****
Generated from CSD

@<TRIPOS>ATOM
      1 C1         6.0121    6.6536    2.4787 C.ar      1 RES1    0.0000
      2 C2         6.9921    6.2319    1.5739 C.ar      1 RES1    0.0000
      3 C3         7.8364    7.2139    0.9663 C.ar      1 RES1    0.0000
      4 H1         8.5675    6.9308    0.4294 H         1 RES1    0.0000
      5 C4         7.6136    8.5429    1.1424 C.ar      1 RES1    0.0000
      6 H2         8.2419    9.1728    0.8105 H         1 RES1    0.0000
      7 C5         6.4526    8.9988    1.8167 C.ar      1 RES1    0.0000
      8 C6         6.0399   10.3589    1.7797 C.ar      1 RES1    0.0000
      9 H3         6.6339   11.0181    1.4393 H         1 RES1    0.0000
     10 C7         4.8087   10.7338    2.2230 C.ar      1 RES1    0.0000
     11 H4         4.5487   11.6476    2.1908 H         1 RES1    0.0000
     12 C8         3.9171    9.7626    2.7322 C.ar      1 RES1    0.0000
     13 H5         3.0362   10.0136    2.9845 H         1 RES1    0.0000
     14 C9         4.3228    8.4599    2.8627 C.ar      1 RES1    0.0000
     15 H6         3.7291    7.8233    3.2421 H         1 RES1    0.0000
     16 C10        5.6057    8.0460    2.4446 C.ar      1 RES1    0.0000
     17 C11        5.4119    5.6533    3.3558 C.ar      1 RES1    0.0000
     18 C12        5.3915    4.3197    2.8981 C.ar      1 RES1    0.0000
     19 C13        4.9005    3.2901    3.7656 C.ar      1 RES1    0.0000
     20 H7         4.9272    2.3864    3.4760 H         1 RES1    0.0000
     21 C14        4.4000    3.5805    4.9889 C.ar      1 RES1    0.0000
     22 H8         4.0322    2.8823    5.5188 H         1 RES1    0.0000
     23 C15        4.4121    4.9033    5.4970 C.ar      1 RES1    0.0000
     24 C16        3.9344    5.1788    6.7988 C.ar      1 RES1    0.0000
     25 H9         3.4865    4.4969    7.2848 H         1 RES1    0.0000
     26 C17        4.1043    6.4082    7.3709 C.ar      1 RES1    0.0000
     27 H10        3.7560    6.5880    8.2364 H         1 RES1    0.0000
     28 C18        4.8004    7.4027    6.6630 C.ar      1 RES1    0.0000
     29 H11        4.9732    8.2394    7.0770 H         1 RES1    0.0000
     30 C19        5.2338    7.1776    5.3802 C.ar      1 RES1    0.0000
     31 H12        5.7042    7.8642    4.9238 H         1 RES1    0.0000
     32 C20        4.9976    5.9435    4.7162 C.ar      1 RES1    0.0000
     33 C21        6.0342    3.9727    1.6482 C.ar      1 RES1    0.0000
     34 C22        7.0268    4.8360    1.1631 C.ar      1 RES1    0.0000
     35 C23        7.9515    4.3512    0.1948 C.ar      1 RES1    0.0000
     36 H13        8.6787    4.9022   -0.0698 H         1 RES1    0.0000
     37 C24        7.8155    3.1166   -0.3604 C.ar      1 RES1    0.0000
     38 H14        8.4911    2.7809   -0.9386 H         1 RES1    0.0000
     39 C25        6.6687    2.3250   -0.0805 C.ar      1 RES1    0.0000
     40 C26        6.3812    1.1611   -0.8374 C.ar      1 RES1    0.0000
     41 H15        7.0247    0.8343   -1.4547 H         1 RES1    0.0000
     42 C27        5.1908    0.5008   -0.6932 C.ar      1 RES1    0.0000
     43 H16        5.0102   -0.2759   -1.2108 H         1 RES1    0.0000
     44 C28        4.2387    0.9727    0.2201 C.ar      1 RES1    0.0000
     45 H17        3.3967    0.5389    0.2922 H         1 RES1    0.0000
     46 C29        4.5191    2.0652    1.0153 C.ar      1 RES1    0.0000
     47 H18        3.8728    2.3584    1.6464 H         1 RES1    0.0000
     48 C30        5.7493    2.7587    0.9117 C.ar      1 RES1    0.0000
@<TRIPOS>BOND
     1    1    2 ar
     2    2    3 ar
     3    3    4 1
     4    5    3 ar
     5    6    5 1
     6    7    5 ar
     7    8    7 ar
     8    9    8 1
     9   10    8 ar
    10   11   10 1
    11   12   10 ar
    12   13   12 1
    13   14   12 ar
    14   15   14 1
    15   16    1 ar
    16   17    1 ar
    17   18   17 ar
    18   19   18 ar
    19   20   19 1
    20   21   19 ar
    21   22   21 1
    22   23   21 ar
    23   24   23 ar
    24   25   24 1
    25   26   24 ar
    26   27   26 1
    27   28   26 ar
    28   29   28 1
    29   30   28 ar
    30   31   30 1
    31   32   17 ar
    32   33   18 ar
    33   34    2 ar
    34   35   34 ar
    35   36   35 1
    36   37   35 ar
    37   38   37 1
    38   39   37 ar
    39   40   39 ar
    40   41   40 1
    41   42   40 ar
    42   43   42 1
    43   44   42 ar
    44   45   44 1
    45   46   44 ar
    46   47   46 1
    47   48   33 ar
    48    7   16 ar
    49   14   16 ar
    50   23   32 ar
    51   30   32 ar
    52   33   34 ar
    53   39   48 ar
    54   46   48 ar
@<TRIPOS>SUBSTRUCTURE
     1 RES1 1

@<TRIPOS>CRYSIN
  11.2287   21.5577    7.6682  90.0000  90.0000  90.0000  29 1

