# MOL2 file generated by ConQuest
# Please check atom types

@<TRIPOS>MOLECULE
UTUTOU
   118   125     1
SMALL
NO_CHARGES
****
Generated from CSD

@<TRIPOS>ATOM
      1 C1        41.8161    3.3641    3.5954 C.2       1 RES1    0.0000
      2 C2        41.1270    3.0139    4.8126 C.2       1 RES1    0.0000
      3 C3        40.0362    3.8643    4.8854 C.2       1 RES1    0.0000
      4 C4        40.0532    4.8043    3.7182 C.2       1 RES1    0.0000
      5 C5        41.1704    4.5116    2.9830 C.2       1 RES1    0.0000
      6 C6        41.8294    4.7512    1.7093 C.ar      1 RES1    0.0000
      7 C7        41.6920    5.7625    0.7574 C.ar      1 RES1    0.0000
      8 C8        42.5036    5.7369   -0.3642 C.ar      1 RES1    0.0000
      9 C9        43.4831    4.7412   -0.5525 C.ar      1 RES1    0.0000
     10 C10       44.3278    4.7467   -1.6743 C.ar      1 RES1    0.0000
     11 C11       45.3256    3.8268   -1.8020 C.ar      1 RES1    0.0000
     12 C12       45.5249    2.8575   -0.8204 C.ar      1 RES1    0.0000
     13 C13       44.7023    2.7843    0.2637 C.ar      1 RES1    0.0000
     14 C14       43.6526    3.7253    0.4334 C.ar      1 RES1    0.0000
     15 C15       42.7869    3.7463    1.5366 C.ar      1 RES1    0.0000
     16 C16       42.7239    2.8282    2.7061 C.2       1 RES1    0.0000
     17 C17       43.2924    1.5334    2.8212 C.1       1 RES1    0.0000
     18 C18       43.6017    0.3758    2.9301 C.1       1 RES1    0.0000
     19 C19       43.9343   -1.0150    3.1017 C.ar      1 RES1    0.0000
     20 C20       44.7323   -1.6907    2.1724 C.ar      1 RES1    0.0000
     21 C21       45.1387   -2.9599    2.3629 C.ar      1 RES1    0.0000
     22 C22       44.7048   -3.6046    3.5454 C.ar      1 RES1    0.0000
     23 C23       43.8768   -2.9873    4.4390 C.ar      1 RES1    0.0000
     24 C24       43.4890   -1.6980    4.2256 C.ar      1 RES1    0.0000
     25 C25       39.1177    3.9722    5.9407 C.1       1 RES1    0.0000
     26 C26       38.3495    4.1477    6.8396 C.1       1 RES1    0.0000
     27 C27       37.5320    4.4577    7.9666 C.ar      1 RES1    0.0000
     28 C28       37.7608    3.8249    9.1857 C.ar      1 RES1    0.0000
     29 C29       37.0197    4.1770   10.3138 C.ar      1 RES1    0.0000
     30 C30       36.0383    5.0960   10.1987 C.ar      1 RES1    0.0000
     31 C31       35.7372    5.7177    8.9806 C.ar      1 RES1    0.0000
     32 C32       36.5008    5.3831    7.8756 C.ar      1 RES1    0.0000
     33 C33       38.9792    5.7580    3.4242 C.ar      1 RES1    0.0000
     34 C34       37.6433    5.3374    3.4910 C.ar      1 RES1    0.0000
     35 C35       36.6038    6.1951    3.1538 C.ar      1 RES1    0.0000
     36 C36       36.9319    7.4917    2.7934 C.ar      1 RES1    0.0000
     37 C37       38.2459    7.9699    2.7547 C.ar      1 RES1    0.0000
     38 C38       39.2661    7.0683    3.0653 C.ar      1 RES1    0.0000
     39 C39       35.1297    5.7598    3.1519 C.3       1 RES1    0.0000
     40 C40       34.9751    4.2821    3.4365 C.3       1 RES1    0.0000
     41 C41       34.3550    6.5544    4.1774 C.3       1 RES1    0.0000
     42 C42       34.5331    6.0241    1.7643 C.3       1 RES1    0.0000
     43 C43       38.5294    9.4083    2.3357 C.3       1 RES1    0.0000
     44 C44       37.7483   10.3656    3.2921 C.3       1 RES1    0.0000
     45 C45       38.0368    9.5994    0.8999 C.3       1 RES1    0.0000
     46 C46       39.9974    9.7493    2.4152 C.3       1 RES1    0.0000
     47 C47       41.5801    2.0217    5.7862 C.ar      1 RES1    0.0000
     48 C48       42.9410    1.9413    6.1041 C.ar      1 RES1    0.0000
     49 C49       43.4053    1.0479    7.0361 C.ar      1 RES1    0.0000
     50 C50       42.5011    0.1847    7.6064 C.ar      1 RES1    0.0000
     51 C51       41.1378    0.1957    7.3061 C.ar      1 RES1    0.0000
     52 C52       40.6932    1.1467    6.4009 C.ar      1 RES1    0.0000
     53 C53       44.8992    0.9647    7.4151 C.3       1 RES1    0.0000
     54 C54       45.7103    2.1525    6.8794 C.3       1 RES1    0.0000
     55 C55       45.4555   -0.3210    6.8291 C.3       1 RES1    0.0000
     56 C56       45.0688    0.9748    8.9346 C.3       1 RES1    0.0000
     57 C57       40.2018   -0.8330    7.9551 C.3       1 RES1    0.0000
     58 C58       40.6410   -2.2302    7.5323 C.3       1 RES1    0.0000
     59 C59       40.3139   -0.7407    9.4578 C.3       1 RES1    0.0000
     60 C60       38.7609   -0.6291    7.5574 C.3       1 RES1    0.0000
     61 H1        41.0532    6.4558    0.8765 H         1 RES1    0.0000
     62 H2        42.3973    6.4101   -1.0255 H         1 RES1    0.0000
     63 H3        44.2022    5.3992   -2.3537 H         1 RES1    0.0000
     64 H4        45.8902    3.8473   -2.5663 H         1 RES1    0.0000
     65 H5        46.2419    2.2411   -0.9094 H         1 RES1    0.0000
     66 H6        44.8316    2.0993    0.9085 H         1 RES1    0.0000
     67 H7        44.9958   -1.2384    1.3790 H         1 RES1    0.0000
     68 H8        45.6921   -3.4039    1.7306 H         1 RES1    0.0000
     69 H9        44.9983   -4.4901    3.7245 H         1 RES1    0.0000
     70 H10       43.5709   -3.4561    5.2059 H         1 RES1    0.0000
     71 H11       42.9140   -1.2667    4.8480 H         1 RES1    0.0000
     72 H12       38.4257    3.1495    9.2485 H         1 RES1    0.0000
     73 H13       37.2038    3.7736   11.1547 H         1 RES1    0.0000
     74 H14       35.5342    5.3289   10.9703 H         1 RES1    0.0000
     75 H15       35.0308    6.3494    8.9132 H         1 RES1    0.0000
     76 H16       36.3161    5.7938    7.0397 H         1 RES1    0.0000
     77 H17       37.4463    4.4515    3.7714 H         1 RES1    0.0000
     78 H18       36.2286    8.0866    2.5611 H         1 RES1    0.0000
     79 H19       40.1711    7.3557    3.0303 H         1 RES1    0.0000
     80 H20       34.0276    4.0368    3.3863 H         1 RES1    0.0000
     81 H21       35.3157    4.0854    4.3350 H         1 RES1    0.0000
     82 H22       35.4821    3.7664    2.7758 H         1 RES1    0.0000
     83 H23       33.4101    6.2957    4.1464 H         1 RES1    0.0000
     84 H24       34.4385    7.5109    3.9815 H         1 RES1    0.0000
     85 H25       34.7140    6.3719    5.0715 H         1 RES1    0.0000
     86 H26       35.0786    5.5785    1.0837 H         1 RES1    0.0000
     87 H27       34.5204    6.9890    1.5933 H         1 RES1    0.0000
     88 H28       33.6182    5.6743    1.7306 H         1 RES1    0.0000
     89 H29       36.7910   10.1593    3.2490 H         1 RES1    0.0000
     90 H30       37.8949   11.2941    3.0146 H         1 RES1    0.0000
     91 H31       38.0689   10.2434    4.2090 H         1 RES1    0.0000
     92 H32       38.5050    8.9741    0.3081 H         1 RES1    0.0000
     93 H33       38.2176   10.5188    0.6122 H         1 RES1    0.0000
     94 H34       37.0731    9.4281    0.8598 H         1 RES1    0.0000
     95 H35       40.3236    9.5789    3.3235 H         1 RES1    0.0000
     96 H36       40.1261   10.6950    2.1938 H         1 RES1    0.0000
     97 H37       40.4964    9.1942    1.7798 H         1 RES1    0.0000
     98 H38       43.5561    2.5178    5.6655 H         1 RES1    0.0000
     99 H39       42.8194   -0.4504    8.2368 H         1 RES1    0.0000
    100 H40       39.7668    1.2014    6.1977 H         1 RES1    0.0000
    101 H41       46.6364    2.0826    7.1920 H         1 RES1    0.0000
    102 H42       45.3177    2.9892    7.2056 H         1 RES1    0.0000
    103 H43       45.6943    2.1437    5.9001 H         1 RES1    0.0000
    104 H44       44.9918   -1.0883    7.2259 H         1 RES1    0.0000
    105 H45       46.4137   -0.3816    7.0252 H         1 RES1    0.0000
    106 H46       45.3195   -0.3234    5.8589 H         1 RES1    0.0000
    107 H47       46.0233    0.9478    9.1564 H         1 RES1    0.0000
    108 H48       44.6222    0.1915    9.3184 H         1 RES1    0.0000
    109 H49       44.6706    1.7909    9.3023 H         1 RES1    0.0000
    110 H50       40.5007   -2.3380    6.5677 H         1 RES1    0.0000
    111 H51       40.1135   -2.8992    8.0156 H         1 RES1    0.0000
    112 H52       41.5915   -2.3506    7.7389 H         1 RES1    0.0000
    113 H53       39.7536   -1.4310    9.8701 H         1 RES1    0.0000
    114 H54       40.0137    0.1438    9.7542 H         1 RES1    0.0000
    115 H55       41.2474   -0.8752    9.7246 H         1 RES1    0.0000
    116 H56       38.6665   -0.7680    6.5914 H         1 RES1    0.0000
    117 H57       38.4849    0.2829    7.7843 H         1 RES1    0.0000
    118 H58       38.1958   -1.2709    8.0359 H         1 RES1    0.0000
@<TRIPOS>BOND
     1    1    2 1
     2    2    3 2
     3    3    4 1
     4    4    5 2
     5    5    1 1
     6    6    5 1
     7    7    6 ar
     8    8    7 ar
     9    9    8 ar
    10   10    9 ar
    11   11   10 ar
    12   12   11 ar
    13   13   12 ar
    14   14    9 ar
    15   15    6 ar
    16   16    1 2
    17   17   16 1
    18   18   17 3
    19   19   18 1
    20   20   19 ar
    21   21   20 ar
    22   22   21 ar
    23   23   22 ar
    24   24   19 ar
    25   25    3 1
    26   26   25 3
    27   27   26 1
    28   28   27 ar
    29   29   28 ar
    30   30   29 ar
    31   31   30 ar
    32   32   27 ar
    33   33    4 1
    34   34   33 ar
    35   35   34 ar
    36   36   35 ar
    37   37   36 ar
    38   38   33 ar
    39   39   35 1
    40   40   39 1
    41   41   39 1
    42   42   39 1
    43   43   37 1
    44   44   43 1
    45   45   43 1
    46   46   43 1
    47   47    2 1
    48   48   47 ar
    49   49   48 ar
    50   50   49 ar
    51   51   50 ar
    52   52   47 ar
    53   53   49 1
    54   54   53 1
    55   55   53 1
    56   56   53 1
    57   57   51 1
    58   58   57 1
    59   59   57 1
    60   60   57 1
    61   61    7 1
    62   62    8 1
    63   63   10 1
    64   64   11 1
    65   65   12 1
    66   66   13 1
    67   67   20 1
    68   68   21 1
    69   69   22 1
    70   70   23 1
    71   71   24 1
    72   72   28 1
    73   73   29 1
    74   74   30 1
    75   75   31 1
    76   76   32 1
    77   77   34 1
    78   78   36 1
    79   79   38 1
    80   80   40 1
    81   81   40 1
    82   82   40 1
    83   83   41 1
    84   84   41 1
    85   85   41 1
    86   86   42 1
    87   87   42 1
    88   88   42 1
    89   89   44 1
    90   90   44 1
    91   91   44 1
    92   92   45 1
    93   93   45 1
    94   94   45 1
    95   95   46 1
    96   96   46 1
    97   97   46 1
    98   98   48 1
    99   99   50 1
   100  100   52 1
   101  101   54 1
   102  102   54 1
   103  103   54 1
   104  104   55 1
   105  105   55 1
   106  106   55 1
   107  107   56 1
   108  108   56 1
   109  109   56 1
   110  110   58 1
   111  111   58 1
   112  112   58 1
   113  113   59 1
   114  114   59 1
   115  115   59 1
   116  116   60 1
   117  117   60 1
   118  118   60 1
   119   13   14 ar
   120   14   15 ar
   121   15   16 1
   122   23   24 ar
   123   31   32 ar
   124   37   38 ar
   125   51   52 ar
@<TRIPOS>SUBSTRUCTURE
     1 RES1 1

@<TRIPOS>CRYSIN
  47.1800    9.1440   21.0560  90.0000  96.2970  90.0000  15 1

