# MOL2 file generated by ConQuest
# Please check atom types

@<TRIPOS>MOLECULE
UVAKUY
   100   110     2
SMALL
NO_CHARGES
****
Generated from CSD

@<TRIPOS>ATOM
      1 C1         9.1684    7.3550   12.6500 C.ar      1 RES1    0.0000
      2 C2         9.8972    6.1543   12.9082 C.ar      1 RES1    0.0000
      3 C3         9.5750    5.0118   12.2764 C.ar      1 RES1    0.0000
      4 C4         8.4836    4.9338   11.3520 C.ar      1 RES1    0.0000
      5 C5         8.1099    7.3369   11.8004 C.ar      1 RES1    0.0000
      6 C6         7.7088    6.1367   11.1391 C.ar      1 RES1    0.0000
      7 C7         6.5757    6.0853   10.3555 C.ar      1 RES1    0.0000
      8 C8         6.1249    4.8960    9.7593 C.ar      1 RES1    0.0000
      9 C9         4.9361    4.8430    8.9846 C.ar      1 RES1    0.0000
     10 C10        4.0599    6.0506    8.8525 C.ar      1 RES1    0.0000
     11 C11        4.4292    7.1220    8.0552 C.ar      1 RES1    0.0000
     12 C12        3.5821    8.2100    7.8886 C.ar      1 RES1    0.0000
     13 C13        2.3685    8.2488    8.5430 C.ar      1 RES1    0.0000
     14 C14        1.9949    7.1963    9.3512 C.ar      1 RES1    0.0000
     15 C15        2.8262    6.1063    9.5030 C.ar      1 RES1    0.0000
     16 H1         9.4244    8.1665   13.0728 H         1 RES1    0.0000
     17 H2        10.6143    6.1637   13.5301 H         1 RES1    0.0000
     18 H3        10.0878    4.2312   12.4499 H         1 RES1    0.0000
     19 H4         7.6262    8.1385   11.6427 H         1 RES1    0.0000
     20 H5         6.0810    6.8840   10.2136 H         1 RES1    0.0000
     21 H6         5.2720    7.1123    7.6176 H         1 RES1    0.0000
     22 H7         3.8390    8.9286    7.3229 H         1 RES1    0.0000
     23 H8         1.7926    8.9968    8.4376 H         1 RES1    0.0000
     24 H9         1.1609    7.2209    9.8056 H         1 RES1    0.0000
     25 H10        2.5561    5.3840   10.0579 H         1 RES1    0.0000
     26 C16        3.2682    5.7612    2.2117 C.ar      2 RES2    0.0000
     27 C17        2.4874    4.6987    1.7711 C.ar      2 RES2    0.0000
     28 C18        1.5605    4.1389    2.6236 C.ar      2 RES2    0.0000
     29 C19        1.3902    4.6304    3.8911 C.ar      2 RES2    0.0000
     30 C20        2.1657    5.6944    4.3277 C.ar      2 RES2    0.0000
     31 C21        5.6631    9.4620    4.8412 C.ar      2 RES2    0.0000
     32 C22        6.0317    8.1387    5.1507 C.ar      2 RES2    0.0000
     33 C23        3.1137    6.2547    3.4988 C.ar      2 RES2    0.0000
     34 C24        3.9834    7.3760    3.9818 C.ar      2 RES2    0.0000
     35 C25        3.6518    8.7010    3.6910 C.ar      2 RES2    0.0000
     36 C26        4.5110    9.7658    4.1345 C.ar      2 RES2    0.0000
     37 C27        2.4813    9.0553    2.9351 C.ar      2 RES2    0.0000
     38 C28        4.1620   11.1177    3.8004 C.ar      2 RES2    0.0000
     39 C29        3.0505   11.4009    3.0888 C.ar      2 RES2    0.0000
     40 C30        2.2004   10.3421    2.6443 C.ar      2 RES2    0.0000
     41 H11        3.9104    6.1508    1.6292 H         2 RES2    0.0000
     42 H12        2.5917    4.3611    0.8890 H         2 RES2    0.0000
     43 H13        1.0358    3.4033    2.3299 H         2 RES2    0.0000
     44 H14        0.7416    4.2441    4.4686 H         2 RES2    0.0000
     45 H15        2.0420    6.0387    5.2049 H         2 RES2    0.0000
     46 H16        6.2253   10.1728    5.1280 H         2 RES2    0.0000
     47 H17        1.8946    8.3706    2.6355 H         2 RES2    0.0000
     48 H18        4.7249   11.8281    4.0862 H         2 RES2    0.0000
     49 H19        2.8340   12.3036    2.8828 H         2 RES2    0.0000
     50 H20        1.4245   10.5484    2.1367 H         2 RES2    0.0000
     51 C1A        3.8682    1.2386    7.0617 C.ar      1 RES1    0.0000
     52 C2A        3.1394    2.4393    6.8035 C.ar      1 RES1    0.0000
     53 C3A        3.4616    3.5818    7.4352 C.ar      1 RES1    0.0000
     54 C4A        4.5530    3.6598    8.3597 C.ar      1 RES1    0.0000
     55 C5A        4.9267    1.2567    7.9113 C.ar      1 RES1    0.0000
     56 C6A        5.3278    2.4568    8.5726 C.ar      1 RES1    0.0000
     57 C7A        6.4609    2.5083    9.3561 C.ar      1 RES1    0.0000
     58 C8A        6.9117    3.6976    9.9524 C.ar      1 RES1    0.0000
     59 C9A        8.1006    3.7506   10.7271 C.ar      1 RES1    0.0000
     60 C10A       8.9767    2.5429   10.8592 C.ar      1 RES1    0.0000
     61 C11A       8.6075    1.4715   11.6565 C.ar      1 RES1    0.0000
     62 C12A       9.4545    0.3836   11.8231 C.ar      1 RES1    0.0000
     63 C13A      10.6681    0.3448   11.1686 C.ar      1 RES1    0.0000
     64 C14A      11.0417    1.3973   10.3605 C.ar      1 RES1    0.0000
     65 C15A      10.2104    2.4873   10.2087 C.ar      1 RES1    0.0000
     66 H1A        3.6122    0.4271    6.6389 H         1 RES1    0.0000
     67 H2A        2.4224    2.4299    6.1816 H         1 RES1    0.0000
     68 H3A        2.9488    4.3624    7.2618 H         1 RES1    0.0000
     69 H4A        5.4104    0.4550    8.0690 H         1 RES1    0.0000
     70 H5A        6.9556    1.7096    9.4981 H         1 RES1    0.0000
     71 H6A        7.7646    1.4813   12.0941 H         1 RES1    0.0000
     72 H7A        9.1976   -0.3350   12.3888 H         1 RES1    0.0000
     73 H8A       11.2440   -0.4032   11.2741 H         1 RES1    0.0000
     74 H9A       11.8757    1.3727    9.9061 H         1 RES1    0.0000
     75 H10A      10.4805    3.2096    9.6538 H         1 RES1    0.0000
     76 C16A       7.9281    9.4428    7.6442 C.ar      2 RES2    0.0000
     77 C17A       8.7089   10.5053    8.0847 C.ar      2 RES2    0.0000
     78 C18A       9.6358   11.0651    7.2322 C.ar      2 RES2    0.0000
     79 C19A       9.8061   10.5736    5.9648 C.ar      2 RES2    0.0000
     80 C20A       9.0306    9.5096    5.5281 C.ar      2 RES2    0.0000
     81 C21A       5.5332    5.7420    5.0147 C.ar      2 RES2    0.0000
     82 C22A       5.1646    7.0653    4.7052 C.ar      2 RES2    0.0000
     83 C23A       8.0826    8.9493    6.3570 C.ar      2 RES2    0.0000
     84 C24A       7.2129    7.8280    5.8741 C.ar      2 RES2    0.0000
     85 C25A       7.5445    6.5030    6.1648 C.ar      2 RES2    0.0000
     86 C26A       6.6853    5.4381    5.7213 C.ar      2 RES2    0.0000
     87 C27A       8.7150    6.1487    6.9208 C.ar      2 RES2    0.0000
     88 C28A       7.0343    4.0862    6.0554 C.ar      2 RES2    0.0000
     89 C29A       8.1458    3.8031    6.7670 C.ar      2 RES2    0.0000
     90 C30A       8.9959    4.8618    7.2115 C.ar      2 RES2    0.0000
     91 H11A       7.2859    9.0532    8.2267 H         2 RES2    0.0000
     92 H12A       8.6046   10.8429    8.9668 H         2 RES2    0.0000
     93 H13A      10.1605   11.8006    7.5259 H         2 RES2    0.0000
     94 H14A      10.4547   10.9599    5.3872 H         2 RES2    0.0000
     95 H15A       9.1543    9.1653    4.6510 H         2 RES2    0.0000
     96 H16A       4.9710    5.0312    4.7278 H         2 RES2    0.0000
     97 H17A       9.3017    6.8334    7.2204 H         2 RES2    0.0000
     98 H18A       6.4714    3.3759    5.7696 H         2 RES2    0.0000
     99 H19A       8.3623    2.9004    6.9730 H         2 RES2    0.0000
    100 H20A       9.7718    4.6556    7.7191 H         2 RES2    0.0000
@<TRIPOS>BOND
     1    1    2 ar
     2    2    3 ar
     3    3    4 ar
     4    4    6 ar
     5    5    1 ar
     6    6    5 ar
     7    7    6 ar
     8    8    7 ar
     9    9    8 ar
    10   10    9 1
    11   11   10 ar
    12   12   11 ar
    13   13   12 ar
    14   14   13 ar
    15   15   10 ar
    16   16    1 1
    17   17    2 1
    18   18    3 1
    19   19    5 1
    20   20    7 1
    21   21   11 1
    22   22   12 1
    23   23   13 1
    24   24   14 1
    25   25   15 1
    26   26   27 ar
    27   27   28 ar
    28   28   29 ar
    29   29   30 ar
    30   30   33 ar
    31   31   32 ar
    32   32   82 ar
    33   33   26 ar
    34   34   33 1
    35   35   34 ar
    36   36   31 ar
    37   37   35 ar
    38   38   36 ar
    39   39   38 ar
    40   40   37 ar
    41   41   26 1
    42   42   27 1
    43   43   28 1
    44   44   29 1
    45   45   30 1
    46   46   31 1
    47   47   37 1
    48   48   38 1
    49   49   39 1
    50   50   40 1
    51   51   52 ar
    52   52   53 ar
    53   53   54 ar
    54   54    9 ar
    55   55   51 ar
    56   56   54 ar
    57   57   56 ar
    58   58    8 ar
    59   59    4 ar
    60   60   59 1
    61   61   60 ar
    62   62   61 ar
    63   63   62 ar
    64   64   63 ar
    65   65   60 ar
    66   66   51 1
    67   67   52 1
    68   68   53 1
    69   69   55 1
    70   70   57 1
    71   71   61 1
    72   72   62 1
    73   73   63 1
    74   74   64 1
    75   75   65 1
    76   76   77 ar
    77   77   78 ar
    78   78   79 ar
    79   79   80 ar
    80   80   83 ar
    81   81   82 ar
    82   82   34 ar
    83   83   76 ar
    84   84   32 ar
    85   85   84 ar
    86   86   81 ar
    87   87   85 ar
    88   88   86 ar
    89   89   88 ar
    90   90   87 ar
    91   91   76 1
    92   92   77 1
    93   93   78 1
    94   94   79 1
    95   95   80 1
    96   96   81 1
    97   97   87 1
    98   98   88 1
    99   99   89 1
   100  100   90 1
   101   14   15 ar
   102   35   36 ar
   103   39   40 ar
   104   55   56 ar
   105   57   58 ar
   106   58   59 ar
   107   64   65 ar
   108   83   84 1
   109   85   86 ar
   110   89   90 ar
@<TRIPOS>SUBSTRUCTURE
     1 RES1 1
     2 RES2 26

@<TRIPOS>CRYSIN
   9.2589   10.9073   10.9164  66.7730  80.0360  89.7450   2 1

