# MOL2 file generated by ConQuest
# Please check atom types

@<TRIPOS>MOLECULE
UVAKUY02
   100   110     2
SMALL
NO_CHARGES
****
Generated from CSD

@<TRIPOS>ATOM
      1 C1        10.8010   13.0517    5.5946 C.ar      1 RES1    0.0000
      2 C2         9.6087   12.3230    5.8469 C.ar      1 RES1    0.0000
      3 C3         9.2243   11.2716    5.0096 C.ar      1 RES1    0.0000
      4 C4         8.1270   10.4005    5.3146 C.ar      1 RES1    0.0000
      5 H1         7.6162   10.5544    6.1009 H         1 RES1    0.0000
      6 C5         7.8042    9.3651    4.5071 C.ar      1 RES1    0.0000
      7 H2         7.0818    8.7940    4.7420 H         1 RES1    0.0000
      8 C6        11.2540   14.0644    6.4509 C.ar      1 RES1    0.0000
      9 H3        10.7661   14.2453    7.2456 H         1 RES1    0.0000
     10 C7        12.3875   14.8103    6.1803 C.ar      1 RES1    0.0000
     11 C8        12.7946   15.8903    7.0221 C.ar      1 RES1    0.0000
     12 H4        12.3155   16.0612    7.8240 H         1 RES1    0.0000
     13 C9        13.8506   16.6754    6.6990 C.ar      1 RES1    0.0000
     14 H5        14.1048   17.3890    7.2717 H         1 RES1    0.0000
     15 C10        8.7342   12.6806    7.0132 C.ar      1 RES1    0.0000
     16 C11        7.5046   13.2956    6.7983 C.ar      1 RES1    0.0000
     17 H6         7.2380   13.5154    5.9138 H         1 RES1    0.0000
     18 C12        6.6659   13.5907    7.8576 C.ar      1 RES1    0.0000
     19 H7         5.8314   14.0170    7.6999 H         1 RES1    0.0000
     20 C13        7.0446   13.2641    9.1484 C.ar      1 RES1    0.0000
     21 H8         6.4667   13.4586    9.8773 H         1 RES1    0.0000
     22 C14        8.2636   12.6563    9.3746 C.ar      1 RES1    0.0000
     23 H9         8.5237   12.4280   10.2596 H         1 RES1    0.0000
     24 C15        9.1062   12.3799    8.3116 C.ar      1 RES1    0.0000
     25 H10        9.9514   11.9787    8.4754 H         1 RES1    0.0000
     26 C16        9.8528    9.2951    9.6009 C.ar      2 RES2    0.0000
     27 C17       10.2151    9.0453    8.2611 C.ar      2 RES2    0.0000
     28 H11        9.6548    8.4960    7.7260 H         2 RES2    0.0000
     29 C18       11.3639    9.5777    7.7040 C.ar      2 RES2    0.0000
     30 C19       11.7121    9.3409    6.3333 C.ar      2 RES2    0.0000
     31 H12       11.1522    8.7928    5.7957 H         2 RES2    0.0000
     32 C20       12.8307    9.8882    5.7918 C.ar      2 RES2    0.0000
     33 H13       13.0459    9.7213    4.8821 H         2 RES2    0.0000
     34 C21       13.6779   10.7065    6.5784 C.ar      2 RES2    0.0000
     35 H14       14.4562   11.0861    6.1870 H         2 RES2    0.0000
     36 C22       13.3975   10.9582    7.8820 C.ar      2 RES2    0.0000
     37 H15       13.9835   11.5080    8.3894 H         2 RES2    0.0000
     38 C23       12.2308   10.4064    8.5052 C.ar      2 RES2    0.0000
     39 C24        8.6699    8.7522   10.1733 C.ar      2 RES2    0.0000
     40 C25        7.8010    7.8717    9.3431 C.ar      2 RES2    0.0000
     41 C26        6.8467    8.4097    8.4929 C.ar      2 RES2    0.0000
     42 H16        6.7271    9.3517    8.4564 H         2 RES2    0.0000
     43 C27        6.0648    7.5865    7.6961 C.ar      2 RES2    0.0000
     44 H17        5.4168    7.9665    7.1146 H         2 RES2    0.0000
     45 C28        6.2264    6.2173    7.7460 C.ar      2 RES2    0.0000
     46 H18        5.6966    5.6549    7.1946 H         2 RES2    0.0000
     47 C29        7.1631    5.6676    8.6008 C.ar      2 RES2    0.0000
     48 H19        7.2703    4.7249    8.6425 H         2 RES2    0.0000
     49 C30        7.9435    6.4866    9.3955 C.ar      2 RES2    0.0000
     50 H20        8.5827    6.1007    9.9824 H         2 RES2    0.0000
     51 C1A       11.5836   12.7437    4.4118 C.ar      1 RES1    0.0000
     52 C2A       12.7759   13.4724    4.1595 C.ar      1 RES1    0.0000
     53 C3A       13.1603   14.5238    4.9968 C.ar      1 RES1    0.0000
     54 C4A       14.2576   15.3949    4.6918 C.ar      1 RES1    0.0000
     55 H1A       14.7684   15.2410    3.9055 H         1 RES1    0.0000
     56 C5A       14.5804   16.4303    5.4993 C.ar      1 RES1    0.0000
     57 H2A       15.3028   17.0015    5.2644 H         1 RES1    0.0000
     58 C6A       11.1306   11.7310    3.5555 C.ar      1 RES1    0.0000
     59 H3A       11.6185   11.5501    2.7608 H         1 RES1    0.0000
     60 C7A        9.9972   10.9851    3.8262 C.ar      1 RES1    0.0000
     61 C8A        9.5901    9.9051    2.9843 C.ar      1 RES1    0.0000
     62 H4A       10.0691    9.7342    2.1824 H         1 RES1    0.0000
     63 C9A        8.5341    9.1200    3.3074 C.ar      1 RES1    0.0000
     64 H5A        8.2799    8.4064    2.7348 H         1 RES1    0.0000
     65 C10A      13.6504   13.1148    2.9932 C.ar      1 RES1    0.0000
     66 C11A      14.8800   12.4998    3.2082 C.ar      1 RES1    0.0000
     67 H6A       15.1466   12.2800    4.0926 H         1 RES1    0.0000
     68 C12A      15.7187   12.2047    2.1488 C.ar      1 RES1    0.0000
     69 H7A       16.5532   11.7784    2.3065 H         1 RES1    0.0000
     70 C13A      15.3400   12.5313    0.8581 C.ar      1 RES1    0.0000
     71 H8A       15.9179   12.3368    0.1291 H         1 RES1    0.0000
     72 C14A      14.1210   13.1392    0.6318 C.ar      1 RES1    0.0000
     73 H9A       13.8610   13.3675   -0.2532 H         1 RES1    0.0000
     74 C15A      13.2785   13.4155    1.6948 C.ar      1 RES1    0.0000
     75 H10A      12.4333   13.8167    1.5310 H         1 RES1    0.0000
     76 C16A      10.7156   10.1248   10.4120 C.ar      2 RES2    0.0000
     77 C17A      10.3533   10.3746   11.7517 C.ar      2 RES2    0.0000
     78 H11A      10.9135   10.9239   12.2869 H         2 RES2    0.0000
     79 C18A       9.2044    9.8422   12.3088 C.ar      2 RES2    0.0000
     80 C19A       8.8562   10.0790   13.6796 C.ar      2 RES2    0.0000
     81 H12A       9.4161   10.6271   14.2171 H         2 RES2    0.0000
     82 C20A       7.7376    9.5317   14.2210 C.ar      2 RES2    0.0000
     83 H13A       7.5224    9.6986   15.1307 H         2 RES2    0.0000
     84 C21A       6.8905    8.7134   13.4344 C.ar      2 RES2    0.0000
     85 H14A       6.1121    8.3338   13.8259 H         2 RES2    0.0000
     86 C22A       7.1708    8.4617   12.1309 C.ar      2 RES2    0.0000
     87 H15A       6.5848    7.9119   11.6235 H         2 RES2    0.0000
     88 C23A       8.3376    9.0135   11.5077 C.ar      2 RES2    0.0000
     89 C24A      11.8984   10.6678    9.8395 C.ar      2 RES2    0.0000
     90 C25A      12.7673   11.5482   10.6697 C.ar      2 RES2    0.0000
     91 C26A      13.7216   11.0102   11.5199 C.ar      2 RES2    0.0000
     92 H16A      13.8413   10.0682   11.5564 H         2 RES2    0.0000
     93 C27A      14.5036   11.8334   12.3167 C.ar      2 RES2    0.0000
     94 H17A      15.1515   11.4534   12.8983 H         2 RES2    0.0000
     95 C28A      14.3420   13.2026   12.2669 C.ar      2 RES2    0.0000
     96 H18A      14.8717   13.7650   12.8182 H         2 RES2    0.0000
     97 C29A      13.4052   13.7523   11.4120 C.ar      2 RES2    0.0000
     98 H19A      13.2981   14.6950   11.3703 H         2 RES2    0.0000
     99 C30A      12.6249   12.9333   10.6173 C.ar      2 RES2    0.0000
    100 H20A      11.9857   13.3192   10.0304 H         2 RES2    0.0000
@<TRIPOS>BOND
     1    1    2 ar
     2    2    3 ar
     3    3    4 ar
     4    4    5 1
     5    6    4 ar
     6    7    6 1
     7    8    1 ar
     8    9    8 1
     9   10    8 ar
    10   11   10 ar
    11   12   11 1
    12   13   11 ar
    13   14   13 1
    14   15    2 1
    15   16   15 ar
    16   17   16 1
    17   18   16 ar
    18   19   18 1
    19   20   18 ar
    20   21   20 1
    21   22   20 ar
    22   23   22 1
    23   24   15 ar
    24   25   24 1
    25   26   27 ar
    26   27   28 1
    27   29   27 ar
    28   30   29 ar
    29   31   30 1
    30   32   30 ar
    31   33   32 1
    32   34   32 ar
    33   35   34 1
    34   36   34 ar
    35   37   36 1
    36   38   29 ar
    37   39   26 ar
    38   40   39 1
    39   41   40 ar
    40   42   41 1
    41   43   41 ar
    42   44   43 1
    43   45   43 ar
    44   46   45 1
    45   47   45 ar
    46   48   47 1
    47   49   40 ar
    48   50   49 1
    49   51    1 ar
    50   52   51 ar
    51   53   10 ar
    52   54   53 ar
    53   55   54 1
    54   56   13 ar
    55   57   56 1
    56   58   51 ar
    57   59   58 1
    58   60    3 ar
    59   61   60 ar
    60   62   61 1
    61   63    6 ar
    62   64   63 1
    63   65   52 1
    64   66   65 ar
    65   67   66 1
    66   68   66 ar
    67   69   68 1
    68   70   68 ar
    69   71   70 1
    70   72   70 ar
    71   73   72 1
    72   74   65 ar
    73   75   74 1
    74   76   26 ar
    75   77   76 ar
    76   78   77 1
    77   79   77 ar
    78   80   79 ar
    79   81   80 1
    80   82   80 ar
    81   83   82 1
    82   84   82 ar
    83   85   84 1
    84   86   84 ar
    85   87   86 1
    86   88   39 ar
    87   89   38 ar
    88   90   89 1
    89   91   90 ar
    90   92   91 1
    91   93   91 ar
    92   94   93 1
    93   95   93 ar
    94   96   95 1
    95   97   95 ar
    96   98   97 1
    97   99   90 ar
    98  100   99 1
    99   22   24 ar
   100   36   38 ar
   101   47   49 ar
   102   52   53 ar
   103   54   56 ar
   104   58   60 ar
   105   61   63 ar
   106   72   74 ar
   107   76   89 ar
   108   79   88 ar
   109   86   88 ar
   110   97   99 ar
@<TRIPOS>SUBSTRUCTURE
     1 RES1 1
     2 RES2 26

@<TRIPOS>CRYSIN
   9.2769   10.8876   10.9105  66.8230  89.6530  80.0440   2 1

