# MOL2 file generated by ConQuest
# Please check atom types

@<TRIPOS>MOLECULE
UVALAG
    72    82     1
SMALL
NO_CHARGES
****
Generated from CSD

@<TRIPOS>ATOM
      1 C1         3.9289    6.6188   12.6600 C.ar      1 RES1    0.0000
      2 C2         6.3557    8.0513   12.8913 C.ar      1 RES1    0.0000
      3 C3         4.9609    6.0665   13.4037 C.ar      1 RES1    0.0000
      4 C4         4.2438    7.6769   11.7029 C.ar      1 RES1    0.0000
      5 C5         6.4915   11.3903    8.9766 C.ar      1 RES1    0.0000
      6 C6         5.5063    8.3006   11.7325 C.ar      1 RES1    0.0000
      7 C7         3.5262    4.1404   14.0175 C.ar      1 RES1    0.0000
      8 C8         7.2569    9.3953   10.2333 C.ar      1 RES1    0.0000
      9 C9         7.5366   10.4295    9.3050 C.ar      1 RES1    0.0000
     10 C10        6.8172   12.7172    8.4624 C.ar      1 RES1    0.0000
     11 C11        3.6657    9.0429    9.7816 C.ar      1 RES1    0.0000
     12 H1         3.0281    9.2878    9.1209 H         1 RES1    0.0000
     13 C12        5.8803    9.2040   10.6822 C.ar      1 RES1    0.0000
     14 C13        6.1241    6.8951   13.6779 C.ar      1 RES1    0.0000
     15 C14        4.8727    9.7825    9.8836 C.ar      1 RES1    0.0000
     16 C15        2.5721    6.1390   12.8990 C.ar      1 RES1    0.0000
     17 C16        4.0970   11.9288    8.7058 C.ar      1 RES1    0.0000
     18 C17        5.1622   11.0306    9.1705 C.ar      1 RES1    0.0000
     19 C18        4.8127    4.7088   13.9252 C.ar      1 RES1    0.0000
     20 C19        4.4294   13.0632    7.9192 C.ar      1 RES1    0.0000
     21 C20        5.8118   13.5123    7.8723 C.ar      1 RES1    0.0000
     22 C21        2.7321   11.7395    9.0187 C.ar      1 RES1    0.0000
     23 H2         2.4893   11.0769    9.6551 H         1 RES1    0.0000
     24 C22        2.3744    4.9389   13.6279 C.ar      1 RES1    0.0000
     25 C23        7.8811    7.6132   15.2026 C.ar      1 RES1    0.0000
     26 H3         8.4155    7.4531   15.9712 H         1 RES1    0.0000
     27 C24        6.9113    6.7126   14.8446 C.ar      1 RES1    0.0000
     28 H4         6.7632    5.9487   15.3904 H         1 RES1    0.0000
     29 C25        8.2588    8.4340   10.4956 C.ar      1 RES1    0.0000
     30 H5         8.0720    7.7261   11.1001 H         1 RES1    0.0000
     31 C26        3.3951    7.9906   10.6043 C.ar      1 RES1    0.0000
     32 H6         2.6265    7.4570   10.4424 H         1 RES1    0.0000
     33 C27        5.9313    3.8931   14.1976 C.ar      1 RES1    0.0000
     34 H7         6.8061    4.2466   14.0851 H         1 RES1    0.0000
     35 C28        7.3225    8.9805   13.3156 C.ar      1 RES1    0.0000
     36 H8         7.4508    9.7767   12.8121 H         1 RES1    0.0000
     37 C29        1.4405    6.9336   12.6181 C.ar      1 RES1    0.0000
     38 H9         1.5546    7.7548   12.1544 H         1 RES1    0.0000
     39 C30        8.3964   14.5563    8.2149 C.ar      1 RES1    0.0000
     40 H10        9.2641   14.9166    8.3559 H         1 RES1    0.0000
     41 C31        6.1545   14.8011    7.3993 C.ar      1 RES1    0.0000
     42 H11        5.4940   15.3288    6.9656 H         1 RES1    0.0000
     43 C32        3.3989   13.7922    7.2965 C.ar      1 RES1    0.0000
     44 H12        3.6225   14.5135    6.7208 H         1 RES1    0.0000
     45 C33        8.7955   10.4212    8.6639 C.ar      1 RES1    0.0000
     46 H13        8.9782   11.0769    7.9997 H         1 RES1    0.0000
     47 C34        8.0908   13.2914    8.6585 C.ar      1 RES1    0.0000
     48 H14        8.7574   12.7881    9.1108 H         1 RES1    0.0000
     49 C35        9.4982    8.4949    9.8992 C.ar      1 RES1    0.0000
     50 H15       10.1666    7.8575   10.1206 H         1 RES1    0.0000
     51 C36        1.7439   12.4934    8.4221 C.ar      1 RES1    0.0000
     52 H16        0.8328   12.3356    8.6392 H         1 RES1    0.0000
     53 C37        3.4010    2.8126   14.4866 C.ar      1 RES1    0.0000
     54 H17        2.5356    2.4315   14.5849 H         1 RES1    0.0000
     55 C38        8.0857    8.7703   14.4360 C.ar      1 RES1    0.0000
     56 H18        8.7471    9.4022   14.6902 H         1 RES1    0.0000
     57 C39        5.7767    2.5912   14.6252 C.ar      1 RES1    0.0000
     58 H19        6.5402    2.0531   14.7994 H         1 RES1    0.0000
     59 C40        2.0752   13.4825    7.5037 C.ar      1 RES1    0.0000
     60 H20        1.3948   13.9401    7.0243 H         1 RES1    0.0000
     61 C41        9.7663    9.4949    8.9689 C.ar      1 RES1    0.0000
     62 H21       10.6164    9.5374    8.5462 H         1 RES1    0.0000
     63 C42        7.4242   15.3041    7.5559 C.ar      1 RES1    0.0000
     64 H22        7.6389   16.1635    7.2145 H         1 RES1    0.0000
     65 C43        4.5019    2.0666   14.8025 C.ar      1 RES1    0.0000
     66 H23        4.3959    1.1871   15.1435 H         1 RES1    0.0000
     67 C44        0.1771    6.5499   12.9985 C.ar      1 RES1    0.0000
     68 H24       -0.5684    7.1020   12.7960 H         1 RES1    0.0000
     69 C45        1.0714    4.5691   13.9899 C.ar      1 RES1    0.0000
     70 H25        0.9347    3.7565   14.4615 H         1 RES1    0.0000
     71 C46       -0.0094    5.3520   13.6801 C.ar      1 RES1    0.0000
     72 H26       -0.8840    5.0775   13.9292 H         1 RES1    0.0000
@<TRIPOS>BOND
     1    1    3 ar
     2    2    6 1
     3    3   14 1
     4    4    1 1
     5    5    9 1
     6    6    4 ar
     7    7   19 ar
     8    8    9 ar
     9    9   45 ar
    10   10    5 ar
    11   11   12 1
    12   13    6 ar
    13   14    2 ar
    14   15   11 ar
    15   16    1 ar
    16   17   18 ar
    17   18    5 ar
    18   19    3 ar
    19   20   17 ar
    20   21   10 ar
    21   22   17 ar
    22   23   22 1
    23   24    7 ar
    24   25   26 1
    25   27   14 ar
    26   28   27 1
    27   29    8 ar
    28   30   29 1
    29   31    4 ar
    30   32   31 1
    31   33   19 ar
    32   34   33 1
    33   35    2 ar
    34   36   35 1
    35   37   16 ar
    36   38   37 1
    37   39   40 1
    38   41   21 ar
    39   42   41 1
    40   43   20 ar
    41   44   43 1
    42   45   46 1
    43   47   10 ar
    44   48   47 1
    45   49   29 ar
    46   50   49 1
    47   51   22 ar
    48   52   51 1
    49   53    7 ar
    50   54   53 1
    51   55   25 ar
    52   56   55 1
    53   57   33 ar
    54   58   57 1
    55   59   43 ar
    56   60   59 1
    57   61   45 ar
    58   62   61 1
    59   63   39 ar
    60   64   63 1
    61   65   53 ar
    62   66   65 1
    63   67   37 ar
    64   68   67 1
    65   69   24 ar
    66   70   69 1
    67   71   67 ar
    68   72   71 1
    69    8   13 1
    70   11   31 ar
    71   13   15 ar
    72   15   18 1
    73   16   24 ar
    74   20   21 ar
    75   25   27 ar
    76   35   55 ar
    77   39   47 ar
    78   41   63 ar
    79   49   61 ar
    80   51   59 ar
    81   57   65 ar
    82   69   71 ar
@<TRIPOS>SUBSTRUCTURE
     1 RES1 1

@<TRIPOS>CRYSIN
  10.2897   13.0026   20.3410  90.0000  95.7920  90.0000  14 1

