# MOL2 file generated by ConQuest
# Please check atom types

@<TRIPOS>MOLECULE
UWITUQ
    92   102     2
SMALL
NO_CHARGES
****
Generated from CSD

@<TRIPOS>ATOM
      1 C1         2.5908    3.1686    2.2329 C.ar      1 RES1    0.0000
      2 C2         3.0896    2.7299    3.4566 C.ar      1 RES1    0.0000
      3 H1         3.4866    1.8899    3.5155 H         1 RES1    0.0000
      4 C3         3.0044    3.5210    4.5824 C.ar      1 RES1    0.0000
      5 C4         2.3882    4.7867    4.4537 C.ar      1 RES1    0.0000
      6 C5         1.5639    5.0542    3.3252 C.ar      1 RES1    0.0000
      7 C6         1.6878    4.2099    2.2289 C.ar      1 RES1    0.0000
      8 H2         1.1539    4.3494    1.4797 H         1 RES1    0.0000
      9 C7         3.8227    3.2750    5.7511 C.ar      1 RES1    0.0000
     10 H3         3.9993    2.4020    6.0219 H         1 RES1    0.0000
     11 C8         4.3218    4.3048    6.4387 C.ar      1 RES1    0.0000
     12 H4         4.8463    4.1481    7.1906 H         1 RES1    0.0000
     13 C9         4.0494    5.6568    6.0205 C.ar      1 RES1    0.0000
     14 C10        2.9258    5.8812    5.1788 C.ar      1 RES1    0.0000
     15 C11        2.6373    7.1973    4.7459 C.ar      1 RES1    0.0000
     16 C12        1.4967    7.3885    3.8881 C.ar      1 RES1    0.0000
     17 H5         1.1173    8.2343    3.8064 H         1 RES1    0.0000
     18 C13        0.9771    6.3544    3.2033 C.ar      1 RES1    0.0000
     19 H6         0.2391    6.4839    2.6524 H         1 RES1    0.0000
     20 C14        5.0127    6.6507    6.1009 C.ar      1 RES1    0.0000
     21 H7         5.7497    6.5342    6.6558 H         1 RES1    0.0000
     22 C15        4.8867    7.8143    5.3651 C.ar      1 RES1    0.0000
     23 C16        3.6434    8.1537    4.8505 C.ar      1 RES1    0.0000
     24 H8         3.4819    9.0253    4.5717 H         1 RES1    0.0000
     25 C17        3.3599    2.8392    0.9864 C.3       1 RES1    0.0000
     26 H9         2.8875    3.1671    0.2051 H         1 RES1    0.0000
     27 H10        3.4661    1.8799    0.9007 H         1 RES1    0.0000
     28 C18        4.7461    3.5238    1.1004 C.3       1 RES1    0.0000
     29 H11        5.2498    3.0621    1.7879 H         1 RES1    0.0000
     30 H12        5.2143    3.3886    0.2614 H         1 RES1    0.0000
     31 C19        4.7762    5.0125    1.4180 C.ar      1 RES1    0.0000
     32 C20        5.5800    5.5346    2.4246 C.ar      1 RES1    0.0000
     33 H13        6.0501    4.9420    2.9660 H         1 RES1    0.0000
     34 C21        5.7160    6.9053    2.6618 C.ar      1 RES1    0.0000
     35 C22        4.9733    7.7625    1.8616 C.ar      1 RES1    0.0000
     36 H14        5.0421    8.6816    1.9836 H         1 RES1    0.0000
     37 C23        4.1330    7.2634    0.8886 C.ar      1 RES1    0.0000
     38 H15        3.6188    7.8502    0.3833 H         1 RES1    0.0000
     39 C24        4.0460    5.9186    0.6541 C.ar      1 RES1    0.0000
     40 H16        3.4918    5.6051   -0.0228 H         1 RES1    0.0000
     41 C25        6.6930    7.4403    3.7045 C.3       1 RES1    0.0000
     42 H17        7.4203    7.8804    3.2368 H         1 RES1    0.0000
     43 H18        7.0709    6.6838    4.1790 H         1 RES1    0.0000
     44 C26        6.1289    8.4313    4.7540 C.3       1 RES1    0.0000
     45 H19        6.7904    8.5982    5.4429 H         1 RES1    0.0000
     46 H20        5.9079    9.2756    4.3304 H         1 RES1    0.0000
     47 C27       -2.1311    4.7435   11.9472 C.ar      2 RES2    0.0000
     48 C28       -0.9803    4.0560   11.6001 C.ar      2 RES2    0.0000
     49 H21       -1.0363    3.1671   11.3321 H         2 RES2    0.0000
     50 C29        0.2598    4.6874   11.6497 C.ar      2 RES2    0.0000
     51 C30        0.2964    6.0337   12.0665 C.ar      2 RES2    0.0000
     52 C31       -0.8148    6.5773   12.7769 C.ar      2 RES2    0.0000
     53 C32       -2.0236    5.8970   12.7085 C.ar      2 RES2    0.0000
     54 H22       -2.7620    6.2163   13.1749 H         2 RES2    0.0000
     55 C33        1.3833    4.1696   10.9099 C.ar      2 RES2    0.0000
     56 H23        1.5137    3.2506   10.8482 H         2 RES2    0.0000
     57 C34        2.2362    5.0024   10.3108 C.ar      2 RES2    0.0000
     58 H24        2.9600    4.6630    9.8363 H         2 RES2    0.0000
     59 C35        2.0390    6.4249   10.3979 C.ar      2 RES2    0.0000
     60 C36        1.2044    6.9269   11.4312 C.ar      2 RES2    0.0000
     61 C37        0.9646    8.3148   11.5170 C.ar      2 RES2    0.0000
     62 C38        0.1266    8.7866   12.5933 C.ar      2 RES2    0.0000
     63 H25        0.1842    9.6726   12.8693 H         2 RES2    0.0000
     64 C39       -0.7292    7.9581   13.1977 C.ar      2 RES2    0.0000
     65 H26       -1.2688    8.2688   13.8866 H         2 RES2    0.0000
     66 C40        2.3200    7.2649    9.3216 C.ar      2 RES2    0.0000
     67 H27        2.8770    6.9628    8.6408 H         2 RES2    0.0000
     68 C41        1.7853    8.5435    9.2466 C.ar      2 RES2    0.0000
     69 C42        1.2685    9.1059   10.3992 C.ar      2 RES2    0.0000
     70 H28        1.1197   10.0235   10.4327 H         2 RES2    0.0000
     71 C43       -3.3759    4.5191   11.1203 C.3       2 RES2    0.0000
     72 H29       -4.1669    4.5824   11.6792 H         2 RES2    0.0000
     73 H30       -3.3562    3.6389   10.7128 H         2 RES2    0.0000
     74 C44       -3.3995    5.6238   10.0239 C.3       2 RES2    0.0000
     75 H31       -4.1492    5.4397    9.4369 H         2 RES2    0.0000
     76 H32       -3.5818    6.4695   10.4622 H         2 RES2    0.0000
     77 C45       -2.1671    5.8136    9.1501 C.ar      2 RES2    0.0000
     78 C46       -1.6366    7.0980    8.9598 C.ar      2 RES2    0.0000
     79 H33       -1.9700    7.8028    9.4677 H         2 RES2    0.0000
     80 C47       -0.6250    7.3540    8.0336 C.ar      2 RES2    0.0000
     81 C48       -0.1216    6.2839    7.3219 C.ar      2 RES2    0.0000
     82 H34        0.5486    6.4278    6.6920 H         2 RES2    0.0000
     83 C49       -0.5914    5.0110    7.5257 C.ar      2 RES2    0.0000
     84 H35       -0.2150    4.2976    7.0606 H         2 RES2    0.0000
     85 C50       -1.6232    4.7838    8.4223 C.ar      2 RES2    0.0000
     86 H36       -1.9531    3.9208    8.5322 H         2 RES2    0.0000
     87 C51       -0.1552    8.7765    7.7535 C.3       2 RES2    0.0000
     88 H37       -0.6474    9.3734    8.3379 H         2 RES2    0.0000
     89 H38       -0.4028    8.9994    6.8421 H         2 RES2    0.0000
     90 C52        1.3709    9.0843    7.9251 C.3       2 RES2    0.0000
     91 H39        1.8807    8.6629    7.2147 H         2 RES2    0.0000
     92 H40        1.5272   10.0408    7.8902 H         2 RES2    0.0000
@<TRIPOS>BOND
     1    1    2 ar
     2    2    3 1
     3    4    2 ar
     4    5    4 ar
     5    6    5 ar
     6    7    1 ar
     7    8    7 1
     8    9    4 ar
     9   10    9 1
    10   11    9 ar
    11   12   11 1
    12   13   11 ar
    13   14    5 ar
    14   15   14 ar
    15   16   15 ar
    16   17   16 1
    17   18    6 ar
    18   19   18 1
    19   20   13 ar
    20   21   20 1
    21   22   20 ar
    22   23   15 ar
    23   24   23 1
    24   25    1 1
    25   26   25 1
    26   27   25 1
    27   28   25 1
    28   29   28 1
    29   30   28 1
    30   31   28 1
    31   32   31 ar
    32   33   32 1
    33   34   32 ar
    34   35   34 ar
    35   36   35 1
    36   37   35 ar
    37   38   37 1
    38   39   31 ar
    39   40   39 1
    40   41   34 1
    41   42   41 1
    42   43   41 1
    43   44   22 1
    44   45   44 1
    45   46   44 1
    46   47   48 ar
    47   48   49 1
    48   50   48 ar
    49   51   50 ar
    50   52   51 ar
    51   53   47 ar
    52   54   53 1
    53   55   50 ar
    54   56   55 1
    55   57   55 ar
    56   58   57 1
    57   59   57 ar
    58   60   51 ar
    59   61   60 ar
    60   62   61 ar
    61   63   62 1
    62   64   52 ar
    63   65   64 1
    64   66   59 ar
    65   67   66 1
    66   68   66 ar
    67   69   61 ar
    68   70   69 1
    69   71   47 1
    70   72   71 1
    71   73   71 1
    72   74   71 1
    73   75   74 1
    74   76   74 1
    75   77   74 1
    76   78   77 ar
    77   79   78 1
    78   80   78 ar
    79   81   80 ar
    80   82   81 1
    81   83   81 ar
    82   84   83 1
    83   85   77 ar
    84   86   85 1
    85   87   80 1
    86   88   87 1
    87   89   87 1
    88   90   68 1
    89   91   90 1
    90   92   90 1
    91    6    7 ar
    92   13   14 ar
    93   16   18 ar
    94   22   23 ar
    95   37   39 ar
    96   41   44 1
    97   52   53 ar
    98   59   60 ar
    99   62   64 ar
   100   68   69 ar
   101   83   85 ar
   102   87   90 1
@<TRIPOS>SUBSTRUCTURE
     1 RES1 1
     2 RES2 47

@<TRIPOS>CRYSIN
   9.2820   14.3830   13.4119  90.0000  92.1130  90.0000   4 1

