# MOL2 file generated by ConQuest
# Please check atom types

@<TRIPOS>MOLECULE
VAHJEV
    84    90     3
SMALL
NO_CHARGES
****
Generated from CSD

@<TRIPOS>ATOM
      1 C1         5.4466    1.9072    3.7579 C.ar      1 RES1    0.0000
      2 C2         6.3107    2.8377    4.4420 C.ar      1 RES1    0.0000
      3 C3         6.9245    3.9079    3.7919 C.ar      1 RES1    0.0000
      4 H1         6.7853    4.0245    2.8583 H         1 RES1    0.0000
      5 C4         7.7384    4.8107    4.4777 C.ar      1 RES1    0.0000
      6 C5         8.3410    5.9456    3.8328 C.ar      1 RES1    0.0000
      7 C6         9.1082    6.8172    4.5636 C.ar      1 RES1    0.0000
      8 H2         9.5064    7.5618    4.1292 H         1 RES1    0.0000
      9 C7         9.3166    6.6313    5.9453 C.ar      1 RES1    0.0000
     10 H3         9.8556    7.2455    6.4301 H         1 RES1    0.0000
     11 C8         8.7533    5.5819    6.5824 C.ar      1 RES1    0.0000
     12 H4         8.8965    5.4699    7.5143 H         1 RES1    0.0000
     13 C9         7.9470    4.6387    5.8780 C.ar      1 RES1    0.0000
     14 C10        7.3410    3.5650    6.5217 C.ar      1 RES1    0.0000
     15 H5         7.4882    3.4450    7.4529 H         1 RES1    0.0000
     16 C11        6.5249    2.6634    5.8470 C.ar      1 RES1    0.0000
     17 C12        5.8851    1.5851    6.5125 C.ar      1 RES1    0.0000
     18 H6         6.0266    1.4593    7.4435 H         1 RES1    0.0000
     19 C13        5.0751    0.7331    5.8400 C.ar      1 RES1    0.0000
     20 H7         4.6523    0.0208    6.3049 H         1 RES1    0.0000
     21 C14        4.8523    0.8913    4.4590 C.ar      1 RES1    0.0000
     22 H8         4.2802    0.2840    4.0064 H         1 RES1    0.0000
     23 C15        5.1931    2.0561    2.3552 C.1       1 RES1    0.0000
     24 C16        4.9747    2.1716    1.2014 C.1       1 RES1    0.0000
     25 H9         4.7984    2.2639    0.2717 H         1 RES1    0.0000
     26 C17        8.1125    6.1707    2.4378 C.1       1 RES1    0.0000
     27 C18        7.9175    6.3392    1.2785 C.1       1 RES1    0.0000
     28 H10        7.7609    6.4732    0.3520 H         1 RES1    0.0000
     29 C19        3.3958    5.1051    3.6476 C.ar      2 RES2    0.0000
     30 C20        4.2369    6.0102    4.3855 C.ar      2 RES2    0.0000
     31 C21        4.8473    7.1116    3.7862 C.ar      2 RES2    0.0000
     32 H11        4.6995    7.2744    2.8631 H         2 RES2    0.0000
     33 C22        5.6659    7.9786    4.5010 C.ar      2 RES2    0.0000
     34 C23        6.3234    9.1112    3.9039 C.ar      2 RES2    0.0000
     35 C24        7.1304    9.9089    4.6631 C.ar      2 RES2    0.0000
     36 H12        7.5632   10.6512    4.2568 H         2 RES2    0.0000
     37 C25        7.3384    9.6572    6.0426 C.ar      2 RES2    0.0000
     38 H13        7.8994   10.2298    6.5529 H         2 RES2    0.0000
     39 C26        6.7369    8.5974    6.6311 C.ar      2 RES2    0.0000
     40 H14        6.8853    8.4323    7.5545 H         2 RES2    0.0000
     41 C27        5.8870    7.7246    5.8952 C.ar      2 RES2    0.0000
     42 C28        5.2739    6.6279    6.4931 C.ar      2 RES2    0.0000
     43 H15        5.4175    6.4662    7.4175 H         2 RES2    0.0000
     44 C29        4.4549    5.7562    5.7719 C.ar      2 RES2    0.0000
     45 C30        3.8607    4.6087    6.3760 C.ar      2 RES2    0.0000
     46 H16        4.0085    4.4309    7.2970 H         2 RES2    0.0000
     47 C31        3.0854    3.7694    5.6441 C.ar      2 RES2    0.0000
     48 H17        2.6939    3.0097    6.0592 H         2 RES2    0.0000
     49 C32        2.8530    4.0118    4.2731 C.ar      2 RES2    0.0000
     50 H18        2.3125    3.4092    3.7772 H         2 RES2    0.0000
     51 C33        3.1421    5.3706    2.2593 C.1       2 RES2    0.0000
     52 C34        2.9359    5.6292    1.1325 C.1       2 RES2    0.0000
     53 H19        2.7690    5.8382    0.2197 H         2 RES2    0.0000
     54 C35        6.1060    9.4171    2.5156 C.1       2 RES2    0.0000
     55 C36        5.9036    9.6607    1.3881 C.1       2 RES2    0.0000
     56 H20        5.7394    9.8593    0.4748 H         2 RES2    0.0000
     57 C37        8.3358    7.9082    9.9862 C.ar      3 RES3    0.0000
     58 C38        7.0988    7.1659   10.0729 C.ar      3 RES3    0.0000
     59 C39        7.0602    5.7724   10.0771 C.ar      3 RES3    0.0000
     60 H21        7.8768    5.2875   10.0561 H         3 RES3    0.0000
     61 C40        5.8640    5.0762   10.1102 C.ar      3 RES3    0.0000
     62 C41        5.8095    3.6401   10.1147 C.ar      3 RES3    0.0000
     63 C42        4.6055    3.0028   10.1034 C.ar      3 RES3    0.0000
     64 H22        4.5812    2.0538   10.0726 H         3 RES3    0.0000
     65 C43        3.3941    3.7244   10.1362 C.ar      3 RES3    0.0000
     66 H23        2.5672    3.2568   10.1317 H         3 RES3    0.0000
     67 C44        3.4038    5.0786   10.1726 C.ar      3 RES3    0.0000
     68 H24        2.5799    5.5507   10.2097 H         3 RES3    0.0000
     69 C45        4.6241    5.8036   10.1565 C.ar      3 RES3    0.0000
     70 C46        4.6690    7.1970   10.1787 C.ar      3 RES3    0.0000
     71 H25        3.8541    7.6831   10.2262 H         3 RES3    0.0000
     72 C47        5.8706    7.9001   10.1350 C.ar      3 RES3    0.0000
     73 C48        5.9093    9.3282   10.1178 C.ar      3 RES3    0.0000
     74 H26        5.1002    9.8246   10.1766 H         3 RES3    0.0000
     75 C49        7.0953    9.9793   10.0167 C.ar      3 RES3    0.0000
     76 H27        7.1053   10.9295    9.9900 H         3 RES3    0.0000
     77 C50        8.3147    9.2716    9.9491 C.ar      3 RES3    0.0000
     78 H28        9.1315    9.7507    9.8766 H         3 RES3    0.0000
     79 C51        9.5743    7.1970    9.9314 C.1       3 RES3    0.0000
     80 C52       10.5994    6.5967    9.8737 C.1       3 RES3    0.0000
     81 H29       11.4183    6.1176    9.8270 H         3 RES3    0.0000
     82 C53        7.0335    2.8966   10.1426 C.1       3 RES3    0.0000
     83 C54        8.0645    2.3124   10.1823 C.1       3 RES3    0.0000
     84 H30        8.8906    1.8437   10.2144 H         3 RES3    0.0000
@<TRIPOS>BOND
     1    1    2 ar
     2    2    3 ar
     3    3    4 1
     4    5    3 ar
     5    6    5 ar
     6    7    6 ar
     7    8    7 1
     8    9    7 ar
     9   10    9 1
    10   11    9 ar
    11   12   11 1
    12   13    5 ar
    13   14   13 ar
    14   15   14 1
    15   16    2 ar
    16   17   16 ar
    17   18   17 1
    18   19   17 ar
    19   20   19 1
    20   21    1 ar
    21   22   21 1
    22   23    1 1
    23   24   23 3
    24   25   24 1
    25   26    6 1
    26   27   26 3
    27   28   27 1
    28   29   30 ar
    29   30   31 ar
    30   31   32 1
    31   33   31 ar
    32   34   33 ar
    33   35   34 ar
    34   36   35 1
    35   37   35 ar
    36   38   37 1
    37   39   37 ar
    38   40   39 1
    39   41   33 ar
    40   42   41 ar
    41   43   42 1
    42   44   30 ar
    43   45   44 ar
    44   46   45 1
    45   47   45 ar
    46   48   47 1
    47   49   29 ar
    48   50   49 1
    49   51   29 1
    50   52   51 3
    51   53   52 1
    52   54   34 1
    53   55   54 3
    54   56   55 1
    55   57   58 ar
    56   58   59 ar
    57   59   60 1
    58   61   59 ar
    59   62   61 ar
    60   63   62 ar
    61   64   63 1
    62   65   63 ar
    63   66   65 1
    64   67   65 ar
    65   68   67 1
    66   69   61 ar
    67   70   69 ar
    68   71   70 1
    69   72   58 ar
    70   73   72 ar
    71   74   73 1
    72   75   73 ar
    73   76   75 1
    74   77   57 ar
    75   78   77 1
    76   79   57 1
    77   80   79 3
    78   81   80 1
    79   82   62 1
    80   83   82 3
    81   84   83 1
    82   11   13 ar
    83   14   16 ar
    84   19   21 ar
    85   39   41 ar
    86   42   44 ar
    87   47   49 ar
    88   67   69 ar
    89   70   72 ar
    90   75   77 ar
@<TRIPOS>SUBSTRUCTURE
     1 RES1 1
     2 RES2 29
     3 RES3 57

@<TRIPOS>CRYSIN
  13.3427   11.5448   23.6930  90.0000  94.4200  90.0000 231 1

