# MOL2 file generated by ConQuest
# Please check atom types

@<TRIPOS>MOLECULE
VAHWEJ
    56    62     1
SMALL
NO_CHARGES
****
Generated from CSD

@<TRIPOS>ATOM
      1 C1         3.0398    2.7033    3.3991 C.ar      1 RES1    0.0000
      2 C2         2.8132    2.4012    2.0287 C.ar      1 RES1    0.0000
      3 C3         2.4221    1.9078    4.3934 C.ar      1 RES1    0.0000
      4 C4         1.6149    0.7865    4.0181 C.ar      1 RES1    0.0000
      5 C5         2.0086    1.2740    1.6682 C.ar      1 RES1    0.0000
      6 C6         1.4227    0.4944    2.6619 C.ar      1 RES1    0.0000
      7 H1         0.8827   -0.2483    2.4160 H         1 RES1    0.0000
      8 C7         3.1260    2.8816   -0.3417 C.ar      1 RES1    0.0000
      9 H2         3.5010    3.4210   -1.0277 H         1 RES1    0.0000
     10 C8         2.5275    2.2124    5.7917 C.ar      1 RES1    0.0000
     11 H3         3.0358    2.9663    6.0681 H         1 RES1    0.0000
     12 C9         3.8007    3.9345    3.7716 C.ar      1 RES1    0.0000
     13 C10        1.7999    0.9807    0.2772 C.ar      1 RES1    0.0000
     14 H4         1.2754    0.2273    0.0319 H         1 RES1    0.0000
     15 C11        3.3566    3.1995    0.9661 C.ar      1 RES1    0.0000
     16 H5         3.8854    3.9604    1.1757 H         1 RES1    0.0000
     17 C12        1.0096   -0.0121    5.0391 C.ar      1 RES1    0.0000
     18 H6         0.5019   -0.7768    4.7943 H         1 RES1    0.0000
     19 C13        2.3382    1.7608   -0.6900 C.ar      1 RES1    0.0000
     20 H7         2.1861    1.5545   -1.6049 H         1 RES1    0.0000
     21 C14        1.9113    1.4362    6.7312 C.ar      1 RES1    0.0000
     22 H8         1.9947    1.6576    7.6509 H         1 RES1    0.0000
     23 C15        1.1491    0.3037    6.3472 C.ar      1 RES1    0.0000
     24 H9         0.7356   -0.2357    7.0108 H         1 RES1    0.0000
     25 C16        3.2017    5.1709    3.4741 C.ar      1 RES1    0.0000
     26 H10        2.3513    5.1818    3.0520 H         1 RES1    0.0000
     27 C17        3.8163    6.3712    3.7776 C.ar      1 RES1    0.0000
     28 H11        3.3909    7.1926    3.5606 H         1 RES1    0.0000
     29 C1A        5.8260    2.7033    4.7767 C.ar      1 RES1    0.0000
     30 C2A        6.0525    2.4012    6.1472 C.ar      1 RES1    0.0000
     31 C3A        6.4437    1.9078    3.7824 C.ar      1 RES1    0.0000
     32 C4A        7.2509    0.7865    4.1577 C.ar      1 RES1    0.0000
     33 C5A        6.8571    1.2740    6.5076 C.ar      1 RES1    0.0000
     34 C6A        7.4431    0.4944    5.5139 C.ar      1 RES1    0.0000
     35 H1A        7.9830   -0.2483    5.7599 H         1 RES1    0.0000
     36 C7A        5.7398    2.8816    8.5176 C.ar      1 RES1    0.0000
     37 H2A        5.3648    3.4210    9.2035 H         1 RES1    0.0000
     38 C8A        6.3382    2.2124    2.3842 C.ar      1 RES1    0.0000
     39 H3A        5.8300    2.9663    2.1077 H         1 RES1    0.0000
     40 C9A        5.0650    3.9345    4.4042 C.ar      1 RES1    0.0000
     41 C10A       7.0659    0.9807    7.8986 C.ar      1 RES1    0.0000
     42 H4A        7.5904    0.2273    8.1439 H         1 RES1    0.0000
     43 C11A       5.5092    3.1995    7.2098 C.ar      1 RES1    0.0000
     44 H5A        4.9803    3.9604    7.0001 H         1 RES1    0.0000
     45 C12A       7.8562   -0.0121    3.1367 C.ar      1 RES1    0.0000
     46 H6A        8.3639   -0.7768    3.3815 H         1 RES1    0.0000
     47 C13A       6.5276    1.7608    8.8659 C.ar      1 RES1    0.0000
     48 H7A        6.6797    1.5545    9.7807 H         1 RES1    0.0000
     49 C14A       6.9545    1.4362    1.4447 C.ar      1 RES1    0.0000
     50 H8A        6.8711    1.6576    0.5249 H         1 RES1    0.0000
     51 C15A       7.7166    0.3037    1.8286 C.ar      1 RES1    0.0000
     52 H9A        8.1301   -0.2357    1.1651 H         1 RES1    0.0000
     53 C16A       5.6641    5.1709    4.7018 C.ar      1 RES1    0.0000
     54 H10A       6.5145    5.1818    5.1238 H         1 RES1    0.0000
     55 C17A       5.0495    6.3712    4.3982 C.ar      1 RES1    0.0000
     56 H11A       5.4749    7.1926    4.6153 H         1 RES1    0.0000
@<TRIPOS>BOND
     1    1    2 ar
     2    2    5 ar
     3    3    1 ar
     4    4    3 ar
     5    5    6 ar
     6    6    4 ar
     7    7    6 1
     8    8    9 1
     9   10    3 ar
    10   11   10 1
    11   12    1 1
    12   13    5 ar
    13   14   13 1
    14   15    2 ar
    15   16   15 1
    16   17    4 ar
    17   18   17 1
    18   19    8 ar
    19   20   19 1
    20   21   10 ar
    21   22   21 1
    22   23   17 ar
    23   24   23 1
    24   25   12 ar
    25   26   25 1
    26   27   25 ar
    27   28   27 1
    28   29   30 ar
    29   30   33 ar
    30   31   29 ar
    31   32   31 ar
    32   33   34 ar
    33   34   32 ar
    34   35   34 1
    35   36   37 1
    36   38   31 ar
    37   39   38 1
    38   40   12 ar
    39   41   33 ar
    40   42   41 1
    41   43   30 ar
    42   44   43 1
    43   45   32 ar
    44   46   45 1
    45   47   36 ar
    46   48   47 1
    47   49   38 ar
    48   50   49 1
    49   51   45 ar
    50   52   51 1
    51   53   40 ar
    52   54   53 1
    53   55   27 ar
    54   56   55 1
    55    8   15 ar
    56   13   19 ar
    57   21   23 ar
    58   29   40 1
    59   36   43 ar
    60   41   47 ar
    61   49   51 ar
    62   53   55 ar
@<TRIPOS>SUBSTRUCTURE
     1 RES1 1

@<TRIPOS>CRYSIN
  16.3261    8.3889   11.0680  90.0000 132.3800  90.0000   5 1

