# MOL2 file generated by ConQuest
# Please check atom types

@<TRIPOS>MOLECULE
VASWOE
    62    69     1
SMALL
NO_CHARGES
****
Generated from CSD

@<TRIPOS>ATOM
      1 C1         6.8140    2.4151   11.3844 C.ar      1 RES1    0.0000
      2 C2         5.9039    2.0924   10.3407 C.ar      1 RES1    0.0000
      3 C3         3.7381    0.8728    9.6941 C.ar      1 RES1    0.0000
      4 C4         4.1201    0.3437    8.4017 C.ar      1 RES1    0.0000
      5 C5         5.4289   -0.2043    8.0971 C.ar      1 RES1    0.0000
      6 C6         4.6345    1.4625   10.6673 C.ar      1 RES1    0.0000
      7 C7         2.3587    0.8137   10.0347 C.ar      1 RES1    0.0000
      8 C8         6.2249    2.4893    9.0234 C.ar      1 RES1    0.0000
      9 H1         5.5860    2.3656    8.3318 H         1 RES1    0.0000
     10 C9         5.7808   -0.4600    6.7458 C.ar      1 RES1    0.0000
     11 C10        3.1400    0.2514    7.3933 C.ar      1 RES1    0.0000
     12 C11        8.0653    2.9869   11.0459 C.ar      1 RES1    0.0000
     13 H2         8.6926    3.1775   11.7336 H         1 RES1    0.0000
     14 C12        7.4451    3.0521    8.7222 C.ar      1 RES1    0.0000
     15 H3         7.6487    3.2918    7.8252 H         1 RES1    0.0000
     16 C13        2.8654    1.2454   12.3617 C.ar      1 RES1    0.0000
     17 H4         2.6018    1.2349   13.2742 H         1 RES1    0.0000
     18 C14        1.9499    0.9934   11.3880 C.ar      1 RES1    0.0000
     19 H5         1.0289    0.9362   11.6129 H         1 RES1    0.0000
     20 C15        6.3280   -0.5692    9.1239 C.ar      1 RES1    0.0000
     21 H6         6.0520   -0.5037   10.0306 H         1 RES1    0.0000
     22 C16        1.3852    0.5817    9.0209 C.ar      1 RES1    0.0000
     23 H7         0.4643    0.5507    9.2506 H         1 RES1    0.0000
     24 C17        4.2207    1.5246   12.0159 C.ar      1 RES1    0.0000
     25 C18        1.7636    0.4038    7.7251 C.ar      1 RES1    0.0000
     26 H8         1.1062    0.3812    7.0396 H         1 RES1    0.0000
     27 C19        7.1211   -0.8581    6.4774 C.ar      1 RES1    0.0000
     28 H9         7.4082   -0.9563    5.5767 H         1 RES1    0.0000
     29 C20        4.8014   -0.3210    5.7010 C.ar      1 RES1    0.0000
     30 C21        7.3719    2.5680   13.8754 C.ar      1 RES1    0.0000
     31 C22        8.3871    3.2714    9.7365 C.ar      1 RES1    0.0000
     32 H10        9.2463    3.6159    9.5213 H         1 RES1    0.0000
     33 C23        8.0098   -1.1029    7.5039 C.ar      1 RES1    0.0000
     34 H11        8.9107   -1.3313    7.3047 H         1 RES1    0.0000
     35 C24        6.4292    2.2528   12.7686 C.ar      1 RES1    0.0000
     36 C25        7.5918   -1.0168    8.8358 C.ar      1 RES1    0.0000
     37 H12        8.1806   -1.2671    9.5379 H         1 RES1    0.0000
     38 C26        5.1508   -0.5210    4.2685 C.ar      1 RES1    0.0000
     39 C27        5.1433    1.8901   13.0430 C.ar      1 RES1    0.0000
     40 H13        4.8516    1.8800   13.9474 H         1 RES1    0.0000
     41 C28        4.8853    0.4891    3.3376 C.ar      1 RES1    0.0000
     42 H14        4.4620    1.2903    3.6225 H         1 RES1    0.0000
     43 C29        5.8314   -0.8418    1.5548 C.ar      1 RES1    0.0000
     44 H15        6.0803   -0.9447    0.6440 H         1 RES1    0.0000
     45 C30        3.5126   -0.0386    6.0491 C.ar      1 RES1    0.0000
     46 H16        2.8435   -0.0351    5.3741 H         1 RES1    0.0000
     47 C31        5.2359    0.3329    1.9910 C.ar      1 RES1    0.0000
     48 H17        5.0650    1.0343    1.3741 H         1 RES1    0.0000
     49 C32        5.7360   -1.7064    3.8154 C.ar      1 RES1    0.0000
     50 H18        5.9154   -2.4085    4.4303 H         1 RES1    0.0000
     51 C33        6.0591   -1.8663    2.4672 C.ar      1 RES1    0.0000
     52 H19        6.4393   -2.6848    2.1693 H         1 RES1    0.0000
     53 C34        9.4905    2.2439   15.0054 C.ar      1 RES1    0.0000
     54 H20       10.3223    1.7903   15.0675 H         1 RES1    0.0000
     55 C35        8.6057    1.9236   13.9800 C.ar      1 RES1    0.0000
     56 H21        8.8443    1.2596   13.3436 H         1 RES1    0.0000
     57 C36        7.0354    3.5208   14.8387 C.ar      1 RES1    0.0000
     58 H22        6.1899    3.9525   14.7982 H         1 RES1    0.0000
     59 C37        9.1699    3.2178   15.9369 C.ar      1 RES1    0.0000
     60 H23        9.7890    3.4537   16.6178 H         1 RES1    0.0000
     61 C38        7.9311    3.8461   15.8637 C.ar      1 RES1    0.0000
     62 H24        7.6920    4.4985   16.5123 H         1 RES1    0.0000
@<TRIPOS>BOND
     1    1    2 ar
     2    2    6 ar
     3    3    4 ar
     4    4    5 ar
     5    5   10 ar
     6    6    3 ar
     7    7    3 ar
     8    8    2 ar
     9    9    8 1
    10   10   27 ar
    11   11    4 ar
    12   12    1 ar
    13   13   12 1
    14   14    8 ar
    15   15   14 1
    16   16   17 1
    17   18    7 ar
    18   19   18 1
    19   20    5 ar
    20   21   20 1
    21   22    7 ar
    22   23   22 1
    23   24    6 ar
    24   25   11 ar
    25   26   25 1
    26   27   28 1
    27   29   10 ar
    28   30   35 1
    29   31   12 ar
    30   32   31 1
    31   33   27 ar
    32   34   33 1
    33   35    1 ar
    34   36   20 ar
    35   37   36 1
    36   38   29 1
    37   39   24 ar
    38   40   39 1
    39   41   38 ar
    40   42   41 1
    41   43   44 1
    42   45   11 ar
    43   46   45 1
    44   47   41 ar
    45   48   47 1
    46   49   38 ar
    47   50   49 1
    48   51   43 ar
    49   52   51 1
    50   53   54 1
    51   55   30 ar
    52   56   55 1
    53   57   30 ar
    54   58   57 1
    55   59   53 ar
    56   60   59 1
    57   61   57 ar
    58   62   61 1
    59   14   31 ar
    60   16   18 ar
    61   16   24 ar
    62   22   25 ar
    63   29   45 ar
    64   33   36 ar
    65   35   39 ar
    66   43   47 ar
    67   49   51 ar
    68   53   55 ar
    69   59   61 ar
@<TRIPOS>SUBSTRUCTURE
     1 RES1 1

@<TRIPOS>CRYSIN
   9.6273    9.6571   14.5690 106.7940  91.1950 104.1930   2 1

