# MOL2 file generated by ConQuest
# Please check atom types

@<TRIPOS>MOLECULE
VASXUL
   124   134     2
SMALL
NO_CHARGES
****
Generated from CSD

@<TRIPOS>ATOM
      1 C1         3.4985    4.3017    8.5230 C.ar      1 RES1    0.0000
      2 C2         3.2506    3.8124    9.8507 C.ar      1 RES1    0.0000
      3 C3         2.7075    0.1798    8.9705 C.1       1 RES1    0.0000
      4 C4         3.7084    7.0746   11.7019 C.1       1 RES1    0.0000
      5 C5         2.4945   -1.0055    8.9898 C.1       1 RES1    0.0000
      6 C6         3.3140    4.7634   10.9323 C.ar      1 RES1    0.0000
      7 C7         3.6183    6.0994   10.6548 C.ar      1 RES1    0.0000
      8 C8         3.8358    7.9417   12.5296 C.1       1 RES1    0.0000
      9 C9         3.7914    5.6681    8.2958 C.ar      1 RES1    0.0000
     10 H1         3.9456    5.9737    7.4100 H         1 RES1    0.0000
     11 C10        3.4710    3.4281    7.4091 C.ar      1 RES1    0.0000
     12 H2         3.6406    3.7714    6.5396 H         1 RES1    0.0000
     13 C11        2.2246   -2.4106    9.0704 C.ar      1 RES1    0.0000
     14 C12        2.7033    1.7011   11.2838 C.ar      1 RES1    0.0000
     15 C13        2.9708    2.4079    9.9951 C.ar      1 RES1    0.0000
     16 C14        4.0451    8.9181   13.5552 C.ar      1 RES1    0.0000
     17 C15        2.9555    1.5878    8.8634 C.ar      1 RES1    0.0000
     18 C16        1.8031    4.1910   12.8593 C.ar      1 RES1    0.0000
     19 H3         1.0648    4.1872   12.2609 H         1 RES1    0.0000
     20 C17        3.8543    6.5471    9.3305 C.ar      1 RES1    0.0000
     21 H4         4.0559    7.4601    9.1659 H         1 RES1    0.0000
     22 C18        3.2052    2.1043    7.5669 C.ar      1 RES1    0.0000
     23 H5         3.1873    1.5284    6.8118 H         1 RES1    0.0000
     24 C19        1.4290    1.1774   11.5307 C.ar      1 RES1    0.0000
     25 H6         0.7172    1.3637   10.9301 H         1 RES1    0.0000
     26 C20        4.4641   10.2118   13.2257 C.ar      1 RES1    0.0000
     27 H7         4.5728   10.4565   12.3147 H         1 RES1    0.0000
     28 C21        4.7226   11.1410   14.2268 C.ar      1 RES1    0.0000
     29 H8         5.0131   12.0172   14.0000 H         1 RES1    0.0000
     30 C22        3.7342    1.4183   12.1720 C.ar      1 RES1    0.0000
     31 H9         4.6006    1.7756   12.0173 H         1 RES1    0.0000
     32 C23        4.1549    4.4743   13.2694 C.ar      1 RES1    0.0000
     33 H10        5.0309    4.6592   12.9532 H         1 RES1    0.0000
     34 C24        1.9688   -3.0079   10.3120 C.ar      1 RES1    0.0000
     35 H11        1.9786   -2.4833   11.1032 H         1 RES1    0.0000
     36 C25        1.7010   -4.3693   10.3836 C.ar      1 RES1    0.0000
     37 H12        1.5223   -4.7740   11.2242 H         1 RES1    0.0000
     38 C26        3.0860    4.4379   12.3718 C.ar      1 RES1    0.0000
     39 C27        2.2244   -3.1962    7.9131 C.ar      1 RES1    0.0000
     40 H13        2.4023   -2.7993    7.0689 H         1 RES1    0.0000
     41 C28        1.6933   -5.1401    9.2311 C.ar      1 RES1    0.0000
     42 H14        1.5024   -6.0699    9.2852 H         1 RES1    0.0000
     43 C29        1.1994    0.3856   12.6518 C.ar      1 RES1    0.0000
     44 H15        0.3308    0.0402   12.8188 H         1 RES1    0.0000
     45 C30        3.8699    8.5736   14.9013 C.ar      1 RES1    0.0000
     46 H16        3.5731    7.7022   15.1342 H         1 RES1    0.0000
     47 C31        1.9632   -4.5601    7.9998 C.ar      1 RES1    0.0000
     48 H17        1.9696   -5.0955    7.2151 H         1 RES1    0.0000
     49 C32        3.9443    4.2416   14.6239 C.ar      1 RES1    0.0000
     50 H18        4.6774    4.2641   15.2283 H         1 RES1    0.0000
     51 C33        4.5567   10.7880   15.5620 C.ar      1 RES1    0.0000
     52 H19        4.7352   11.4230   16.2465 H         1 RES1    0.0000
     53 C34        3.5059    0.6165   13.2844 C.ar      1 RES1    0.0000
     54 H20        4.2182    0.4203   13.8824 H         1 RES1    0.0000
     55 C35        1.5955    3.9497   14.2134 C.ar      1 RES1    0.0000
     56 H21        0.7203    3.7664   14.5343 H         1 RES1    0.0000
     57 C36        2.6642    3.9762   15.0954 C.ar      1 RES1    0.0000
     58 H22        2.5215    3.8132   16.0197 H         1 RES1    0.0000
     59 C37        2.2391    0.1011   13.5236 C.ar      1 RES1    0.0000
     60 H23        2.0850   -0.4466   14.2840 H         1 RES1    0.0000
     61 C38        4.1308    9.5083   15.8974 C.ar      1 RES1    0.0000
     62 H24        4.0177    9.2713   16.8111 H         1 RES1    0.0000
     63 C39        7.1600    7.4768   10.8216 C.1       2 RES2    0.0000
     64 C40        8.4452    8.9404   12.7548 C.ar      2 RES2    0.0000
     65 C41        8.9780   11.6831   13.7448 C.ar      2 RES2    0.0000
     66 C42        7.6067    9.6925   11.7745 C.ar      2 RES2    0.0000
     67 C43        7.3796   11.1105   11.7726 C.ar      2 RES2    0.0000
     68 C44        6.7079   13.8741   11.6698 C.ar      2 RES2    0.0000
     69 H25        6.4757   14.7957   11.6560 H         2 RES2    0.0000
     70 C45        6.9911    8.8961   10.7984 C.ar      2 RES2    0.0000
     71 C46        6.4983   11.6430   10.7717 C.ar      2 RES2    0.0000
     72 C47        5.9143   10.7989    9.7965 C.ar      2 RES2    0.0000
     73 H26        5.3437   11.1705    9.1339 H         2 RES2    0.0000
     74 C48        7.4254    4.8631   11.0019 C.ar      2 RES2    0.0000
     75 C49        6.1626    9.4598    9.7983 C.ar      2 RES2    0.0000
     76 H27        5.7801    8.9049    9.1289 H         2 RES2    0.0000
     77 C50        8.1517   14.3252   13.5868 C.1       2 RES2    0.0000
     78 C51        7.2545    6.2773   10.8673 C.1       2 RES2    0.0000
     79 C52        7.6016   13.3836   12.6534 C.ar      2 RES2    0.0000
     80 C53        6.1817   13.0252   10.7452 C.ar      2 RES2    0.0000
     81 H28        5.5971   13.3617   10.0766 H         2 RES2    0.0000
     82 C54        6.7557    3.9731   10.1544 C.ar      2 RES2    0.0000
     83 H29        6.1602    4.3027    9.4918 H         2 RES2    0.0000
     84 C55        8.2840    4.3650   11.9938 C.ar      2 RES2    0.0000
     85 H30        8.7285    4.9633   12.5835 H         2 RES2    0.0000
     86 C56        7.8288    2.1201   11.2602 C.ar      2 RES2    0.0000
     87 H31        7.9719    1.1847   11.3435 H         2 RES2    0.0000
     88 C57        7.9561   12.0316   12.7122 C.ar      2 RES2    0.0000
     89 C58        9.1214   16.1163   15.2577 C.ar      2 RES2    0.0000
     90 C59        8.5760   15.1618   14.3406 C.1       2 RES2    0.0000
     91 C60        8.4835    2.9967   12.1129 C.ar      2 RES2    0.0000
     92 H32        9.0695    2.6603   12.7801 H         2 RES2    0.0000
     93 C61        9.7270    8.5308   12.3984 C.ar      2 RES2    0.0000
     94 H33       10.1094    8.8407   11.5855 H         2 RES2    0.0000
     95 C62        9.9053    7.2162   14.3970 C.ar      2 RES2    0.0000
     96 H34       10.3972    6.6227   14.9527 H         2 RES2    0.0000
     97 C63       10.3260   11.7246   13.4096 C.ar      2 RES2    0.0000
     98 H35       10.5809   11.8797   12.5079 H         2 RES2    0.0000
     99 C64       10.4562    7.6737   13.2165 C.ar      2 RES2    0.0000
    100 H36       11.3314    7.4033   12.9633 H         2 RES2    0.0000
    101 C65        6.9635    2.6032   10.2848 C.ar      2 RES2    0.0000
    102 H37        6.5138    1.9981    9.7069 H         2 RES2    0.0000
    103 C66       10.9434   11.3199   15.6947 C.ar      2 RES2    0.0000
    104 H38       11.6107   11.1925   16.3574 H         2 RES2    0.0000
    105 C67        7.9008    8.4790   13.9496 C.ar      2 RES2    0.0000
    106 H39        7.0269    8.7470   14.2067 H         2 RES2    0.0000
    107 C68       11.3054   11.5419   14.3787 C.ar      2 RES2    0.0000
    108 H40       12.2238   11.5693   14.1378 H         2 RES2    0.0000
    109 C69        8.6275   11.4639   15.0692 C.ar      2 RES2    0.0000
    110 H41        7.7104   11.4363   15.3140 H         2 RES2    0.0000
    111 C70       10.2751   15.8033   15.9817 C.ar      2 RES2    0.0000
    112 H42       10.6914   14.9581   15.8651 H         2 RES2    0.0000
    113 C71        9.6048   11.2841   16.0410 C.ar      2 RES2    0.0000
    114 H43        9.3529   11.1365   16.9455 H         2 RES2    0.0000
    115 C72        8.6344    7.6239   14.7709 C.ar      2 RES2    0.0000
    116 H44        8.2612    7.3190   15.5895 H         2 RES2    0.0000
    117 C73        8.5123   17.3649   15.4373 C.ar      2 RES2    0.0000
    118 H45        7.7279   17.5881   14.9494 H         2 RES2    0.0000
    119 C74       10.8161   16.7221   16.8717 C.ar      2 RES2    0.0000
    120 H46       11.6024   16.5057   17.3589 H         2 RES2    0.0000
    121 C75        9.0628   18.2757   16.3351 C.ar      2 RES2    0.0000
    122 H47        8.6506   19.1219   16.4582 H         2 RES2    0.0000
    123 C76       10.2045   17.9585   17.0482 C.ar      2 RES2    0.0000
    124 H48       10.5717   18.5865   17.6596 H         2 RES2    0.0000
@<TRIPOS>BOND
     1    1    2 ar
     2    2    6 ar
     3    3    5 3
     4    4    7 1
     5    5   13 1
     6    6    7 ar
     7    7   20 ar
     8    8    4 3
     9    9    1 ar
    10   10    9 1
    11   11    1 ar
    12   12   11 1
    13   13   34 ar
    14   14   15 1
    15   15    2 ar
    16   16    8 1
    17   17    3 1
    18   18   19 1
    19   20    9 ar
    20   21   20 1
    21   22   11 ar
    22   23   22 1
    23   24   14 ar
    24   25   24 1
    25   26   16 ar
    26   27   26 1
    27   28   26 ar
    28   29   28 1
    29   30   14 ar
    30   31   30 1
    31   32   33 1
    32   34   35 1
    33   36   34 ar
    34   37   36 1
    35   38    6 1
    36   39   13 ar
    37   40   39 1
    38   41   36 ar
    39   42   41 1
    40   43   24 ar
    41   44   43 1
    42   45   16 ar
    43   46   45 1
    44   47   39 ar
    45   48   47 1
    46   49   32 ar
    47   50   49 1
    48   51   28 ar
    49   52   51 1
    50   53   30 ar
    51   54   53 1
    52   55   18 ar
    53   56   55 1
    54   57   49 ar
    55   58   57 1
    56   59   43 ar
    57   60   59 1
    58   61   45 ar
    59   62   61 1
    60   63   70 1
    61   64   66 1
    62   65   88 1
    63   66   67 ar
    64   67   71 ar
    65   68   69 1
    66   70   66 ar
    67   71   72 ar
    68   72   73 1
    69   74   78 1
    70   75   70 ar
    71   76   75 1
    72   77   79 1
    73   78   63 3
    74   79   68 ar
    75   80   68 ar
    76   81   80 1
    77   82   74 ar
    78   83   82 1
    79   84   74 ar
    80   85   84 1
    81   86   87 1
    82   88   67 ar
    83   89   90 1
    84   90   77 3
    85   91   84 ar
    86   92   91 1
    87   93   64 ar
    88   94   93 1
    89   95   96 1
    90   97   65 ar
    91   98   97 1
    92   99   93 ar
    93  100   99 1
    94  101   82 ar
    95  102  101 1
    96  103  104 1
    97  105   64 ar
    98  106  105 1
    99  107   97 ar
   100  108  107 1
   101  109   65 ar
   102  110  109 1
   103  111   89 ar
   104  112  111 1
   105  113  103 ar
   106  114  113 1
   107  115   95 ar
   108  116  115 1
   109  117   89 ar
   110  118  117 1
   111  119  111 ar
   112  120  119 1
   113  121  117 ar
   114  122  121 1
   115  123  119 ar
   116  124  123 1
   117   15   17 ar
   118   17   22 ar
   119   18   38 ar
   120   32   38 ar
   121   41   47 ar
   122   51   61 ar
   123   53   59 ar
   124   55   57 ar
   125   71   80 ar
   126   72   75 ar
   127   79   88 ar
   128   86   91 ar
   129   86  101 ar
   130   95   99 ar
   131  103  107 ar
   132  105  115 ar
   133  109  113 ar
   134  121  123 ar
@<TRIPOS>SUBSTRUCTURE
     1 RES1 1
     2 RES2 63

@<TRIPOS>CRYSIN
  10.2480   15.0433   16.9963  85.3970  82.5090  87.7590   2 1

