# MOL2 file generated by ConQuest
# Please check atom types

@<TRIPOS>MOLECULE
VAWBAY
    72    80     2
SMALL
NO_CHARGES
****
Generated from CSD

@<TRIPOS>ATOM
      1 C1         6.0273   14.8845    1.9281 C.ar      1 RES1    0.0000
      2 C2         6.6478   15.2810    0.7403 C.ar      1 RES1    0.0000
      3 H1         7.5323   15.6250    0.7841 H         1 RES1    0.0000
      4 C3         6.0266   15.1955   -0.5143 C.ar      1 RES1    0.0000
      5 H2         6.4808   15.4933   -1.2938 H         1 RES1    0.0000
      6 C4         4.7465   14.6755   -0.6112 C.ar      1 RES1    0.0000
      7 C5         3.7861   14.4681   -1.6951 C.ar      1 RES1    0.0000
      8 C6         3.8515   14.7182   -3.0489 C.ar      1 RES1    0.0000
      9 H3         4.6480   15.0688   -3.4295 H         1 RES1    0.0000
     10 C7         2.7527   14.4582   -3.8584 C.ar      1 RES1    0.0000
     11 H4         2.7941   14.6343   -4.7902 H         1 RES1    0.0000
     12 C8         1.5726   13.9284   -3.2842 C.ar      1 RES1    0.0000
     13 H5         0.8243   13.7441   -3.8400 H         1 RES1    0.0000
     14 C9         1.4907   13.6733   -1.9073 C.ar      1 RES1    0.0000
     15 H6         0.6972   13.3145   -1.5268 H         1 RES1    0.0000
     16 C10        2.5895   13.9530   -1.1186 C.ar      1 RES1    0.0000
     17 C11        2.7933   13.8132    0.3575 C.ar      1 RES1    0.0000
     18 C12        2.0156   13.4314    1.3838 C.ar      1 RES1    0.0000
     19 H7         1.1432   13.0842    1.2408 H         1 RES1    0.0000
     20 C13        2.5534   13.5663    2.6961 C.ar      1 RES1    0.0000
     21 H8         2.0051   13.3310    3.4364 H         1 RES1    0.0000
     22 C14        3.8372   14.0238    2.9475 C.ar      1 RES1    0.0000
     23 H9         4.1501   14.0962    3.8400 H         1 RES1    0.0000
     24 C15        4.6788   14.3825    1.8727 C.ar      1 RES1    0.0000
     25 C16        4.1057   14.2871    0.6043 C.ar      1 RES1    0.0000
     26 C17        6.7877   15.0013    3.2173 C.ar      1 RES1    0.0000
     27 C18        7.6007   16.1088    3.4687 C.ar      1 RES1    0.0000
     28 H10        7.6128   16.8230    2.8414 H         1 RES1    0.0000
     29 C19        8.3761   16.1993    4.5849 C.ar      1 RES1    0.0000
     30 H11        8.9598   16.9415    4.6933 H         1 RES1    0.0000
     31 C20        8.3212   15.2136    5.5674 C.ar      1 RES1    0.0000
     32 H12        8.8236   15.2909    6.3700 H         1 RES1    0.0000
     33 C21        7.5037   14.1094    5.3345 C.ar      1 RES1    0.0000
     34 H13        7.4503   13.4248    5.9895 H         1 RES1    0.0000
     35 C22        6.7742   13.9892    4.1813 C.ar      1 RES1    0.0000
     36 H14        6.2537   13.2076    4.0337 H         1 RES1    0.0000
     37 C23        2.9084   18.5640    2.2671 C.ar      2 RES2    0.0000
     38 C24        3.5123   17.8301    1.2454 C.ar      2 RES2    0.0000
     39 H15        4.3840   17.4829    1.3930 H         2 RES2    0.0000
     40 C25        2.8911   17.5783    0.0069 C.ar      2 RES2    0.0000
     41 H16        3.3446   17.0797   -0.6642 H         2 RES2    0.0000
     42 C26        1.6290   18.0588   -0.2283 C.ar      2 RES2    0.0000
     43 C27        0.6506   17.9700   -1.3215 C.ar      2 RES2    0.0000
     44 C28        0.7371   17.3594   -2.5577 C.ar      2 RES2    0.0000
     45 H17        1.5403   16.9382   -2.8391 H         2 RES2    0.0000
     46 C29       -0.4009   17.3775   -3.3903 C.ar      2 RES2    0.0000
     47 H18       -0.3565   16.9809   -4.2528 H         2 RES2    0.0000
     48 C30       -1.5952   17.9732   -2.9636 C.ar      2 RES2    0.0000
     49 H19       -2.3616   17.9469   -3.5240 H         2 RES2    0.0000
     50 C31       -1.6636   18.6084   -1.7090 C.ar      2 RES2    0.0000
     51 H20       -2.4676   19.0297   -1.4276 H         2 RES2    0.0000
     52 C32       -0.5505   18.6134   -0.8879 C.ar      2 RES2    0.0000
     53 C33       -0.3264   19.1383    0.4636 C.ar      2 RES2    0.0000
     54 C34       -1.0966   19.8278    1.3699 C.ar      2 RES2    0.0000
     55 H21       -1.9675   20.1306    1.1416 H         2 RES2    0.0000
     56 C35       -0.5513   20.0730    2.6638 C.ar      2 RES2    0.0000
     57 H22       -1.0913   20.5108    3.3095 H         2 RES2    0.0000
     58 C36        0.7235   19.7011    3.0097 C.ar      2 RES2    0.0000
     59 H23        1.0469   19.8887    3.8838 H         2 RES2    0.0000
     60 C37        1.5704   19.0330    2.0688 C.ar      2 RES2    0.0000
     61 C38        0.9935   18.7763    0.8326 C.ar      2 RES2    0.0000
     62 C39        3.6627   18.8076    3.5309 C.ar      2 RES2    0.0000
     63 C40        3.6875   20.0829    4.1214 C.ar      2 RES2    0.0000
     64 H24        3.1791   20.7872    3.7362 H         2 RES2    0.0000
     65 C41        4.4359   20.3248    5.2468 C.ar      2 RES2    0.0000
     66 H25        4.4396   21.1970    5.6228 H         2 RES2    0.0000
     67 C42        5.1812   19.3342    5.8442 C.ar      2 RES2    0.0000
     68 H26        5.6889   19.5119    6.6260 H         2 RES2    0.0000
     69 C43        5.1729   18.0654    5.2745 C.ar      2 RES2    0.0000
     70 H27        5.6859   17.3693    5.6666 H         2 RES2    0.0000
     71 C44        4.4163   17.8103    4.1329 C.ar      2 RES2    0.0000
     72 H28        4.4171   16.9382    3.7593 H         2 RES2    0.0000
@<TRIPOS>BOND
     1    1    2 ar
     2    2    3 1
     3    4    2 ar
     4    5    4 1
     5    6    4 ar
     6    7    6 1
     7    8    7 ar
     8    9    8 1
     9   10    8 ar
    10   11   10 1
    11   12   10 ar
    12   13   12 1
    13   14   12 ar
    14   15   14 1
    15   16    7 ar
    16   17   16 1
    17   18   17 ar
    18   19   18 1
    19   20   18 ar
    20   21   20 1
    21   22   20 ar
    22   23   22 1
    23   24    1 ar
    24   25    6 ar
    25   26    1 1
    26   27   26 ar
    27   28   27 1
    28   29   27 ar
    29   30   29 1
    30   31   29 ar
    31   32   31 1
    32   33   31 ar
    33   34   33 1
    34   35   26 ar
    35   36   35 1
    36   37   38 ar
    37   38   39 1
    38   40   38 ar
    39   41   40 1
    40   42   40 ar
    41   43   42 1
    42   44   43 ar
    43   45   44 1
    44   46   44 ar
    45   47   46 1
    46   48   46 ar
    47   49   48 1
    48   50   48 ar
    49   51   50 1
    50   52   43 ar
    51   53   52 1
    52   54   53 ar
    53   55   54 1
    54   56   54 ar
    55   57   56 1
    56   58   56 ar
    57   59   58 1
    58   60   37 ar
    59   61   42 ar
    60   62   37 1
    61   63   62 ar
    62   64   63 1
    63   65   63 ar
    64   66   65 1
    65   67   65 ar
    66   68   67 1
    67   69   67 ar
    68   70   69 1
    69   71   62 ar
    70   72   71 1
    71   14   16 ar
    72   17   25 ar
    73   22   24 ar
    74   24   25 ar
    75   33   35 ar
    76   50   52 ar
    77   53   61 ar
    78   58   60 ar
    79   60   61 ar
    80   69   71 ar
@<TRIPOS>SUBSTRUCTURE
     1 RES1 1
     2 RES2 37

@<TRIPOS>CRYSIN
   7.5210   16.4560   23.0630  90.0000  90.0000  90.0000  19 1

