# MOL2 file generated by ConQuest
# Please check atom types

@<TRIPOS>MOLECULE
VAWQAO
    68    73     1
SMALL
NO_CHARGES
****
Generated from CSD

@<TRIPOS>ATOM
      1 C1         0.6980    2.7576    1.6740 C.ar      1 RES1    0.0000
      2 C2         1.3710    1.5514    1.5228 C.ar      1 RES1    0.0000
      3 C3         0.6949    0.2995    1.6706 C.ar      1 RES1    0.0000
      4 C4         1.3606   -0.9376    1.5217 C.ar      1 RES1    0.0000
      5 H1         2.2874   -0.9506    1.3142 H         1 RES1    0.0000
      6 C5         0.6871   -2.1146    1.6724 C.ar      1 RES1    0.0000
      7 H2         1.1491   -2.9386    1.5731 H         1 RES1    0.0000
      8 C6         2.7643    1.5444    1.1765 C.1       1 RES1    0.0000
      9 C7         3.9189    1.5270    0.8691 C.1       1 RES1    0.0000
     10 C8         5.3029    1.5876    0.4988 C.ar      1 RES1    0.0000
     11 C9         6.0491    2.7305    0.7839 C.ar      1 RES1    0.0000
     12 H3         5.6439    3.4573    1.2406 H         1 RES1    0.0000
     13 C10        7.3778    2.8093    0.4048 C.ar      1 RES1    0.0000
     14 H4         7.8816    3.5897    0.6031 H         1 RES1    0.0000
     15 C11        7.9735    1.7588   -0.2591 C.ar      1 RES1    0.0000
     16 H5         8.8865    1.8144   -0.5149 H         1 RES1    0.0000
     17 C12        7.2428    0.6235   -0.5532 C.ar      1 RES1    0.0000
     18 H6         7.6539   -0.0955   -1.0167 H         1 RES1    0.0000
     19 C13        5.9141    0.5296   -0.1755 C.ar      1 RES1    0.0000
     20 H7         5.4180   -0.2561   -0.3756 H         1 RES1    0.0000
     21 C14        1.4369    4.0383    1.4850 C.ar      1 RES1    0.0000
     22 C15        1.0934    4.9449    0.4894 C.ar      1 RES1    0.0000
     23 H8         0.3504    4.7639   -0.0744 H         1 RES1    0.0000
     24 C16        1.8205    6.1116    0.3085 C.ar      1 RES1    0.0000
     25 H9         1.5688    6.7150   -0.3814 H         1 RES1    0.0000
     26 C17        2.9134    6.4192    1.1173 C.ar      1 RES1    0.0000
     27 C18        3.2531    5.5109    2.1147 C.ar      1 RES1    0.0000
     28 H10        3.9950    5.6906    2.6788 H         1 RES1    0.0000
     29 C19        2.5249    4.3470    2.2982 C.ar      1 RES1    0.0000
     30 H11        2.7730    3.7482    2.9924 H         1 RES1    0.0000
     31 C20        3.6670    7.7092    0.9379 C.3       1 RES1    0.0000
     32 H12        3.1234    8.4534    1.2690 H         1 RES1    0.0000
     33 H13        3.8616    7.8436   -0.0131 H         1 RES1    0.0000
     34 H14        4.5073    7.6699    1.4404 H         1 RES1    0.0000
     35 C1B       -0.6980    2.7576    1.9726 C.ar      1 RES1    0.0000
     36 C2B       -1.3710    1.5514    2.1238 C.ar      1 RES1    0.0000
     37 C3B       -0.6949    0.2995    1.9760 C.ar      1 RES1    0.0000
     38 C4B       -1.3606   -0.9376    2.1249 C.ar      1 RES1    0.0000
     39 H1B       -2.2874   -0.9506    2.3324 H         1 RES1    0.0000
     40 C5B       -0.6871   -2.1146    1.9742 C.ar      1 RES1    0.0000
     41 H2B       -1.1491   -2.9386    2.0735 H         1 RES1    0.0000
     42 C6B       -2.7643    1.5444    2.4701 C.1       1 RES1    0.0000
     43 C7B       -3.9189    1.5270    2.7775 C.1       1 RES1    0.0000
     44 C8B       -5.3029    1.5876    3.1478 C.ar      1 RES1    0.0000
     45 C9B       -6.0491    2.7305    2.8627 C.ar      1 RES1    0.0000
     46 H3B       -5.6439    3.4573    2.4060 H         1 RES1    0.0000
     47 C10B      -7.3778    2.8093    3.2418 C.ar      1 RES1    0.0000
     48 H4B       -7.8816    3.5897    3.0435 H         1 RES1    0.0000
     49 C11B      -7.9735    1.7588    3.9057 C.ar      1 RES1    0.0000
     50 H5B       -8.8865    1.8144    4.1615 H         1 RES1    0.0000
     51 C12B      -7.2428    0.6235    4.1998 C.ar      1 RES1    0.0000
     52 H6B       -7.6539   -0.0955    4.6633 H         1 RES1    0.0000
     53 C13B      -5.9141    0.5296    3.8221 C.ar      1 RES1    0.0000
     54 H7B       -5.4180   -0.2561    4.0222 H         1 RES1    0.0000
     55 C14B      -1.4369    4.0383    2.1616 C.ar      1 RES1    0.0000
     56 C15B      -1.0934    4.9449    3.1572 C.ar      1 RES1    0.0000
     57 H8B       -0.3504    4.7639    3.7210 H         1 RES1    0.0000
     58 C16B      -1.8205    6.1116    3.3381 C.ar      1 RES1    0.0000
     59 H9B       -1.5688    6.7150    4.0280 H         1 RES1    0.0000
     60 C17B      -2.9134    6.4192    2.5293 C.ar      1 RES1    0.0000
     61 C18B      -3.2531    5.5109    1.5319 C.ar      1 RES1    0.0000
     62 H10B      -3.9950    5.6906    0.9678 H         1 RES1    0.0000
     63 C19B      -2.5249    4.3470    1.3484 C.ar      1 RES1    0.0000
     64 H11B      -2.7730    3.7482    0.6542 H         1 RES1    0.0000
     65 C20B      -3.6670    7.7092    2.7087 C.3       1 RES1    0.0000
     66 H12B      -3.1234    8.4534    2.3776 H         1 RES1    0.0000
     67 H13B      -3.8616    7.8436    3.6597 H         1 RES1    0.0000
     68 H14B      -4.5073    7.6699    2.2062 H         1 RES1    0.0000
@<TRIPOS>BOND
     1    1    2 ar
     2    2    3 ar
     3    3    4 ar
     4    4    5 1
     5    6    4 ar
     6    7    6 1
     7    8    2 1
     8    9    8 3
     9   10    9 1
    10   11   10 ar
    11   12   11 1
    12   13   11 ar
    13   14   13 1
    14   15   13 ar
    15   16   15 1
    16   17   15 ar
    17   18   17 1
    18   19   10 ar
    19   20   19 1
    20   21    1 1
    21   22   21 ar
    22   23   22 1
    23   24   22 ar
    24   25   24 1
    25   26   24 ar
    26   27   26 ar
    27   28   27 1
    28   29   21 ar
    29   30   29 1
    30   31   26 1
    31   32   31 1
    32   33   31 1
    33   34   31 1
    34   35    1 ar
    35   36   35 ar
    36   37    3 ar
    37   38   37 ar
    38   39   38 1
    39   40    6 ar
    40   41   40 1
    41   42   36 1
    42   43   42 3
    43   44   43 1
    44   45   44 ar
    45   46   45 1
    46   47   45 ar
    47   48   47 1
    48   49   47 ar
    49   50   49 1
    50   51   49 ar
    51   52   51 1
    52   53   44 ar
    53   54   53 1
    54   55   35 1
    55   56   55 ar
    56   57   56 1
    57   58   56 ar
    58   59   58 1
    59   60   58 ar
    60   61   60 ar
    61   62   61 1
    62   63   55 ar
    63   64   63 1
    64   65   60 1
    65   66   65 1
    66   67   65 1
    67   68   65 1
    68   17   19 ar
    69   27   29 ar
    70   36   37 ar
    71   38   40 ar
    72   51   53 ar
    73   61   63 ar
@<TRIPOS>SUBSTRUCTURE
     1 RES1 1

@<TRIPOS>CRYSIN
  17.7873   21.7033    7.2932  90.0000  90.0000  90.0000  60 1

