# MOL2 file generated by ConQuest
# Please check atom types

@<TRIPOS>MOLECULE
VEBJIW
   112   124     2
SMALL
NO_CHARGES
****
Generated from CSD

@<TRIPOS>ATOM
      1 C1         6.2293    7.0635    4.8861 C.ar      1 RES1    0.0000
      2 C2         6.4717    8.4275    4.9329 C.ar      1 RES1    0.0000
      3 C3         7.8853    8.8686    4.9095 C.ar      1 RES1    0.0000
      4 C4         8.9541    7.9412    4.8900 C.ar      1 RES1    0.0000
      5 C5         8.6589    6.5897    4.8822 C.ar      1 RES1    0.0000
      6 C6         7.2841    6.1253    4.8822 C.ar      1 RES1    0.0000
      7 C7         7.0791    4.7240    4.7982 C.ar      1 RES1    0.0000
      8 C8         8.0733    3.8261    4.7787 C.ar      1 RES1    0.0000
      9 C9         9.4590    4.2627    4.8021 C.ar      1 RES1    0.0000
     10 C10        9.6842    5.6126    4.8431 C.ar      1 RES1    0.0000
     11 C11       10.5060    3.2995    4.7220 C.ar      1 RES1    0.0000
     12 C12       10.2341    1.9869    4.6107 C.ar      1 RES1    0.0000
     13 C13        8.9137    1.5022    4.5443 C.ar      1 RES1    0.0000
     14 C14        7.8636    2.4032    4.6595 C.ar      1 RES1    0.0000
     15 C15       10.3102    8.4881    4.8197 C.ar      1 RES1    0.0000
     16 C16       10.8462    9.0038    3.6441 C.ar      1 RES1    0.0000
     17 C17       12.1480    9.4869    3.6382 C.ar      1 RES1    0.0000
     18 C18       12.9371    9.4030    4.7513 C.ar      1 RES1    0.0000
     19 C19       12.4385    8.8686    5.8918 C.ar      1 RES1    0.0000
     20 C20       11.1336    8.4337    5.9563 C.ar      1 RES1    0.0000
     21 C21        8.0966   10.3134    4.8587 C.ar      1 RES1    0.0000
     22 C22        7.0418   11.2004    4.8294 C.ar      1 RES1    0.0000
     23 C23        5.6918   10.7468    4.8607 C.ar      1 RES1    0.0000
     24 C24        5.4511    9.3984    4.8939 C.ar      1 RES1    0.0000
     25 C25        4.6479   11.7146    4.8509 C.ar      1 RES1    0.0000
     26 C26        4.9027   13.0334    4.7025 C.ar      1 RES1    0.0000
     27 C27        6.2495   13.5150    4.6771 C.ar      1 RES1    0.0000
     28 C28        7.2966   12.6125    4.7416 C.ar      1 RES1    0.0000
     29 C29        4.8017    6.5509    4.8099 C.ar      1 RES1    0.0000
     30 C30        4.2533    6.2169    3.6460 C.ar      1 RES1    0.0000
     31 C31        2.9283    5.7835    3.5738 C.ar      1 RES1    0.0000
     32 C32        2.1826    5.7089    4.7103 C.ar      1 RES1    0.0000
     33 C33        2.7154    6.0833    5.8684 C.ar      1 RES1    0.0000
     34 C34        4.0234    6.4732    5.9836 C.ar      1 RES1    0.0000
     35 C35       13.9127   -0.3495    2.0544 C.ar      2 RES2    0.0000
     36 C36       14.1768    1.0672    2.0193 C.ar      2 RES2    0.0000
     37 C37       15.5423    1.5597    2.0251 C.ar      2 RES2    0.0000
     38 C38       16.5675    0.6090    1.9997 C.ar      2 RES2    0.0000
     39 C39       16.3392   -0.7907    2.0290 C.ar      2 RES2    0.0000
     40 C40       14.9768   -1.2630    2.0700 C.ar      2 RES2    0.0000
     41 C41       14.7376   -2.6378    2.0837 C.ar      2 RES2    0.0000
     42 C42       15.8079   -3.5854    2.1521 C.ar      2 RES2    0.0000
     43 C43       17.1579   -3.1085    2.0857 C.ar      2 RES2    0.0000
     44 C44       17.3971   -1.7414    2.0056 C.ar      2 RES2    0.0000
     45 C45       18.2111   -4.0794    2.1579 C.ar      2 RES2    0.0000
     46 C46       17.9222   -5.3920    2.2751 C.ar      2 RES2    0.0000
     47 C47       16.5769   -5.8317    2.3434 C.ar      2 RES2    0.0000
     48 C48       15.5873   -4.9819    2.2770 C.ar      2 RES2    0.0000
     49 C49       18.0216    1.0765    1.9880 C.ar      2 RES2    0.0000
     50 C50       18.7719    1.1697    0.9042 C.ar      2 RES2    0.0000
     51 C51       20.1047    1.6063    0.9725 C.ar      2 RES2    0.0000
     52 C52       20.6298    1.9372    2.1833 C.ar      2 RES2    0.0000
     53 C53       19.8748    1.8284    3.3257 C.ar      2 RES2    0.0000
     54 C54       18.5653    1.3934    3.2086 C.ar      2 RES2    0.0000
     55 C55       15.7566    2.9018    2.0525 C.ar      2 RES2    0.0000
     56 C56       14.7485    3.8448    2.1150 C.ar      2 RES2    0.0000
     57 C57       13.3985    3.3850    2.0954 C.ar      2 RES2    0.0000
     58 C58       13.1282    2.0195    2.0076 C.ar      2 RES2    0.0000
     59 C59       12.3297    4.3667    2.1364 C.ar      2 RES2    0.0000
     60 C60       12.6202    5.6623    2.2302 C.ar      2 RES2    0.0000
     61 C61       13.9531    6.0957    2.2751 C.ar      2 RES2    0.0000
     62 C62       14.9722    5.2336    2.1989 C.ar      2 RES2    0.0000
     63 C63       12.4913   -0.8218    2.1013 C.ar      2 RES2    0.0000
     64 C64       11.6695   -0.7892    1.0174 C.ar      2 RES2    0.0000
     65 C65       10.3304   -1.2707    1.1249 C.ar      2 RES2    0.0000
     66 C66        9.9048   -1.7740    2.3473 C.ar      2 RES2    0.0000
     67 C67       10.7530   -1.8439    3.3843 C.ar      2 RES2    0.0000
     68 C68       12.0517   -1.3593    3.2945 C.ar      2 RES2    0.0000
     69 H1         6.0740    4.4165    4.8138 H         1 RES1    0.0000
     70 H2        10.7002    5.8518    4.8568 H         1 RES1    0.0000
     71 H3        11.4738    3.6770    4.7572 H         1 RES1    0.0000
     72 H4        11.0528    1.2692    4.6732 H         1 RES1    0.0000
     73 H5         8.7180    0.5049    4.3315 H         1 RES1    0.0000
     74 H6         6.9299    2.0055    4.8431 H         1 RES1    0.0000
     75 H7        10.2994    8.8764    2.8278 H         1 RES1    0.0000
     76 H8        12.5659    9.5677    2.6930 H         1 RES1    0.0000
     77 H9        13.7977    9.9545    4.6693 H         1 RES1    0.0000
     78 H10       13.1748    8.7568    6.6105 H         1 RES1    0.0000
     79 H11        9.0333   10.6473    4.8548 H         1 RES1    0.0000
     80 H12        4.4693    9.1389    4.9661 H         1 RES1    0.0000
     81 H13        3.7096   11.3868    4.8509 H         1 RES1    0.0000
     82 H14        4.0902   13.6735    4.7630 H         1 RES1    0.0000
     83 H15        6.3583   14.4704    4.4506 H         1 RES1    0.0000
     84 H16        8.2752   12.9915    4.8451 H         1 RES1    0.0000
     85 H17        4.7505    6.6348    2.8024 H         1 RES1    0.0000
     86 H18        2.4545    5.9699    2.6090 H         1 RES1    0.0000
     87 H19        1.2443    5.2336    4.6537 H         1 RES1    0.0000
     88 H20        2.0832    6.0833    6.7120 H         1 RES1    0.0000
     89 H21        4.4335    6.5726    6.8839 H         1 RES1    0.0000
     90 H22       13.7900   -2.9904    2.0876 H         2 RES2    0.0000
     91 H23       18.3540   -1.3903    2.0271 H         2 RES2    0.0000
     92 H24       19.1401   -3.7951    2.1306 H         2 RES2    0.0000
     93 H25       18.7237   -6.0616    2.3903 H         2 RES2    0.0000
     94 H26       16.4013   -6.8429    2.3747 H         2 RES2    0.0000
     95 H27       14.5807   -5.3144    2.4333 H         2 RES2    0.0000
     96 H28       18.3183    0.8078    0.0195 H         2 RES2    0.0000
     97 H29       20.5786    1.6016    0.0644 H         2 RES2    0.0000
     98 H30       21.6473    2.1205    2.1755 H         2 RES2    0.0000
     99 H31       20.1063    2.6952    4.0249 H         2 RES2    0.0000
    100 H32       17.9408    1.4835    4.1049 H         2 RES2    0.0000
    101 H33       16.7260    3.2591    2.0056 H         2 RES2    0.0000
    102 H34       12.1775    1.6032    1.9978 H         2 RES2    0.0000
    103 H35       11.3200    4.0172    2.0251 H         2 RES2    0.0000
    104 H36       11.8792    6.2728    2.4333 H         2 RES2    0.0000
    105 H37       14.2172    7.0682    2.2712 H         2 RES2    0.0000
    106 H38       15.8965    5.4868    2.4157 H         2 RES2    0.0000
    107 H39       12.0936   -0.5111    0.1055 H         2 RES2    0.0000
    108 H40        9.7774   -1.2024    0.2500 H         2 RES2    0.0000
    109 H41        8.9013   -2.0117    2.3298 H         2 RES2    0.0000
    110 H42       10.3693   -2.4311    4.1772 H         2 RES2    0.0000
    111 H43       12.7383   -1.6700    4.1088 H         2 RES2    0.0000
    112 H44       10.7934    8.0624    6.8780 H         1 RES1    0.0000
@<TRIPOS>BOND
     1    1    2 ar
     2    2    3 ar
     3    3    4 ar
     4    4    5 ar
     5    5    6 ar
     6    6    1 ar
     7    7    6 ar
     8    8    7 ar
     9    9    8 ar
    10   10    5 ar
    11   11    9 ar
    12   12   11 ar
    13   13   12 ar
    14   14    8 ar
    15   15    4 1
    16   16   15 ar
    17   17   16 ar
    18   18   17 ar
    19   19   18 ar
    20   20   15 ar
    21   21    3 ar
    22   22   21 ar
    23   23   22 ar
    24   24    2 ar
    25   25   23 ar
    26   26   25 ar
    27   27   26 ar
    28   28   22 ar
    29   29    1 1
    30   30   29 ar
    31   31   30 ar
    32   32   31 ar
    33   33   32 ar
    34   34   29 ar
    35   35   36 ar
    36   36   37 ar
    37   37   38 ar
    38   38   39 ar
    39   39   40 ar
    40   40   35 ar
    41   41   40 ar
    42   42   41 ar
    43   43   42 ar
    44   44   39 ar
    45   45   43 ar
    46   46   45 ar
    47   47   46 ar
    48   48   42 ar
    49   49   38 1
    50   50   49 ar
    51   51   50 ar
    52   52   51 ar
    53   53   52 ar
    54   54   49 ar
    55   55   37 ar
    56   56   55 ar
    57   57   56 ar
    58   58   36 ar
    59   59   57 ar
    60   60   59 ar
    61   61   60 ar
    62   62   56 ar
    63   63   35 1
    64   64   63 ar
    65   65   64 ar
    66   66   65 ar
    67   67   66 ar
    68   68   63 ar
    69   69    7 1
    70   70   10 1
    71   71   11 1
    72   72   12 1
    73   73   13 1
    74   74   14 1
    75   75   16 1
    76   76   17 1
    77   77   18 1
    78   78   19 1
    79   79   21 1
    80   80   24 1
    81   81   25 1
    82   82   26 1
    83   83   27 1
    84   84   28 1
    85   85   30 1
    86   86   31 1
    87   87   32 1
    88   88   33 1
    89   89   34 1
    90   90   41 1
    91   91   44 1
    92   92   45 1
    93   93   46 1
    94   94   47 1
    95   95   48 1
    96   96   50 1
    97   97   51 1
    98   98   52 1
    99   99   53 1
   100  100   54 1
   101  101   55 1
   102  102   58 1
   103  103   59 1
   104  104   60 1
   105  105   61 1
   106  106   62 1
   107  107   64 1
   108  108   65 1
   109  109   66 1
   110  110   67 1
   111  111   68 1
   112  112   20 1
   113    9   10 ar
   114   13   14 ar
   115   19   20 ar
   116   23   24 ar
   117   27   28 ar
   118   33   34 ar
   119   43   44 ar
   120   47   48 ar
   121   53   54 ar
   122   57   58 ar
   123   61   62 ar
   124   67   68 ar
@<TRIPOS>SUBSTRUCTURE
     1 RES1 1
     2 RES2 35

@<TRIPOS>CRYSIN
  15.5345   15.5345   19.5287  90.0000  90.0000  90.0000  76 1

