# MOL2 file generated by ConQuest
# Please check atom types

@<TRIPOS>MOLECULE
VEBJOC
    96   106     1
SMALL
NO_CHARGES
****
Generated from CSD

@<TRIPOS>ATOM
      1 C1        -1.3311    5.4482    7.5080 C.ar      1 RES1    0.0000
      2 C2        -1.8042    5.2220    6.1919 C.ar      1 RES1    0.0000
      3 C3        -1.7552    4.6041    8.5553 C.ar      1 RES1    0.0000
      4 C4        -1.2677    4.7659    9.8743 C.ar      1 RES1    0.0000
      5 C5        -1.6472    3.9361   10.9182 C.ar      1 RES1    0.0000
      6 C6        -2.5946    2.8775   10.6576 C.ar      1 RES1    0.0000
      7 C7        -1.4178    6.0623    5.1173 C.ar      1 RES1    0.0000
      8 C8        -3.0460    2.0420   11.7521 C.ar      1 RES1    0.0000
      9 C9        -4.0557    0.9649   11.5498 C.ar      1 RES1    0.0000
     10 C10       -3.7815   -0.3355   11.9962 C.ar      1 RES1    0.0000
     11 C11       -4.7206   -1.3518   11.8338 C.ar      1 RES1    0.0000
     12 C12       -5.9263   -1.0820   11.2360 C.ar      1 RES1    0.0000
     13 C13       -6.2269    0.1869   10.8177 C.ar      1 RES1    0.0000
     14 C14       -5.2899    1.2043   10.9798 C.ar      1 RES1    0.0000
     15 C15       -2.5249    2.2695   12.9948 C.ar      1 RES1    0.0000
     16 C16       -1.5732    3.2850   13.2428 C.ar      1 RES1    0.0000
     17 C17       -1.1201    4.1081   12.2568 C.ar      1 RES1    0.0000
     18 C18       -0.1089    5.1465   12.5891 C.ar      1 RES1    0.0000
     19 C19       -0.3164    5.9888   13.6779 C.ar      1 RES1    0.0000
     20 C20        0.6439    6.9254   14.0454 C.ar      1 RES1    0.0000
     21 C21        1.8048    7.0347   13.3318 C.ar      1 RES1    0.0000
     22 C22        2.0326    6.2065   12.2651 C.ar      1 RES1    0.0000
     23 C23        1.0860    5.2624   11.8896 C.ar      1 RES1    0.0000
     24 C24       -0.3711    6.5696    7.7700 C.ar      1 RES1    0.0000
     25 C25        0.9211    6.4918    7.2673 C.ar      1 RES1    0.0000
     26 C26        1.8187    7.5360    7.4916 C.ar      1 RES1    0.0000
     27 C27        1.4103    8.6448    8.2153 C.ar      1 RES1    0.0000
     28 C28        0.1450    8.7390    8.6597 C.ar      1 RES1    0.0000
     29 C29       -0.7513    7.6974    8.4628 C.ar      1 RES1    0.0000
     30 H1        -0.6290    5.5161   10.0564 H         1 RES1    0.0000
     31 H2        -0.8009    6.8364    5.3119 H         1 RES1    0.0000
     32 H3        -2.8837   -0.5419   12.4388 H         1 RES1    0.0000
     33 H4        -4.5198   -2.2771   12.1638 H         1 RES1    0.0000
     34 H5        -6.6031   -1.8260   11.1115 H         1 RES1    0.0000
     35 H6        -7.1290    0.4023   10.3878 H         1 RES1    0.0000
     36 H7        -5.5143    2.1549   10.6759 H         1 RES1    0.0000
     37 H8        -2.8564    1.6960   13.7573 H         1 RES1    0.0000
     38 H9        -1.2052    3.3910   14.1814 H         1 RES1    0.0000
     39 H10       -1.1919    5.9080   14.2104 H         1 RES1    0.0000
     40 H11        0.4475    7.5460   14.8298 H         1 RES1    0.0000
     41 H12        2.5094    7.7077   13.6198 H         1 RES1    0.0000
     42 H13        2.8990    6.2889   11.7368 H         1 RES1    0.0000
     43 H14        1.2550    4.6598   11.0913 H         1 RES1    0.0000
     44 H15        1.1957    5.6643    6.7375 H         1 RES1    0.0000
     45 H16        2.7713    7.4776    7.1225 H         1 RES1    0.0000
     46 H17        2.0772    9.3747    8.4208 H         1 RES1    0.0000
     47 H18       -0.1564    9.5843    9.1272 H         1 RES1    0.0000
     48 H19       -1.6888    7.7621    8.8565 H         1 RES1    0.0000
     49 C1A       -3.1214    3.2847    6.9658 C.ar      1 RES1    0.0000
     50 C2A       -2.6483    3.5109    8.2819 C.ar      1 RES1    0.0000
     51 C3A       -2.6973    4.1288    5.9185 C.ar      1 RES1    0.0000
     52 C4A       -3.1848    3.9670    4.5995 C.ar      1 RES1    0.0000
     53 C5A       -2.8053    4.7968    3.5556 C.ar      1 RES1    0.0000
     54 C6A       -1.8579    5.8554    3.8162 C.ar      1 RES1    0.0000
     55 C7A       -3.0347    2.6706    9.3564 C.ar      1 RES1    0.0000
     56 C8A       -1.4065    6.6909    2.7216 C.ar      1 RES1    0.0000
     57 C9A       -0.3968    7.7680    2.9240 C.ar      1 RES1    0.0000
     58 C10A      -0.6710    9.0684    2.4776 C.ar      1 RES1    0.0000
     59 C11A       0.2681   10.0847    2.6400 C.ar      1 RES1    0.0000
     60 C12A       1.4738    9.8149    3.2378 C.ar      1 RES1    0.0000
     61 C13A       1.7744    8.5460    3.6561 C.ar      1 RES1    0.0000
     62 C14A       0.8374    7.5286    3.4940 C.ar      1 RES1    0.0000
     63 C15A      -1.9276    6.4634    1.4789 C.ar      1 RES1    0.0000
     64 C16A      -2.8793    5.4479    1.2310 C.ar      1 RES1    0.0000
     65 C17A      -3.3324    4.6248    2.2169 C.ar      1 RES1    0.0000
     66 C18A      -4.3436    3.5864    1.8846 C.ar      1 RES1    0.0000
     67 C19A      -4.1361    2.7441    0.7959 C.ar      1 RES1    0.0000
     68 C20A      -5.0964    1.8075    0.4284 C.ar      1 RES1    0.0000
     69 C21A      -6.2573    1.6982    1.1420 C.ar      1 RES1    0.0000
     70 C22A      -6.4851    2.5264    2.2087 C.ar      1 RES1    0.0000
     71 C23A      -5.5385    3.4705    2.5841 C.ar      1 RES1    0.0000
     72 C24A      -4.0814    2.1633    6.7038 C.ar      1 RES1    0.0000
     73 C25A      -5.3736    2.2412    7.2065 C.ar      1 RES1    0.0000
     74 C26A      -6.2712    1.1969    6.9822 C.ar      1 RES1    0.0000
     75 C27A      -5.8628    0.0881    6.2585 C.ar      1 RES1    0.0000
     76 C28A      -4.5975   -0.0061    5.8141 C.ar      1 RES1    0.0000
     77 C29A      -3.7012    1.0355    6.0110 C.ar      1 RES1    0.0000
     78 H1A       -3.8235    3.2168    4.4174 H         1 RES1    0.0000
     79 H2A       -3.6516    1.8965    9.1619 H         1 RES1    0.0000
     80 H3A       -1.5688    9.2748    2.0350 H         1 RES1    0.0000
     81 H4A        0.0672   11.0100    2.3100 H         1 RES1    0.0000
     82 H5A        2.1506   10.5589    3.3623 H         1 RES1    0.0000
     83 H6A        2.6765    8.3306    4.0859 H         1 RES1    0.0000
     84 H7A        1.0618    6.5780    3.7979 H         1 RES1    0.0000
     85 H8A       -1.5962    7.0369    0.7165 H         1 RES1    0.0000
     86 H9A       -3.2473    5.3419    0.2924 H         1 RES1    0.0000
     87 H10A      -3.2606    2.8249    0.2634 H         1 RES1    0.0000
     88 H11A      -4.9000    1.1870   -0.3561 H         1 RES1    0.0000
     89 H12A      -6.9619    1.0252    0.8540 H         1 RES1    0.0000
     90 H13A      -7.3515    2.4440    2.7370 H         1 RES1    0.0000
     91 H14A      -5.7075    4.0732    3.3825 H         1 RES1    0.0000
     92 H15A      -5.6482    3.0686    7.7362 H         1 RES1    0.0000
     93 H16A      -7.2238    1.2553    7.3512 H         1 RES1    0.0000
     94 H17A      -6.5298   -0.6418    6.0529 H         1 RES1    0.0000
     95 H18A      -4.2961   -0.8514    5.3466 H         1 RES1    0.0000
     96 H19A      -2.7637    0.9708    5.6173 H         1 RES1    0.0000
@<TRIPOS>BOND
     1    1    2 ar
     2    2    7 ar
     3    3    1 ar
     4    4    3 ar
     5    5    4 ar
     6    6    5 ar
     7    7   31 1
     8    8    6 ar
     9    9    8 1
    10   10    9 ar
    11   11   10 ar
    12   12   11 ar
    13   13   12 ar
    14   14    9 ar
    15   15    8 ar
    16   16   15 ar
    17   17    5 ar
    18   18   17 1
    19   19   18 ar
    20   20   19 ar
    21   21   20 ar
    22   22   21 ar
    23   23   18 ar
    24   24    1 1
    25   25   24 ar
    26   26   25 ar
    27   27   26 ar
    28   28   27 ar
    29   29   24 ar
    30   30    4 1
    31   32   10 1
    32   33   11 1
    33   34   12 1
    34   35   13 1
    35   36   14 1
    36   37   15 1
    37   38   16 1
    38   39   19 1
    39   40   20 1
    40   41   21 1
    41   42   22 1
    42   43   23 1
    43   44   25 1
    44   45   26 1
    45   46   27 1
    46   47   28 1
    47   48   29 1
    48   49   50 ar
    49   50    3 ar
    50   51    2 ar
    51   52   51 ar
    52   53   52 ar
    53   54    7 ar
    54   55    6 ar
    55   56   54 ar
    56   57   56 1
    57   58   57 ar
    58   59   58 ar
    59   60   59 ar
    60   61   60 ar
    61   62   57 ar
    62   63   56 ar
    63   64   63 ar
    64   65   53 ar
    65   66   65 1
    66   67   66 ar
    67   68   67 ar
    68   69   68 ar
    69   70   69 ar
    70   71   66 ar
    71   72   49 1
    72   73   72 ar
    73   74   73 ar
    74   75   74 ar
    75   76   75 ar
    76   77   72 ar
    77   78   52 1
    78   79   55 1
    79   80   58 1
    80   81   59 1
    81   82   60 1
    82   83   61 1
    83   84   62 1
    84   85   63 1
    85   86   64 1
    86   87   67 1
    87   88   68 1
    88   89   69 1
    89   90   70 1
    90   91   71 1
    91   92   73 1
    92   93   74 1
    93   94   75 1
    94   95   76 1
    95   96   77 1
    96   13   14 ar
    97   16   17 ar
    98   22   23 ar
    99   28   29 ar
   100   49   51 ar
   101   50   55 ar
   102   53   54 ar
   103   61   62 ar
   104   64   65 ar
   105   70   71 ar
   106   76   77 ar
@<TRIPOS>SUBSTRUCTURE
     1 RES1 1

@<TRIPOS>CRYSIN
   6.1995   11.0201   14.7000  95.6600  96.6000 104.5200   2 1

