# MOL2 file generated by ConQuest
# Please check atom types

@<TRIPOS>MOLECULE
VEBKAP
    92   102     2
SMALL
NO_CHARGES
****
Generated from CSD

@<TRIPOS>ATOM
      1 C1         3.5536    1.9454    7.9939 C.ar      1 RES1    0.0000
      2 H1         3.7323    1.3569    7.2826 H         1 RES1    0.0000
      3 C2         2.9886    1.4710    9.1210 C.ar      1 RES1    0.0000
      4 H2         2.7860    0.5563    9.1861 H         1 RES1    0.0000
      5 C3         2.6944    2.3317   10.2129 C.ar      1 RES1    0.0000
      6 H3         2.2903    1.9847   10.9877 H         1 RES1    0.0000
      7 C4         2.9938    3.6525   10.1406 C.ar      1 RES1    0.0000
      8 H4         2.7954    4.2104   10.8704 H         1 RES1    0.0000
      9 C5         3.6057    4.2133    8.9737 C.ar      1 RES1    0.0000
     10 C6         3.9431    5.5531    8.8841 C.ar      1 RES1    0.0000
     11 H5         3.7818    6.1125    9.6222 H         1 RES1    0.0000
     12 C7         4.5217    6.1061    7.7195 C.ar      1 RES1    0.0000
     13 C8         4.8668    7.4708    7.6149 C.ar      1 RES1    0.0000
     14 C9         5.4126    7.9942    6.4221 C.ar      1 RES1    0.0000
     15 C10        5.7468    9.3540    6.2685 C.ar      1 RES1    0.0000
     16 H6         5.6228    9.9366    6.9957 H         1 RES1    0.0000
     17 C11        6.2520    9.8655    5.0846 C.ar      1 RES1    0.0000
     18 C12        6.5659   11.2524    4.9181 C.ar      1 RES1    0.0000
     19 H7         6.4160   11.8468    5.6303 H         1 RES1    0.0000
     20 C13        7.0739   11.7260    3.7548 C.ar      1 RES1    0.0000
     21 H8         7.2636   12.6427    3.6668 H         1 RES1    0.0000
     22 C14        7.3218   10.8423    2.6647 C.ar      1 RES1    0.0000
     23 H9         7.6933   11.1783    1.8691 H         1 RES1    0.0000
     24 C15        7.0288    9.5283    2.7618 C.ar      1 RES1    0.0000
     25 H10        7.1871    8.9655    2.0259 H         1 RES1    0.0000
     26 C16        6.4805    8.9749    3.9662 C.ar      1 RES1    0.0000
     27 C17        6.1770    7.6377    4.1019 C.ar      1 RES1    0.0000
     28 H11        6.3323    7.0609    3.3761 H         1 RES1    0.0000
     29 C18        5.6403    7.1048    5.2937 C.ar      1 RES1    0.0000
     30 C19        5.3231    5.7517    5.4228 C.ar      1 RES1    0.0000
     31 H12        5.4844    5.1763    4.6983 H         1 RES1    0.0000
     32 C20        4.7743    5.2259    6.5923 C.ar      1 RES1    0.0000
     33 C21        4.4511    3.8592    6.7155 C.ar      1 RES1    0.0000
     34 H13        4.6257    3.2844    5.9923 H         1 RES1    0.0000
     35 C22        3.8876    3.3357    7.8604 C.ar      1 RES1    0.0000
     36 C23        4.6587    8.3712    8.7947 C.ar      1 RES1    0.0000
     37 C24        3.4347    8.9750    9.0138 C.ar      1 RES1    0.0000
     38 H14        2.7292    8.8293    8.4097 H         1 RES1    0.0000
     39 C25        3.2386    9.7907   10.1120 C.ar      1 RES1    0.0000
     40 H15        2.4014   10.1957   10.2482 H         1 RES1    0.0000
     41 C26        4.2491   10.0121   10.9994 C.ar      1 RES1    0.0000
     42 H16        4.1089   10.5629   11.7475 H         1 RES1    0.0000
     43 C27        5.4748    9.4254   10.7940 C.ar      1 RES1    0.0000
     44 H17        6.1761    9.5810   11.4008 H         1 RES1    0.0000
     45 C28        5.6810    8.6024    9.6940 C.ar      1 RES1    0.0000
     46 H18        6.5212    8.2007    9.5610 H         1 RES1    0.0000
     47 C29       -4.5785    2.2020   10.6601 C.ar      2 RES2    0.0000
     48 H19       -5.1955    1.9628    9.9919 H         2 RES2    0.0000
     49 C30       -4.4684    1.4398   11.7699 C.ar      2 RES2    0.0000
     50 H20       -4.9984    0.6679   11.8572 H         2 RES2    0.0000
     51 C31       -3.5626    1.7891   12.8055 C.ar      2 RES2    0.0000
     52 H21       -3.4941    1.2422   13.5669 H         2 RES2    0.0000
     53 C32       -2.7936    2.9041   12.7073 C.ar      2 RES2    0.0000
     54 H22       -2.2151    3.1308   13.4126 H         2 RES2    0.0000
     55 C33       -2.8509    3.7384   11.5483 C.ar      2 RES2    0.0000
     56 C34       -2.0769    4.8786   11.4195 C.ar      2 RES2    0.0000
     57 H23       -1.5029    5.1205   12.1237 H         2 RES2    0.0000
     58 C35       -2.1203    5.6926   10.2611 C.ar      2 RES2    0.0000
     59 C36       -1.3384    6.8604   10.1204 C.ar      2 RES2    0.0000
     60 C37       -1.3657    7.6020    8.9178 C.ar      2 RES2    0.0000
     61 C38       -0.5834    8.7647    8.7220 C.ar      2 RES2    0.0000
     62 H24       -0.0417    9.0706    9.4271 H         2 RES2    0.0000
     63 C39       -0.5862    9.4680    7.5314 C.ar      2 RES2    0.0000
     64 C40        0.1939   10.6523    7.3299 C.ar      2 RES2    0.0000
     65 H25        0.7355   10.9720    8.0285 H         2 RES2    0.0000
     66 C41        0.1668   11.3190    6.1541 C.ar      2 RES2    0.0000
     67 H26        0.6846   12.0963    6.0484 H         2 RES2    0.0000
     68 C42       -0.6368   10.8568    5.0730 C.ar      2 RES2    0.0000
     69 H27       -0.6398   11.3250    4.2584 H         2 RES2    0.0000
     70 C43       -1.3978    9.7447    5.2137 C.ar      2 RES2    0.0000
     71 H28       -1.9238    9.4516    4.4917 H         2 RES2    0.0000
     72 C44       -1.4152    9.0087    6.4382 C.ar      2 RES2    0.0000
     73 C45       -2.2032    7.8869    6.6177 C.ar      2 RES2    0.0000
     74 H29       -2.7491    7.5971    5.9095 H         2 RES2    0.0000
     75 C46       -2.2152    7.1652    7.8234 C.ar      2 RES2    0.0000
     76 C47       -3.0215    6.0349    7.9994 C.ar      2 RES2    0.0000
     77 H30       -3.5912    5.7673    7.3017 H         2 RES2    0.0000
     78 C48       -3.0041    5.2943    9.1786 C.ar      2 RES2    0.0000
     79 C49       -3.8186    4.1485    9.3481 C.ar      2 RES2    0.0000
     80 H31       -4.4150    3.9088    8.6621 H         2 RES2    0.0000
     81 C50       -3.7639    3.3736   10.4883 C.ar      2 RES2    0.0000
     82 C51       -0.4669    7.3345   11.2370 C.ar      2 RES2    0.0000
     83 C52       -0.9431    8.2397   12.1568 C.ar      2 RES2    0.0000
     84 H32       -1.8352    8.5316   12.1058 H         2 RES2    0.0000
     85 C53       -0.1196    8.7240   13.1573 C.ar      2 RES2    0.0000
     86 H33       -0.4580    9.3489   13.7722 H         2 RES2    0.0000
     87 C54        1.1645    8.3134   13.2667 C.ar      2 RES2    0.0000
     88 H34        1.7123    8.6432   13.9558 H         2 RES2    0.0000
     89 C55        1.6529    7.4153   12.3658 C.ar      2 RES2    0.0000
     90 H35        2.5456    7.1274   12.4309 H         2 RES2    0.0000
     91 C56        0.8416    6.9221   11.3508 C.ar      2 RES2    0.0000
     92 H36        1.1891    6.3016   10.7365 H         2 RES2    0.0000
@<TRIPOS>BOND
     1    1    2 1
     2    3    1 ar
     3    4    3 1
     4    5    3 ar
     5    6    5 1
     6    7    5 ar
     7    8    7 1
     8    9    7 ar
     9   10    9 ar
    10   11   10 1
    11   12   10 ar
    12   13   12 ar
    13   14   13 ar
    14   15   14 ar
    15   16   15 1
    16   17   15 ar
    17   18   17 ar
    18   19   18 1
    19   20   18 ar
    20   21   20 1
    21   22   20 ar
    22   23   22 1
    23   24   22 ar
    24   25   24 1
    25   26   17 ar
    26   27   26 ar
    27   28   27 1
    28   29   14 ar
    29   30   29 ar
    30   31   30 1
    31   32   12 ar
    32   33   32 ar
    33   34   33 1
    34   35    1 ar
    35   36   13 1
    36   37   36 ar
    37   38   37 1
    38   39   37 ar
    39   40   39 1
    40   41   39 ar
    41   42   41 1
    42   43   41 ar
    43   44   43 1
    44   45   36 ar
    45   46   45 1
    46   47   48 1
    47   49   47 ar
    48   50   49 1
    49   51   49 ar
    50   52   51 1
    51   53   51 ar
    52   54   53 1
    53   55   53 ar
    54   56   55 ar
    55   57   56 1
    56   58   56 ar
    57   59   58 ar
    58   60   59 ar
    59   61   60 ar
    60   62   61 1
    61   63   61 ar
    62   64   63 ar
    63   65   64 1
    64   66   64 ar
    65   67   66 1
    66   68   66 ar
    67   69   68 1
    68   70   68 ar
    69   71   70 1
    70   72   63 ar
    71   73   72 ar
    72   74   73 1
    73   75   60 ar
    74   76   75 ar
    75   77   76 1
    76   78   58 ar
    77   79   78 ar
    78   80   79 1
    79   81   47 ar
    80   82   59 1
    81   83   82 ar
    82   84   83 1
    83   85   83 ar
    84   86   85 1
    85   87   85 ar
    86   88   87 1
    87   89   87 ar
    88   90   89 1
    89   91   82 ar
    90   92   91 1
    91    9   35 ar
    92   24   26 ar
    93   27   29 ar
    94   30   32 ar
    95   33   35 ar
    96   43   45 ar
    97   55   81 ar
    98   70   72 ar
    99   73   75 ar
   100   76   78 ar
   101   79   81 ar
   102   89   91 ar
@<TRIPOS>SUBSTRUCTURE
     1 RES1 1
     2 RES2 47

@<TRIPOS>CRYSIN
  11.2237   13.1785   13.4073  98.6940 104.0040  99.2810   2 1

