# MOL2 file generated by ConQuest
# Please check atom types

@<TRIPOS>MOLECULE
VEHCAM
    96   106     1
SMALL
NO_CHARGES
****
Generated from CSD

@<TRIPOS>ATOM
      1 C1         4.5766    2.7536    0.3363 C.ar      1 RES1    0.0000
      2 C2         5.8422    2.7483   -0.2540 C.ar      1 RES1    0.0000
      3 C3         6.2990    1.7477   -1.2582 C.ar      1 RES1    0.0000
      4 C4         5.7460    0.4570   -1.3475 C.ar      1 RES1    0.0000
      5 C5         6.2510   -0.4885   -2.1988 C.ar      1 RES1    0.0000
      6 C6         7.3339   -0.1865   -3.0008 C.ar      1 RES1    0.0000
      7 C7         7.9222    1.0413   -2.9114 C.ar      1 RES1    0.0000
      8 C8         7.4260    2.0287   -2.0413 C.ar      1 RES1    0.0000
      9 C9         8.0694    3.3379   -1.9284 C.ar      1 RES1    0.0000
     10 C10        8.9145    3.8067   -2.9420 C.ar      1 RES1    0.0000
     11 C11        9.4880    5.0344   -2.8973 C.ar      1 RES1    0.0000
     12 C12        9.2216    5.8617   -1.8155 C.ar      1 RES1    0.0000
     13 C13        8.4138    5.4284   -0.7972 C.ar      1 RES1    0.0000
     14 C14        7.8143    4.1546   -0.8113 C.ar      1 RES1    0.0000
     15 C15        6.8082    3.7134    0.1928 C.ar      1 RES1    0.0000
     16 C16        6.6957    4.2242    1.4863 C.ar      1 RES1    0.0000
     17 C17        5.5001    3.9642    2.2482 C.ar      1 RES1    0.0000
     18 C18        5.3805    4.1875    3.6804 C.ar      1 RES1    0.0000
     19 C19        4.1209    4.1507    4.2425 C.ar      1 RES1    0.0000
     20 C20        2.9594    3.9997    3.4546 C.ar      1 RES1    0.0000
     21 C21        3.0479    3.6911    2.1001 C.ar      1 RES1    0.0000
     22 C22        4.3678    3.4850    1.5380 C.ar      1 RES1    0.0000
     23 C23        3.4781    1.9316   -0.2446 C.ar      1 RES1    0.0000
     24 C24        3.0413    2.1298   -1.5310 C.ar      1 RES1    0.0000
     25 C25        2.0759    1.3302   -2.1001 C.ar      1 RES1    0.0000
     26 C26        1.5382    0.2928   -1.3522 C.ar      1 RES1    0.0000
     27 C27        1.9561    0.0867   -0.0635 C.ar      1 RES1    0.0000
     28 C28        2.9081    0.8968    0.5080 C.ar      1 RES1    0.0000
     29 C29        7.7608    5.1014    2.0554 C.ar      1 RES1    0.0000
     30 C30        9.0750    4.6746    2.1636 C.ar      1 RES1    0.0000
     31 C31       10.0678    5.5334    2.5751 C.ar      1 RES1    0.0000
     32 C32        9.7655    6.8413    2.8738 C.ar      1 RES1    0.0000
     33 C33        8.4710    7.2811    2.7891 C.ar      1 RES1    0.0000
     34 C34        7.4817    6.4184    2.3964 C.ar      1 RES1    0.0000
     35 C35        6.5491    4.3267    4.5835 C.ar      1 RES1    0.0000
     36 C36        7.3691    3.2342    4.8421 C.ar      1 RES1    0.0000
     37 C37        8.3736    3.2959    5.7711 C.ar      1 RES1    0.0000
     38 C38        8.5969    4.4435    6.4836 C.ar      1 RES1    0.0000
     39 C39        7.8047    5.5478    6.2391 C.ar      1 RES1    0.0000
     40 C40        6.7918    5.4822    5.3219 C.ar      1 RES1    0.0000
     41 C41        3.9544    4.2505    5.7358 C.ar      1 RES1    0.0000
     42 C42        4.2265    3.1554    6.5260 C.ar      1 RES1    0.0000
     43 C43        4.0417    3.2145    7.8923 C.ar      1 RES1    0.0000
     44 C44        3.5785    4.3464    8.4826 C.ar      1 RES1    0.0000
     45 C45        3.3088    5.4481    7.7253 C.ar      1 RES1    0.0000
     46 C46        3.4973    5.4047    6.3449 C.ar      1 RES1    0.0000
     47 C47        1.6214    4.2177    4.0943 C.ar      1 RES1    0.0000
     48 C48        1.0218    3.1856    4.8045 C.ar      1 RES1    0.0000
     49 C49       -0.2304    3.4009    5.4089 C.ar      1 RES1    0.0000
     50 C50       -0.8274    4.6339    5.2843 C.ar      1 RES1    0.0000
     51 C51       -0.2311    5.6490    4.6187 C.ar      1 RES1    0.0000
     52 C52        0.9836    5.4297    4.0026 C.ar      1 RES1    0.0000
     53 C53        1.8365    3.7883    1.2417 C.ar      1 RES1    0.0000
     54 C54        1.8053    4.7324    0.2069 C.ar      1 RES1    0.0000
     55 C55        0.6567    4.9911   -0.4915 C.ar      1 RES1    0.0000
     56 C56       -0.5034    4.3083   -0.2069 C.ar      1 RES1    0.0000
     57 C57       -0.4725    3.3313    0.7737 C.ar      1 RES1    0.0000
     58 C58        0.6563    3.0832    1.4816 C.ar      1 RES1    0.0000
     59 H1         4.9931    0.2324   -0.7972 H         1 RES1    0.0000
     60 H2         5.8511   -1.3604   -2.2388 H         1 RES1    0.0000
     61 H3         7.6732   -0.8391   -3.6193 H         1 RES1    0.0000
     62 H4         8.6906    1.2356   -3.4523 H         1 RES1    0.0000
     63 H5         9.0951    3.2368   -3.6945 H         1 RES1    0.0000
     64 H6        10.0676    5.3272   -3.6052 H         1 RES1    0.0000
     65 H7         9.6052    6.7415   -1.7802 H         1 RES1    0.0000
     66 H8         8.2501    6.0114   -0.0517 H         1 RES1    0.0000
     67 H9         3.4204    2.8442   -2.0483 H         1 RES1    0.0000
     68 H10        1.7783    1.4877   -2.9984 H         1 RES1    0.0000
     69 H11        0.8728   -0.2823   -1.7379 H         1 RES1    0.0000
     70 H12        1.5796   -0.6329    0.4468 H         1 RES1    0.0000
     71 H13        3.1801    0.7537    1.4181 H         1 RES1    0.0000
     72 H14        9.2960    3.7660    1.9449 H         1 RES1    0.0000
     73 H15       10.9707    5.2183    2.6574 H         1 RES1    0.0000
     74 H16       10.4624    7.4453    3.1395 H         1 RES1    0.0000
     75 H17        8.2570    8.1924    3.0055 H         1 RES1    0.0000
     76 H18        6.5744    6.7310    2.3564 H         1 RES1    0.0000
     77 H19        7.2271    2.4161    4.3600 H         1 RES1    0.0000
     78 H20        8.9265    2.5264    5.9239 H         1 RES1    0.0000
     79 H21        9.2959    4.4803    7.1421 H         1 RES1    0.0000
     80 H22        7.9628    6.3646    6.7188 H         1 RES1    0.0000
     81 H23        6.2369    6.2517    5.1808 H         1 RES1    0.0000
     82 H24        4.5476    2.3465    6.1215 H         1 RES1    0.0000
     83 H25        4.2426    2.4450    8.4308 H         1 RES1    0.0000
     84 H26        3.4401    4.3713    9.4327 H         1 RES1    0.0000
     85 H27        2.9884    6.2530    8.1416 H         1 RES1    0.0000
     86 H28        3.3084    6.1808    5.8134 H         1 RES1    0.0000
     87 H29        1.4574    2.3347    4.8821 H         1 RES1    0.0000
     88 H30       -0.6616    2.6984    5.9004 H         1 RES1    0.0000
     89 H31       -1.6888    4.7784    5.6817 H         1 RES1    0.0000
     90 H32       -0.6495    6.5117    4.5717 H         1 RES1    0.0000
     91 H33        1.3915    6.1387    3.5017 H         1 RES1    0.0000
     92 H34        2.6079    5.2091   -0.0165 H         1 RES1    0.0000
     93 H35        0.6614    5.6529   -1.1876 H         1 RES1    0.0000
     94 H36       -1.3173    4.5052   -0.6773 H         1 RES1    0.0000
     95 H37       -1.2645    2.8205    0.9571 H         1 RES1    0.0000
     96 H38        0.6437    2.4056    2.1612 H         1 RES1    0.0000
@<TRIPOS>BOND
     1    1    2 ar
     2    2    3 ar
     3    3    4 ar
     4    4    5 ar
     5    5    6 ar
     6    6    7 ar
     7    7    8 ar
     8    8    3 ar
     9    9    8 ar
    10   10    9 ar
    11   11   10 ar
    12   12   11 ar
    13   13   12 ar
    14   14    9 ar
    15   15    2 ar
    16   16   15 ar
    17   17   16 ar
    18   18   17 ar
    19   19   18 ar
    20   20   19 ar
    21   21   20 ar
    22   22    1 ar
    23   23    1 1
    24   24   23 ar
    25   25   24 ar
    26   26   25 ar
    27   27   26 ar
    28   28   23 ar
    29   29   16 1
    30   30   29 ar
    31   31   30 ar
    32   32   31 ar
    33   33   32 ar
    34   34   29 ar
    35   35   18 1
    36   36   35 ar
    37   37   36 ar
    38   38   37 ar
    39   39   38 ar
    40   40   35 ar
    41   41   19 1
    42   42   41 ar
    43   43   42 ar
    44   44   43 ar
    45   45   44 ar
    46   46   41 ar
    47   47   20 1
    48   48   47 ar
    49   49   48 ar
    50   50   49 ar
    51   51   50 ar
    52   52   47 ar
    53   53   21 1
    54   54   53 ar
    55   55   54 ar
    56   56   55 ar
    57   57   56 ar
    58   58   53 ar
    59   59    4 1
    60   60    5 1
    61   61    6 1
    62   62    7 1
    63   63   10 1
    64   64   11 1
    65   65   12 1
    66   66   13 1
    67   67   24 1
    68   68   25 1
    69   69   26 1
    70   70   27 1
    71   71   28 1
    72   72   30 1
    73   73   31 1
    74   74   32 1
    75   75   33 1
    76   76   34 1
    77   77   36 1
    78   78   37 1
    79   79   38 1
    80   80   39 1
    81   81   40 1
    82   82   42 1
    83   83   43 1
    84   84   44 1
    85   85   45 1
    86   86   46 1
    87   87   48 1
    88   88   49 1
    89   89   50 1
    90   90   51 1
    91   91   52 1
    92   92   54 1
    93   93   55 1
    94   94   56 1
    95   95   57 1
    96   96   58 1
    97   13   14 ar
    98   14   15 ar
    99   17   22 ar
   100   21   22 ar
   101   27   28 ar
   102   33   34 ar
   103   39   40 ar
   104   45   46 ar
   105   51   52 ar
   106   57   58 ar
@<TRIPOS>SUBSTRUCTURE
     1 RES1 1

@<TRIPOS>CRYSIN
  13.1110   13.1310   23.8350  90.0000  99.3700  90.0000 231 1

