# MOL2 file generated by ConQuest
# Please check atom types

@<TRIPOS>MOLECULE
VEKHOL
    44    49     1
SMALL
NO_CHARGES
****
Generated from CSD

@<TRIPOS>ATOM
      1 C1         3.9546    5.3019    9.4502 C.1       1 RES1    0.0000
      2 C2         4.4553    5.3218   10.5377 C.1       1 RES1    0.0000
      3 C3         5.0590    5.3752   11.8278 C.ar      1 RES1    0.0000
      4 C4         4.8054    4.3800   12.7746 C.ar      1 RES1    0.0000
      5 H1         4.2444    3.6709   12.5560 H         1 RES1    0.0000
      6 C5         5.3796    4.4356   14.0418 C.ar      1 RES1    0.0000
      7 H2         5.1996    3.7697   14.6654 H         1 RES1    0.0000
      8 C6         6.2138    5.4774   14.3677 C.ar      1 RES1    0.0000
      9 H3         6.6013    5.5262   15.2125 H         1 RES1    0.0000
     10 C7         6.4657    6.4482   13.4236 C.ar      1 RES1    0.0000
     11 H4         7.0333    7.1527   13.6382 H         1 RES1    0.0000
     12 C8         5.9032    6.3993   12.1859 C.ar      1 RES1    0.0000
     13 H5         6.0935    7.0710   11.5717 H         1 RES1    0.0000
     14 C9         3.3696    5.3082    8.1252 C.ar      1 RES1    0.0000
     15 C10        3.7401    6.2262    7.1932 C.ar      1 RES1    0.0000
     16 H6         4.3856    6.8603    7.4078 H         1 RES1    0.0000
     17 C11        3.1723    6.2336    5.9220 C.ar      1 RES1    0.0000
     18 H7         3.4477    6.8751    5.3078 H         1 RES1    0.0000
     19 C12        2.2181    5.3207    5.5505 C.ar      1 RES1    0.0000
     20 C13        1.6010    5.3315    4.2121 C.ar      1 RES1    0.0000
     21 C14        1.9438    6.2784    3.2614 C.ar      1 RES1    0.0000
     22 H8         2.5837    6.9216    3.4665 H         1 RES1    0.0000
     23 C15        1.3435    6.2875    1.9941 C.ar      1 RES1    0.0000
     24 H9         1.5886    6.9381    1.3772 H         1 RES1    0.0000
     25 C16        0.4169    5.3672    1.6562 C.ar      1 RES1    0.0000
     26 H10        0.0368    5.3837    0.8086 H         1 RES1    0.0000
     27 C17        0.0204    4.3766    2.5882 C.ar      1 RES1    0.0000
     28 C18       -0.9556    3.4165    2.2636 C.ar      1 RES1    0.0000
     29 H11       -1.3420    3.4165    1.4188 H         1 RES1    0.0000
     30 C19       -1.3318    2.4997    3.1729 C.ar      1 RES1    0.0000
     31 H12       -1.9740    1.8678    2.9449 H         1 RES1    0.0000
     32 C20       -0.7710    2.4792    4.4576 C.ar      1 RES1    0.0000
     33 H13       -1.0617    1.8440    5.0717 H         1 RES1    0.0000
     34 C21        0.2043    3.3847    4.8304 C.ar      1 RES1    0.0000
     35 C22        0.8164    3.3615    6.1633 C.ar      1 RES1    0.0000
     36 C23        0.4631    2.4321    7.1128 C.ar      1 RES1    0.0000
     37 H14       -0.1853    1.7985    6.9022 H         1 RES1    0.0000
     38 C24        1.0431    2.4083    8.3814 C.ar      1 RES1    0.0000
     39 H15        0.7817    1.7622    8.9969 H         1 RES1    0.0000
     40 C25        1.9892    3.3240    8.7233 C.ar      1 RES1    0.0000
     41 H16        2.3742    3.2990    9.5695 H         1 RES1    0.0000
     42 C26        2.3883    4.3135    7.7967 C.ar      1 RES1    0.0000
     43 C27        1.8023    4.3340    6.4999 C.ar      1 RES1    0.0000
     44 C28        0.6115    4.3669    3.8756 C.ar      1 RES1    0.0000
@<TRIPOS>BOND
     1    1    2 3
     2    2    3 1
     3    3    4 ar
     4    4    5 1
     5    6    4 ar
     6    7    6 1
     7    8    6 ar
     8    9    8 1
     9   10    8 ar
    10   11   10 1
    11   12    3 ar
    12   13   12 1
    13   14    1 1
    14   15   14 ar
    15   16   15 1
    16   17   15 ar
    17   18   17 1
    18   19   17 ar
    19   20   19 ar
    20   21   20 ar
    21   22   21 1
    22   23   21 ar
    23   24   23 1
    24   25   23 ar
    25   26   25 1
    26   27   25 ar
    27   28   27 ar
    28   29   28 1
    29   30   28 ar
    30   31   30 1
    31   32   30 ar
    32   33   32 1
    33   34   32 ar
    34   35   34 ar
    35   36   35 ar
    36   37   36 1
    37   38   36 ar
    38   39   38 1
    39   40   38 ar
    40   41   40 1
    41   42   14 ar
    42   43   19 ar
    43   44   20 ar
    44   10   12 ar
    45   27   44 ar
    46   34   44 ar
    47   35   43 ar
    48   40   42 ar
    49   42   43 ar
@<TRIPOS>SUBSTRUCTURE
     1 RES1 1

@<TRIPOS>CRYSIN
  11.8089    5.6772   13.5847  90.0000  99.1930  90.0000   4 1

