# MOL2 file generated by ConQuest
# Please check atom types

@<TRIPOS>MOLECULE
VERKUB
    64    70     1
SMALL
NO_CHARGES
****
Generated from CSD

@<TRIPOS>ATOM
      1 C1        -4.9783    6.7101   11.9801 C.ar      1 RES1    0.0000
      2 H1        -5.1099    7.6290   11.9309 H         1 RES1    0.0000
      3 C2        -6.1094    5.8573   12.0632 C.ar      1 RES1    0.0000
      4 H2        -6.9704    6.2092   12.0955 H         1 RES1    0.0000
      5 C3        -5.9043    4.5098   12.0969 C.ar      1 RES1    0.0000
      6 H3        -6.6323    3.9320   12.1265 H         1 RES1    0.0000
      7 C4        -4.6146    3.9935   12.0857 C.ar      1 RES1    0.0000
      8 C5        -4.2826    2.6736   12.1012 C.ar      1 RES1    0.0000
      9 H4        -4.9751    2.0544   12.1420 H         1 RES1    0.0000
     10 C6        -3.0305    2.2065   12.0603 C.ar      1 RES1    0.0000
     11 H5        -2.8875    1.2876   12.0843 H         1 RES1    0.0000
     12 C7        -1.9418    3.0577   11.9858 C.ar      1 RES1    0.0000
     13 H6        -1.0808    2.7105   11.9393 H         1 RES1    0.0000
     14 C8        -2.1344    4.4053   11.9787 C.ar      1 RES1    0.0000
     15 H7        -1.4075    4.9830   11.9478 H         1 RES1    0.0000
     16 C9        -3.4598    4.9170   12.0195 C.ar      1 RES1    0.0000
     17 C10       -3.7443    6.2399   11.9703 C.ar      1 RES1    0.0000
     18 C11       -2.5700    7.2218   11.8718 C.1       1 RES1    0.0000
     19 C12       -1.6865    8.0162   11.7634 C.1       1 RES1    0.0000
     20 C13       -0.6749    8.9980   11.6241 C.2       1 RES1    0.0000
     21 C14       -0.1265    9.1578   10.2984 C.1       1 RES1    0.0000
     22 C15        0.3629    9.3776    9.2289 C.1       1 RES1    0.0000
     23 C16        0.9830    9.6849    7.9708 C.ar      1 RES1    0.0000
     24 C17        0.9309    8.8090    6.9224 C.ar      1 RES1    0.0000
     25 H8         0.4778    8.0024    7.0223 H         1 RES1    0.0000
     26 C18        1.5504    9.1056    5.6966 C.ar      1 RES1    0.0000
     27 H9         1.5116    8.5002    4.9916 H         1 RES1    0.0000
     28 C19        2.2077   10.2872    5.5503 C.ar      1 RES1    0.0000
     29 H10        2.6177   10.4777    4.7383 H         1 RES1    0.0000
     30 C20        2.2852   11.2245    6.5846 C.ar      1 RES1    0.0000
     31 C21        2.9499   12.4583    6.4270 C.ar      1 RES1    0.0000
     32 H11        3.3292   12.6719    5.6052 H         1 RES1    0.0000
     33 C22        3.0416   13.3296    7.4445 C.ar      1 RES1    0.0000
     34 H12        3.4936   14.1332    7.3305 H         1 RES1    0.0000
     35 C23        2.4537   13.0253    8.6829 C.ar      1 RES1    0.0000
     36 H13        2.5203   13.6292    9.3879 H         1 RES1    0.0000
     37 C24        1.7902   11.8545    8.8546 C.ar      1 RES1    0.0000
     38 H14        1.4017   11.6732    9.6792 H         1 RES1    0.0000
     39 C25        1.6754   10.9172    7.8273 C.ar      1 RES1    0.0000
     40 C26       -0.2705    9.7617   12.6359 C.2       1 RES1    0.0000
     41 H15       -0.6854    9.6434   13.4592 H         1 RES1    0.0000
     42 C27        0.7896   10.7804   12.5430 C.ar      1 RES1    0.0000
     43 C28        2.1330   10.3886   12.5121 C.ar      1 RES1    0.0000
     44 C29        2.5476    9.0487   12.5740 C.ar      1 RES1    0.0000
     45 H16        1.9083    8.3742   12.6134 H         1 RES1    0.0000
     46 C30        3.8599    8.7245   12.5768 C.ar      1 RES1    0.0000
     47 H17        4.1192    7.8318   12.6261 H         1 RES1    0.0000
     48 C31        4.8357    9.7448   12.5065 C.ar      1 RES1    0.0000
     49 H18        5.7363    9.5143   12.5079 H         1 RES1    0.0000
     50 C32        4.4950   11.0340   12.4375 C.ar      1 RES1    0.0000
     51 H19        5.1563   11.6855   12.3925 H         1 RES1    0.0000
     52 C33        3.1326   11.4166   12.4305 C.ar      1 RES1    0.0000
     53 C34        2.7454   12.7288   12.3460 C.ar      1 RES1    0.0000
     54 H20        3.4042   13.3803   12.2616 H         1 RES1    0.0000
     55 C35        1.4395   13.1283   12.3812 C.ar      1 RES1    0.0000
     56 C36        1.0655   14.4743   12.2911 C.ar      1 RES1    0.0000
     57 H21        1.7234   15.1212   12.1772 H         1 RES1    0.0000
     58 C37       -0.1998   14.8477   12.3629 C.ar      1 RES1    0.0000
     59 H22       -0.4198   15.7496   12.3137 H         1 RES1    0.0000
     60 C38       -1.2074   13.8935   12.5135 C.ar      1 RES1    0.0000
     61 H23       -2.0936   14.1701   12.5726 H         1 RES1    0.0000
     62 C39       -0.9140   12.5674   12.5754 C.ar      1 RES1    0.0000
     63 H24       -1.6017   11.9467   12.6584 H         1 RES1    0.0000
     64 C40        0.4260   12.1218   12.5149 C.ar      1 RES1    0.0000
@<TRIPOS>BOND
     1    1    2 1
     2    3    1 ar
     3    4    3 1
     4    5    3 ar
     5    6    5 1
     6    7    5 ar
     7    8    7 ar
     8    9    8 1
     9   10    8 ar
    10   11   10 1
    11   12   10 ar
    12   13   12 1
    13   14   12 ar
    14   15   14 1
    15   16    7 ar
    16   17    1 ar
    17   18   17 1
    18   19   18 3
    19   20   19 1
    20   21   20 1
    21   22   21 3
    22   23   22 1
    23   24   23 ar
    24   25   24 1
    25   26   24 ar
    26   27   26 1
    27   28   26 ar
    28   29   28 1
    29   30   28 ar
    30   31   30 ar
    31   32   31 1
    32   33   31 ar
    33   34   33 1
    34   35   33 ar
    35   36   35 1
    36   37   35 ar
    37   38   37 1
    38   39   23 ar
    39   40   20 2
    40   41   40 1
    41   42   40 1
    42   43   42 ar
    43   44   43 ar
    44   45   44 1
    45   46   44 ar
    46   47   46 1
    47   48   46 ar
    48   49   48 1
    49   50   48 ar
    50   51   50 1
    51   52   43 ar
    52   53   52 ar
    53   54   53 1
    54   55   53 ar
    55   56   55 ar
    56   57   56 1
    57   58   56 ar
    58   59   58 1
    59   60   58 ar
    60   61   60 1
    61   62   60 ar
    62   63   62 1
    63   64   42 ar
    64   14   16 ar
    65   16   17 ar
    66   30   39 ar
    67   37   39 ar
    68   50   52 ar
    69   55   64 ar
    70   62   64 ar
@<TRIPOS>SUBSTRUCTURE
     1 RES1 1

@<TRIPOS>CRYSIN
  12.6331   15.3655   14.1392  90.0000  95.5570  90.0000 231 1

