# MOL2 file generated by ConQuest
# Please check atom types

@<TRIPOS>MOLECULE
VIBKAS
    66    72     2
SMALL
NO_CHARGES
****
Generated from CSD

@<TRIPOS>ATOM
      1 C1         0.8372    8.1107    2.2443 C.ar      1 RES1    0.0000
      2 C2         0.6765    9.4492    2.6778 C.ar      1 RES1    0.0000
      3 C3         1.5438   10.4119    2.2517 C.ar      1 RES1    0.0000
      4 C4         2.6139   10.0855    1.3940 C.ar      1 RES1    0.0000
      5 C5         3.9106    8.3878    0.1120 C.ar      1 RES1    0.0000
      6 C6         4.0981    7.1197   -0.2369 C.ar      1 RES1    0.0000
      7 C7         3.4081    4.7575   -0.2351 C.ar      1 RES1    0.0000
      8 C8         2.7342    2.3787   -0.3306 C.ar      1 RES1    0.0000
      9 C9         1.8184    1.4254   -0.0386 C.ar      1 RES1    0.0000
     10 C10        0.6752    1.7212    0.6906 C.ar      1 RES1    0.0000
     11 C11        0.4431    2.9869    1.1295 C.ar      1 RES1    0.0000
     12 C12        1.1471    5.3586    1.2820 C.ar      1 RES1    0.0000
     13 C13        1.8724    7.7585    1.3995 C.ar      1 RES1    0.0000
     14 C14        2.7864    8.7658    0.9844 C.ar      1 RES1    0.0000
     15 C15        3.1895    6.0443    0.1708 C.ar      1 RES1    0.0000
     16 C16        2.5256    3.7383    0.0918 C.ar      1 RES1    0.0000
     17 C17        1.3564    4.0342    0.8467 C.ar      1 RES1    0.0000
     18 C18        2.0608    6.3730    0.9624 C.ar      1 RES1    0.0000
     19 C19        4.8584    9.4609   -0.3857 C.3       1 RES1    0.0000
     20 C20        3.7657    3.3697    3.7100 C.ar      2 RES2    0.0000
     21 C21        3.5723    2.0500    3.2618 C.ar      2 RES2    0.0000
     22 C22        4.4341    1.0731    3.6365 C.ar      2 RES2    0.0000
     23 C23        5.5225    1.3549    4.4942 C.ar      2 RES2    0.0000
     24 C24        6.8370    2.9822    5.8221 C.ar      2 RES2    0.0000
     25 C25        7.0682    4.2268    6.1949 C.ar      2 RES2    0.0000
     26 C26        6.4369    6.6172    6.2132 C.ar      2 RES2    0.0000
     27 C27        5.8396    8.9889    6.3620 C.ar      2 RES2    0.0000
     28 C28        4.9752    9.9916    6.0626 C.ar      2 RES2    0.0000
     29 C29        3.8376    9.7568    5.2747 C.ar      2 RES2    0.0000
     30 C30        3.5665    8.5122    4.8156 C.ar      2 RES2    0.0000
     31 C31        4.1842    6.1077    4.6613 C.ar      2 RES2    0.0000
     32 C32        4.8280    3.6890    4.5328 C.ar      2 RES2    0.0000
     33 C33        5.7063    2.6676    4.9405 C.ar      2 RES2    0.0000
     34 C34        6.1852    5.3422    5.7835 C.ar      2 RES2    0.0000
     35 C35        5.5873    7.6763    5.8771 C.ar      2 RES2    0.0000
     36 C36        4.4237    7.4391    5.1113 C.ar      2 RES2    0.0000
     37 C37        5.0632    5.0721    4.9919 C.ar      2 RES2    0.0000
     38 C38        7.7184    1.8880    6.3345 C.3       2 RES2    0.0000
     39 H1         0.2654    7.4109    2.5437 H         1 RES1    0.0000
     40 H2        -0.0926    9.6769    3.2875 H         1 RES1    0.0000
     41 H3         1.4568   11.3794    2.5602 H         1 RES1    0.0000
     42 H4         3.4729   10.6890    0.9679 H         1 RES1    0.0000
     43 H5         4.9391    6.8380   -0.7879 H         1 RES1    0.0000
     44 H6         4.2288    4.5532   -0.7842 H         1 RES1    0.0000
     45 H7         3.5516    2.2472   -0.7953 H         1 RES1    0.0000
     46 H8         1.9986    0.4509   -0.3783 H         1 RES1    0.0000
     47 H9        -0.0399    0.9745    0.8761 H         1 RES1    0.0000
     48 H10       -0.3754    3.1865    1.5813 H         1 RES1    0.0000
     49 H11        0.4033    5.4924    1.8146 H         1 RES1    0.0000
     50 H12        5.5838    9.1181   -0.8871 H         1 RES1    0.0000
     51 H13        5.2277    9.9728    0.3875 H         1 RES1    0.0000
     52 H14        4.4106   10.1348   -0.8008 H         1 RES1    0.0000
     53 H15        3.1901    4.1328    3.4271 H         2 RES2    0.0000
     54 H16        2.7943    1.8762    2.6649 H         2 RES2    0.0000
     55 H17        4.2680    0.0517    3.2820 H         2 RES2    0.0000
     56 H18        6.2703    0.7538    4.9460 H         2 RES2    0.0000
     57 H19        7.8739    4.4475    6.7899 H         2 RES2    0.0000
     58 H20        7.3287    6.7417    6.7606 H         2 RES2    0.0000
     59 H21        6.6651    9.1392    6.8359 H         2 RES2    0.0000
     60 H22        5.1063   10.8886    6.3216 H         2 RES2    0.0000
     61 H23        3.2201   10.4354    5.0507 H         2 RES2    0.0000
     62 H24        2.7419    8.3197    4.2554 H         2 RES2    0.0000
     63 H25        3.4257    6.0677    4.1489 H         2 RES2    0.0000
     64 H26        8.4313    2.1956    6.8542 H         2 RES2    0.0000
     65 H27        7.2330    1.2516    6.8065 H         2 RES2    0.0000
     66 H28        8.1050    1.3643    5.6164 H         2 RES2    0.0000
@<TRIPOS>BOND
     1    1    2 ar
     2    2    3 ar
     3    3    4 ar
     4    4   14 ar
     5    5    6 ar
     6    6   15 ar
     7    7   15 ar
     8    8    9 ar
     9    9   10 ar
    10   10   11 ar
    11   11   17 ar
    12   12   17 ar
    13   13    1 ar
    14   14    5 ar
    15   15   18 ar
    16   16    7 ar
    17   17   16 ar
    18   18   12 ar
    19   19    5 1
    20   20   21 ar
    21   21   22 ar
    22   22   23 ar
    23   23   33 ar
    24   24   25 ar
    25   25   34 ar
    26   26   34 ar
    27   27   28 ar
    28   28   29 ar
    29   29   30 ar
    30   30   36 ar
    31   31   36 ar
    32   32   20 ar
    33   33   24 ar
    34   34   37 ar
    35   35   26 ar
    36   36   35 ar
    37   37   31 ar
    38   38   24 1
    39   39    1 1
    40   40    2 1
    41   41    3 1
    42   42    4 1
    43   43    6 1
    44   44    7 1
    45   45    8 1
    46   46    9 1
    47   47   10 1
    48   48   11 1
    49   49   12 1
    50   50   19 1
    51   51   19 1
    52   52   19 1
    53   53   20 1
    54   54   21 1
    55   55   22 1
    56   56   23 1
    57   57   25 1
    58   58   26 1
    59   59   27 1
    60   60   28 1
    61   61   29 1
    62   62   30 1
    63   63   31 1
    64   64   38 1
    65   65   38 1
    66   66   38 1
    67    8   16 ar
    68   13   14 ar
    69   13   18 ar
    70   27   35 ar
    71   32   33 ar
    72   32   37 ar
@<TRIPOS>SUBSTRUCTURE
     1 RES1 1
     2 RES2 20

@<TRIPOS>CRYSIN
   5.9940   23.4820   18.3670  90.0000  90.5700  90.0000  14 1

