# MOL2 file generated by ConQuest
# Please check atom types

@<TRIPOS>MOLECULE
VIGKEB
    33    36     1
SMALL
NO_CHARGES
****
Generated from CSD

@<TRIPOS>ATOM
      1 C1         1.5198    2.4633    0.4504 C.ar      1 RES1    0.0000
      2 C2         0.6081    2.7359    1.4428 C.ar      1 RES1    0.0000
      3 C3         0.3913    1.8086    2.4539 C.ar      1 RES1    0.0000
      4 C4         1.0905    0.6223    2.4949 C.ar      1 RES1    0.0000
      5 C5         2.6417   -1.9124    2.4926 C.ar      1 RES1    0.0000
      6 C6         3.3571   -3.0606    2.5347 C.ar      1 RES1    0.0000
      7 C7         5.2260   -4.4280    1.6020 C.ar      1 RES1    0.0000
      8 C8         6.2363   -4.6057    0.6893 C.ar      1 RES1    0.0000
      9 C9         6.4639   -3.6525   -0.2997 C.ar      1 RES1    0.0000
     10 C10        5.6845   -2.5245   -0.3662 C.ar      1 RES1    0.0000
     11 C11        4.0032   -0.1082   -0.5027 C.ar      1 RES1    0.0000
     12 C12        3.2563    1.0198   -0.5249 C.ar      1 RES1    0.0000
     13 C13        2.2699    1.2697    0.4794 C.ar      1 RES1    0.0000
     14 C14        2.0596    0.3232    1.5019 C.ar      1 RES1    0.0000
     15 C15        2.8444   -0.8966    1.5059 C.ar      1 RES1    0.0000
     16 C16        3.8254   -1.0947    0.5141 C.ar      1 RES1    0.0000
     17 C17        4.6384   -2.2987    0.5590 C.ar      1 RES1    0.0000
     18 C18        4.4021   -3.2746    1.5628 C.ar      1 RES1    0.0000
     19 C19        3.0460   -4.1050    3.5879 C.3       1 RES1    0.0000
     20 H1         1.6585    3.0698   -0.3242 H         1 RES1    0.0000
     21 H2         0.0976    3.5589    1.4047 H         1 RES1    0.0000
     22 H3        -0.2385    1.9938    3.1847 H         1 RES1    0.0000
     23 H4         0.9539    0.0229    3.2132 H         1 RES1    0.0000
     24 H5         1.9512   -1.7461    3.1392 H         1 RES1    0.0000
     25 H6         5.0514   -5.1406    2.3146 H         1 RES1    0.0000
     26 H7         6.7642   -5.3341    0.7222 H         1 RES1    0.0000
     27 H8         7.1978   -3.6816   -0.8985 H         1 RES1    0.0000
     28 H9         5.9186   -1.8106   -1.0805 H         1 RES1    0.0000
     29 H10        4.7046   -0.2706   -1.2227 H         1 RES1    0.0000
     30 H11        3.3712    1.7191   -1.2511 H         1 RES1    0.0000
     31 H12        2.3956   -3.7878    4.1970 H         1 RES1    0.0000
     32 H13        3.7723   -4.3497    4.1231 H         1 RES1    0.0000
     33 H14        2.6775   -4.9324    3.1506 H         1 RES1    0.0000
@<TRIPOS>BOND
     1    1    2 ar
     2    2    3 ar
     3    3    4 ar
     4    4   14 ar
     5    5    6 ar
     6    6   18 ar
     7    7    8 ar
     8    8    9 ar
     9    9   10 ar
    10   10   17 ar
    11   11   12 ar
    12   12   13 ar
    13   13    1 ar
    14   14   13 ar
    15   15    5 ar
    16   16   11 ar
    17   17   16 ar
    18   18    7 ar
    19   19    6 1
    20   20    1 1
    21   21    2 1
    22   22    3 1
    23   23    4 1
    24   24    5 1
    25   25    7 1
    26   26    8 1
    27   27    9 1
    28   28   10 1
    29   29   11 1
    30   30   12 1
    31   31   19 1
    32   32   19 1
    33   33   19 1
    34   14   15 ar
    35   15   16 ar
    36   17   18 ar
@<TRIPOS>SUBSTRUCTURE
     1 RES1 1

@<TRIPOS>CRYSIN
  10.8400   20.8120    5.6870  90.0000  90.0000  90.0000  33 1

