# MOL2 file generated by ConQuest
# Please check atom types

@<TRIPOS>MOLECULE
VIHJIH
    36    39     1
SMALL
NO_CHARGES
****
Generated from CSD

@<TRIPOS>ATOM
      1 C1         4.9966    3.7331   15.1886 C.ar      1 RES1    0.0000
      2 C2         5.3199    4.3201   13.9232 C.ar      1 RES1    0.0000
      3 C3         5.2281    5.7381   13.6027 C.ar      1 RES1    0.0000
      4 C4         5.2278    6.7631   14.5970 C.ar      1 RES1    0.0000
      5 H1         5.2875    6.5145   15.5128 H         1 RES1    0.0000
      6 C5         5.1447    8.0674   14.2800 C.ar      1 RES1    0.0000
      7 H2         5.2306    8.7184   14.9662 H         1 RES1    0.0000
      8 C6         4.9304    8.4971   12.9358 C.ar      1 RES1    0.0000
      9 C7         4.6730    9.8582   12.6809 C.ar      1 RES1    0.0000
     10 H3         4.7099   10.4867   13.3936 H         1 RES1    0.0000
     11 C8         4.3694   10.2867   11.4117 C.ar      1 RES1    0.0000
     12 H4         4.2226   11.2075   11.2295 H         1 RES1    0.0000
     13 C9         4.2814    9.3315   10.3929 C.ar      1 RES1    0.0000
     14 H5         4.0229    9.6215    9.5254 H         1 RES1    0.0000
     15 C10        4.5498    7.9917   10.5797 C.ar      1 RES1    0.0000
     16 C11        4.9297    7.5455   11.8937 C.ar      1 RES1    0.0000
     17 C12        5.2611    6.1737   12.2364 C.ar      1 RES1    0.0000
     18 C13        5.7366    5.2303   11.2745 C.ar      1 RES1    0.0000
     19 H6         5.8678    5.5191   10.3797 H         1 RES1    0.0000
     20 C14        6.0058    3.9520   11.5845 C.ar      1 RES1    0.0000
     21 H7         6.3836    3.3827   10.9248 H         1 RES1    0.0000
     22 C15        5.7365    3.4313   12.8852 C.ar      1 RES1    0.0000
     23 C16        5.8836    2.0524   13.1143 C.ar      1 RES1    0.0000
     24 H8         6.1892    1.4878   12.4153 H         1 RES1    0.0000
     25 C17        5.5894    1.5233   14.3377 C.ar      1 RES1    0.0000
     26 H9         5.7022    0.5942   14.5017 H         1 RES1    0.0000
     27 C18        5.1156    2.3743   15.3493 C.ar      1 RES1    0.0000
     28 H10        4.8658    1.9932   16.1834 H         1 RES1    0.0000
     29 C19        4.4778    4.4965   16.4034 C.3       1 RES1    0.0000
     30 H11        4.0723    3.8668   17.0362 H         1 RES1    0.0000
     31 H12        3.8048    5.1487   16.1162 H         1 RES1    0.0000
     32 H13        5.2215    4.9628   16.8375 H         1 RES1    0.0000
     33 C20        4.3197    7.0791    9.3910 C.3       1 RES1    0.0000
     34 H14        3.7086    7.5135    8.7593 H         1 RES1    0.0000
     35 H15        3.9266    6.2352    9.6987 H         1 RES1    0.0000
     36 H16        5.1748    6.8992    8.9475 H         1 RES1    0.0000
@<TRIPOS>BOND
     1    1    2 ar
     2    2    3 ar
     3    3    4 ar
     4    4    5 1
     5    6    4 ar
     6    7    6 1
     7    8    6 ar
     8    9    8 ar
     9   10    9 1
    10   11    9 ar
    11   12   11 1
    12   13   11 ar
    13   14   13 1
    14   15   13 ar
    15   16    8 ar
    16   17    3 ar
    17   18   17 ar
    18   19   18 1
    19   20   18 ar
    20   21   20 1
    21   22    2 ar
    22   23   22 ar
    23   24   23 1
    24   25   23 ar
    25   26   25 1
    26   27    1 ar
    27   28   27 1
    28   29    1 1
    29   30   29 1
    30   31   29 1
    31   32   29 1
    32   33   15 1
    33   34   33 1
    34   35   33 1
    35   36   33 1
    36   15   16 ar
    37   16   17 ar
    38   20   22 ar
    39   25   27 ar
@<TRIPOS>SUBSTRUCTURE
     1 RES1 1

@<TRIPOS>CRYSIN
   7.3762   11.8360   14.9470  90.0000  92.3110  90.0000  14 1

