# MOL2 file generated by ConQuest
# Please check atom types

@<TRIPOS>MOLECULE
VIHJON
   100   110     2
SMALL
NO_CHARGES
****
Generated from CSD

@<TRIPOS>ATOM
      1 C1         9.5120    0.3409    5.2780 C.ar      1 RES1    0.0000
      2 C2         9.4245   -0.3436    4.0739 C.ar      1 RES1    0.0000
      3 H1         8.8843   -1.1232    4.0342 H         1 RES1    0.0000
      4 C3        10.0902    0.0599    2.9241 C.ar      1 RES1    0.0000
      5 H2        10.0044   -0.4349    2.1188 H         1 RES1    0.0000
      6 C4        10.8680    1.1759    2.9700 C.ar      1 RES1    0.0000
      7 H3        11.3205    1.4679    2.1870 H         1 RES1    0.0000
      8 C5        11.0057    1.9017    4.1707 C.ar      1 RES1    0.0000
      9 C6        11.8595    3.0431    4.1825 C.ar      1 RES1    0.0000
     10 H4        12.3649    3.2514    3.4066 H         1 RES1    0.0000
     11 C7        11.9646    3.8317    5.2648 C.ar      1 RES1    0.0000
     12 H5        12.5090    4.6095    5.2196 H         1 RES1    0.0000
     13 C8        11.2812    3.5318    6.4836 C.ar      1 RES1    0.0000
     14 C9        11.4355    4.3876    7.6569 C.ar      1 RES1    0.0000
     15 C10       11.9397    5.7327    7.6467 C.ar      1 RES1    0.0000
     16 C11       12.1782    6.3740    8.8484 C.ar      1 RES1    0.0000
     17 H6        12.5358    7.2546    8.8295 H         1 RES1    0.0000
     18 C12       11.9170    5.7893   10.0858 C.ar      1 RES1    0.0000
     19 H7        12.1273    6.2435   10.8930 H         1 RES1    0.0000
     20 C13       11.3511    4.5470   10.1115 C.ar      1 RES1    0.0000
     21 H8        11.1330    4.1519   10.9466 H         1 RES1    0.0000
     22 C14       11.0871    3.8414    8.9222 C.ar      1 RES1    0.0000
     23 C15       10.4833    2.5614    8.9804 C.ar      1 RES1    0.0000
     24 H9        10.2651    2.1955    9.8295 H         1 RES1    0.0000
     25 C16       10.2080    1.8432    7.8717 C.ar      1 RES1    0.0000
     26 H10        9.7562    1.0127    7.9579 H         1 RES1    0.0000
     27 C17       10.5804    2.3039    6.5681 C.ar      1 RES1    0.0000
     28 C18       10.3423    1.5049    5.3632 C.ar      1 RES1    0.0000
     29 C19        8.6759   -0.2387    6.3719 C.ar      1 RES1    0.0000
     30 C20        8.9892   -1.4961    6.8873 C.ar      1 RES1    0.0000
     31 H11        9.7610   -1.9522    6.5709 H         1 RES1    0.0000
     32 C21        8.1990   -2.0887    7.8506 C.ar      1 RES1    0.0000
     33 H12        8.4347   -2.9406    8.1970 H         1 RES1    0.0000
     34 C22        7.0664   -1.4496    8.3132 C.ar      1 RES1    0.0000
     35 H13        6.5239   -1.8579    8.9775 H         1 RES1    0.0000
     36 C23        6.7254   -0.2021    7.7999 C.ar      1 RES1    0.0000
     37 H14        5.9431    0.2410    8.1091 H         1 RES1    0.0000
     38 C24        7.5252    0.3959    6.8389 C.ar      1 RES1    0.0000
     39 H15        7.2858    1.2484    6.4945 H         1 RES1    0.0000
     40 C25       12.1755    6.5417    6.4167 C.ar      1 RES1    0.0000
     41 C26       13.4429    7.0795    6.1597 C.ar      1 RES1    0.0000
     42 H16       14.1506    6.9282    6.7742 H         1 RES1    0.0000
     43 C27       13.6735    7.8318    5.0139 C.ar      1 RES1    0.0000
     44 H17       14.5428    8.1730    4.8391 H         1 RES1    0.0000
     45 C28       12.6460    8.0849    4.1295 C.ar      1 RES1    0.0000
     46 H18       12.8054    8.6011    3.3481 H         1 RES1    0.0000
     47 C29       11.3776    7.5834    4.3874 C.ar      1 RES1    0.0000
     48 H19       10.6672    7.7600    3.7822 H         1 RES1    0.0000
     49 C30       11.1419    6.8263    5.5183 C.ar      1 RES1    0.0000
     50 H20       10.2677    6.4952    5.6879 H         1 RES1    0.0000
     51 C31        8.5966    8.4703    1.8075 C.ar      2 RES2    0.0000
     52 C32        8.2096    7.4556    2.6606 C.ar      2 RES2    0.0000
     53 H21        8.3714    6.5559    2.4033 H         2 RES2    0.0000
     54 C33        7.5896    7.7006    3.8855 C.ar      2 RES2    0.0000
     55 H22        7.3147    6.9784    4.4391 H         2 RES2    0.0000
     56 C34        7.3831    8.9907    4.2788 C.ar      2 RES2    0.0000
     57 H23        7.0250    9.1686    5.1416 H         2 RES2    0.0000
     58 C35        7.6955   10.0633    3.4157 C.ar      2 RES2    0.0000
     59 C36        7.4313   11.3915    3.8175 C.ar      2 RES2    0.0000
     60 H24        7.0614   11.5463    4.6782 H         2 RES2    0.0000
     61 C37        7.6879   12.4481    3.0176 C.ar      2 RES2    0.0000
     62 H25        7.5288   13.3251    3.3464 H         2 RES2    0.0000
     63 C38        8.1923   12.2848    1.6961 C.ar      2 RES2    0.0000
     64 C39        8.3775   13.4173    0.7891 C.ar      2 RES2    0.0000
     65 C40        8.3194   14.8056    1.1656 C.ar      2 RES2    0.0000
     66 C41        8.3722   15.7859    0.1924 C.ar      2 RES2    0.0000
     67 H26        8.3038   16.6950    0.4569 H         2 RES2    0.0000
     68 C42        8.5204   15.4943   -1.1617 C.ar      2 RES2    0.0000
     69 H27        8.5340   16.1898   -1.8082 H         2 RES2    0.0000
     70 C43        8.6473   14.1912   -1.5443 C.ar      2 RES2    0.0000
     71 H28        8.7854   13.9818   -2.4602 H         2 RES2    0.0000
     72 C44        8.5740   13.1485   -0.5927 C.ar      2 RES2    0.0000
     73 C45        8.6482   11.8049   -1.0384 C.ar      2 RES2    0.0000
     74 H29        8.7459   11.6313   -1.9675 H         2 RES2    0.0000
     75 C46        8.5850   10.7658   -0.1808 C.ar      2 RES2    0.0000
     76 H30        8.6694    9.8817   -0.5171 H         2 RES2    0.0000
     77 C47        8.3938   10.9627    1.2225 C.ar      2 RES2    0.0000
     78 C48        8.2565    9.8205    2.1287 C.ar      2 RES2    0.0000
     79 C49        9.4875    8.0599    0.6787 C.ar      2 RES2    0.0000
     80 C50        9.0962    7.1006   -0.2512 C.ar      2 RES2    0.0000
     81 H31        8.2201    6.7359   -0.2065 H         2 RES2    0.0000
     82 C51        9.9637    6.6711   -1.2395 C.ar      2 RES2    0.0000
     83 H32        9.6799    6.0217   -1.8716 H         2 RES2    0.0000
     84 C52       11.2424    7.1876   -1.3060 C.ar      2 RES2    0.0000
     85 H33       11.8370    6.8939   -1.9854 H         2 RES2    0.0000
     86 C53       11.6588    8.1295   -0.3864 C.ar      2 RES2    0.0000
     87 H34       12.5404    8.4812   -0.4309 H         2 RES2    0.0000
     88 C54       10.7881    8.5617    0.5995 C.ar      2 RES2    0.0000
     89 H35       11.0796    9.2085    1.2309 H         2 RES2    0.0000
     90 C55        8.2665   15.3127    2.5749 C.ar      2 RES2    0.0000
     91 C56        9.3452   15.1571    3.4359 C.ar      2 RES2    0.0000
     92 H36       10.1294   14.7131    3.1350 H         2 RES2    0.0000
     93 C57        9.2861   15.6445    4.7292 C.ar      2 RES2    0.0000
     94 H37       10.0283   15.5337    5.3123 H         2 RES2    0.0000
     95 C58        8.1510   16.2923    5.1753 C.ar      2 RES2    0.0000
     96 H38        8.1050   16.6108    6.0684 H         2 RES2    0.0000
     97 C59        7.0824   16.4757    4.3191 C.ar      2 RES2    0.0000
     98 H39        6.3050   16.9325    4.6196 H         2 RES2    0.0000
     99 C60        7.1436   15.9953    3.0219 C.ar      2 RES2    0.0000
    100 H40        6.4110   16.1335    2.4326 H         2 RES2    0.0000
@<TRIPOS>BOND
     1    1    2 ar
     2    2    3 1
     3    4    2 ar
     4    5    4 1
     5    6    4 ar
     6    7    6 1
     7    8    6 ar
     8    9    8 ar
     9   10    9 1
    10   11    9 ar
    11   12   11 1
    12   13   11 ar
    13   14   13 ar
    14   15   14 ar
    15   16   15 ar
    16   17   16 1
    17   18   16 ar
    18   19   18 1
    19   20   18 ar
    20   21   20 1
    21   22   14 ar
    22   23   22 ar
    23   24   23 1
    24   25   23 ar
    25   26   25 1
    26   27   13 ar
    27   28    1 ar
    28   29    1 1
    29   30   29 ar
    30   31   30 1
    31   32   30 ar
    32   33   32 1
    33   34   32 ar
    34   35   34 1
    35   36   34 ar
    36   37   36 1
    37   38   29 ar
    38   39   38 1
    39   40   15 1
    40   41   40 ar
    41   42   41 1
    42   43   41 ar
    43   44   43 1
    44   45   43 ar
    45   46   45 1
    46   47   45 ar
    47   48   47 1
    48   49   40 ar
    49   50   49 1
    50   51   52 ar
    51   52   53 1
    52   54   52 ar
    53   55   54 1
    54   56   54 ar
    55   57   56 1
    56   58   56 ar
    57   59   58 ar
    58   60   59 1
    59   61   59 ar
    60   62   61 1
    61   63   61 ar
    62   64   63 ar
    63   65   64 ar
    64   66   65 ar
    65   67   66 1
    66   68   66 ar
    67   69   68 1
    68   70   68 ar
    69   71   70 1
    70   72   64 ar
    71   73   72 ar
    72   74   73 1
    73   75   73 ar
    74   76   75 1
    75   77   63 ar
    76   78   51 ar
    77   79   51 1
    78   80   79 ar
    79   81   80 1
    80   82   80 ar
    81   83   82 1
    82   84   82 ar
    83   85   84 1
    84   86   84 ar
    85   87   86 1
    86   88   79 ar
    87   89   88 1
    88   90   65 1
    89   91   90 ar
    90   92   91 1
    91   93   91 ar
    92   94   93 1
    93   95   93 ar
    94   96   95 1
    95   97   95 ar
    96   98   97 1
    97   99   90 ar
    98  100   99 1
    99    8   28 ar
   100   20   22 ar
   101   25   27 ar
   102   27   28 ar
   103   36   38 ar
   104   47   49 ar
   105   58   78 ar
   106   70   72 ar
   107   75   77 ar
   108   77   78 ar
   109   86   88 ar
   110   97   99 ar
@<TRIPOS>SUBSTRUCTURE
     1 RES1 1
     2 RES2 51

@<TRIPOS>CRYSIN
  10.2889   11.8850   17.6530  70.7190  75.5890  82.2360   2 1

