# MOL2 file generated by ConQuest
# Please check atom types

@<TRIPOS>MOLECULE
VOCREM
    54    61     1
SMALL
NO_CHARGES
****
Generated from CSD

@<TRIPOS>ATOM
      1 C1        19.5045    5.2394    9.7309 C.ar      1 RES1    0.0000
      2 H1        18.6441    5.3926   10.0943 H         1 RES1    0.0000
      3 C2        20.6097    5.3678   10.5229 C.ar      1 RES1    0.0000
      4 H2        20.5532    5.6124   11.4681 H         1 RES1    0.0000
      5 C3        21.8900    5.1666   10.0059 C.ar      1 RES1    0.0000
      6 H3        22.6789    5.2277   10.5602 H         1 RES1    0.0000
      7 C4        22.0333    4.9151    8.6871 C.ar      1 RES1    0.0000
      8 H4        22.8815    4.7812    8.3478 H         1 RES1    0.0000
      9 C5        20.9304    4.8279    7.8176 C.ar      1 RES1    0.0000
     10 C6        21.1066    4.6816    6.4171 C.ar      1 RES1    0.0000
     11 H5        21.9981    4.6232    6.0781 H         1 RES1    0.0000
     12 C7        20.0511    4.6665    5.5596 C.ar      1 RES1    0.0000
     13 H6        20.1504    4.6438    4.5801 H         1 RES1    0.0000
     14 C8        18.7524    4.7351    6.0821 C.ar      1 RES1    0.0000
     15 C9        17.4668    4.8581    5.3835 C.ar      1 RES1    0.0000
     16 C10       17.1657    4.7942    4.0360 C.ar      1 RES1    0.0000
     17 H7        17.8252    4.6094    3.4117 H         1 RES1    0.0000
     18 C11       15.8455    4.9357    3.6535 C.ar      1 RES1    0.0000
     19 H8        15.6382    4.9254    2.7237 H         1 RES1    0.0000
     20 C12       14.8481    5.1075    4.5865 C.ar      1 RES1    0.0000
     21 H9        13.9149    5.1384    4.3029 H         1 RES1    0.0000
     22 C13       15.1443    5.1459    5.9378 C.ar      1 RES1    0.0000
     23 H10       14.4511    5.2071    6.5679 H         1 RES1    0.0000
     24 C14       16.4630    5.0463    6.3445 C.ar      1 RES1    0.0000
     25 C15       17.0821    4.9096    7.6896 C.2       1 RES1    0.0000
     26 C16       18.5224    4.7846    7.4562 C.ar      1 RES1    0.0000
     27 C17       19.6220    4.9302    8.3607 C.ar      1 RES1    0.0000
     28 C18       15.0406    7.4671    8.0542 C.ar      1 RES1    0.0000
     29 H11       15.9351    7.2954    7.7242 H         1 RES1    0.0000
     30 C19       14.3868    8.6095    7.7266 C.ar      1 RES1    0.0000
     31 H12       14.7135    9.3150    7.0959 H         1 RES1    0.0000
     32 C20       13.1185    8.8884    8.2689 C.ar      1 RES1    0.0000
     33 H13       12.6552    9.6791    8.0276 H         1 RES1    0.0000
     34 C21       12.5765    8.0298    9.1553 C.ar      1 RES1    0.0000
     35 H14       11.7787    8.2159    9.5543 H         1 RES1    0.0000
     36 C22       13.2315    6.8317    9.5338 C.ar      1 RES1    0.0000
     37 C23       12.6935    5.9792   10.5124 C.ar      1 RES1    0.0000
     38 H15       11.8636    6.1894   10.9687 H         1 RES1    0.0000
     39 C24       13.3607    4.8828   10.9427 C.ar      1 RES1    0.0000
     40 H16       13.0505    4.3553   11.6281 H         1 RES1    0.0000
     41 C25       14.5754    4.5359   10.3299 C.ar      1 RES1    0.0000
     42 C26       15.5166    3.4609   10.6450 C.ar      1 RES1    0.0000
     43 C27       15.4191    2.4105   11.5385 C.ar      1 RES1    0.0000
     44 H17       14.5885    2.3150   12.0582 H         1 RES1    0.0000
     45 C28       16.4426    1.5099   11.6377 C.ar      1 RES1    0.0000
     46 H18       16.4164    0.7556   12.2565 H         1 RES1    0.0000
     47 C29       17.5651    1.6384   10.8301 C.ar      1 RES1    0.0000
     48 H19       18.2665    1.0029   10.8517 H         1 RES1    0.0000
     49 C30       17.6736    2.6764    9.9091 C.ar      1 RES1    0.0000
     50 H20       18.4880    2.7684    9.3560 H         1 RES1    0.0000
     51 C31       16.6599    3.6092    9.8343 C.ar      1 RES1    0.0000
     52 C32       16.3834    4.7049    8.8694 C.2       1 RES1    0.0000
     53 C33       15.0968    5.2785    9.2793 C.ar      1 RES1    0.0000
     54 C34       14.4781    6.5198    8.9253 C.ar      1 RES1    0.0000
@<TRIPOS>BOND
     1    1    2 1
     2    3    1 ar
     3    4    3 1
     4    5    3 ar
     5    6    5 1
     6    7    5 ar
     7    8    7 1
     8    9    7 ar
     9   10    9 ar
    10   11   10 1
    11   12   10 ar
    12   13   12 1
    13   14   12 ar
    14   15   14 1
    15   16   15 ar
    16   17   16 1
    17   18   16 ar
    18   19   18 1
    19   20   18 ar
    20   21   20 1
    21   22   20 ar
    22   23   22 1
    23   24   15 ar
    24   25   24 1
    25   26   14 ar
    26   27    1 ar
    27   28   29 1
    28   30   28 ar
    29   31   30 1
    30   32   30 ar
    31   33   32 1
    32   34   32 ar
    33   35   34 1
    34   36   34 ar
    35   37   36 ar
    36   38   37 1
    37   39   37 ar
    38   40   39 1
    39   41   39 ar
    40   42   41 1
    41   43   42 ar
    42   44   43 1
    43   45   43 ar
    44   46   45 1
    45   47   45 ar
    46   48   47 1
    47   49   47 ar
    48   50   49 1
    49   51   42 ar
    50   52   25 2
    51   53   41 ar
    52   54   28 ar
    53    9   27 ar
    54   22   24 ar
    55   25   26 1
    56   26   27 ar
    57   36   54 ar
    58   49   51 ar
    59   51   52 1
    60   52   53 1
    61   53   54 ar
@<TRIPOS>SUBSTRUCTURE
     1 RES1 1

@<TRIPOS>CRYSIN
  26.7370    6.8695   23.9790  90.0000  94.8880  90.0000  15 1

