# MOL2 file generated by ConQuest
# Please check atom types

@<TRIPOS>MOLECULE
VOJZOL
   104   116     2
SMALL
NO_CHARGES
****
Generated from CSD

@<TRIPOS>ATOM
      1 C1         6.4251    6.5943    1.1073 C.ar      1 RES1    0.0000
      2 C2         5.0321    6.7186    0.7393 C.ar      1 RES1    0.0000
      3 C3         4.3192    7.7528    1.2743 C.ar      1 RES1    0.0000
      4 C4         4.9145    8.7318    2.1383 C.ar      1 RES1    0.0000
      5 C5         6.2411    8.6430    2.4918 C.ar      1 RES1    0.0000
      6 C6         7.0063    7.5492    1.9762 C.ar      1 RES1    0.0000
      7 C7         2.8825    8.0840    1.1397 C.ar      1 RES1    0.0000
      8 C8         1.7970    7.5458    0.5009 C.ar      1 RES1    0.0000
      9 H1         1.8998    6.7893   -0.0308 H         1 RES1    0.0000
     10 C9         0.5322    8.1314    0.6485 C.ar      1 RES1    0.0000
     11 H2        -0.1976    7.7407    0.2270 H         1 RES1    0.0000
     12 C10        0.3386    9.2726    1.4023 C.ar      1 RES1    0.0000
     13 H3        -0.5079    9.6530    1.4656 H         1 RES1    0.0000
     14 C11        1.4345    9.8626    2.0800 C.ar      1 RES1    0.0000
     15 C12        1.4050   11.0202    2.9068 C.ar      1 RES1    0.0000
     16 H4         0.6107   11.4903    3.0268 H         1 RES1    0.0000
     17 C13        2.5539   11.4377    3.5228 C.ar      1 RES1    0.0000
     18 H5         2.5146   12.1890    4.0692 H         1 RES1    0.0000
     19 C14        3.8013   10.7830    3.3688 C.ar      1 RES1    0.0000
     20 H6         4.5605   11.0909    3.8098 H         1 RES1    0.0000
     21 C15        3.8610    9.6746    2.5436 C.ar      1 RES1    0.0000
     22 C16        2.6708    9.2554    1.9179 C.ar      1 RES1    0.0000
     23 C17        8.3779    7.3965    2.3086 C.ar      1 RES1    0.0000
     24 H7         8.7840    8.0150    2.8711 H         1 RES1    0.0000
     25 C18        9.1134    6.3546    1.8125 C.ar      1 RES1    0.0000
     26 H8        10.0086    6.2683    2.0459 H         1 RES1    0.0000
     27 C19        8.5281    5.4256    0.9646 C.ar      1 RES1    0.0000
     28 H9         9.0364    4.7234    0.6274 H         1 RES1    0.0000
     29 C20        7.2110    5.5334    0.6209 C.ar      1 RES1    0.0000
     30 H10        6.8291    4.8985    0.0584 H         1 RES1    0.0000
     31 C21        4.4035    5.7499   -0.2010 C.ar      1 RES1    0.0000
     32 C22        3.7989    4.5854    0.2416 C.ar      1 RES1    0.0000
     33 H11        3.8193    4.3672    1.1446 H         1 RES1    0.0000
     34 C23        3.1639    3.7436   -0.6582 C.ar      1 RES1    0.0000
     35 H12        2.7542    2.9647   -0.3583 H         1 RES1    0.0000
     36 C24        3.1388    4.0610   -1.9941 C.ar      1 RES1    0.0000
     37 H13        2.7038    3.4986   -2.5939 H         1 RES1    0.0000
     38 C25        3.7516    5.2039   -2.4545 C.ar      1 RES1    0.0000
     39 H14        3.7345    5.4178   -3.3591 H         1 RES1    0.0000
     40 C26        4.3909    6.0276   -1.5531 C.ar      1 RES1    0.0000
     41 H15        4.8231    6.7893   -1.8627 H         1 RES1    0.0000
     42 C27        6.8636    9.6599    3.3948 C.ar      1 RES1    0.0000
     43 C28        7.2252   10.9158    2.9295 C.ar      1 RES1    0.0000
     44 H16        7.0900   11.1341    2.0362 H         1 RES1    0.0000
     45 C29        7.7852   11.8448    3.7855 C.ar      1 RES1    0.0000
     46 H17        8.0224   12.6867    3.4693 H         1 RES1    0.0000
     47 C30        7.9904   11.5222    5.1003 C.ar      1 RES1    0.0000
     48 H18        8.3709   12.1476    5.6742 H         1 RES1    0.0000
     49 C31        7.6426   10.2879    5.5769 C.ar      1 RES1    0.0000
     50 H19        7.7900   10.0748    6.4702 H         1 RES1    0.0000
     51 C32        7.0695    9.3572    4.7290 C.ar      1 RES1    0.0000
     52 H20        6.8202    8.5231    5.0565 H         1 RES1    0.0000
     53 C33        2.1243    6.7004    8.3767 C.ar      2 RES2    0.0000
     54 C34        3.0488    7.5147    7.7736 C.ar      2 RES2    0.0000
     55 C35        3.3038    8.7965    8.3313 C.ar      2 RES2    0.0000
     56 C36        4.2569    9.6694    7.7671 C.ar      2 RES2    0.0000
     57 H21        4.7228    9.4029    7.0068 H         2 RES2    0.0000
     58 C37        4.5164   10.9012    8.3135 C.ar      2 RES2    0.0000
     59 H22        5.1505   11.4610    7.9276 H         2 RES2    0.0000
     60 C38        3.8135   11.3135    9.4629 C.ar      2 RES2    0.0000
     61 H23        3.9921   12.1450    9.8390 H         2 RES2    0.0000
     62 C39        2.8721   10.5035   10.0303 C.ar      2 RES2    0.0000
     63 H24        2.4077   10.7977   10.7793 H         2 RES2    0.0000
     64 C40        2.5974    9.2295    9.4969 C.ar      2 RES2    0.0000
     65 C41        1.6021    8.3643   10.0838 C.ar      2 RES2    0.0000
     66 C42        1.3817    7.1412    9.5407 C.ar      2 RES2    0.0000
     67 C43        0.4561    6.0501    9.9168 C.ar      2 RES2    0.0000
     68 C44       -0.4762    5.8577   10.8944 C.ar      2 RES2    0.0000
     69 H25       -0.5980    6.4977   11.5575 H         2 RES2    0.0000
     70 C45       -1.2539    4.6803   10.8911 C.ar      2 RES2    0.0000
     71 H26       -1.8986    4.5647   11.5510 H         2 RES2    0.0000
     72 C46       -1.0882    3.7004    9.9428 C.ar      2 RES2    0.0000
     73 H27       -1.6424    2.9534    9.9476 H         2 RES2    0.0000
     74 C47       -0.0750    3.8220    8.9603 C.ar      2 RES2    0.0000
     75 C48        0.2887    2.8818    7.9811 C.ar      2 RES2    0.0000
     76 H28       -0.1480    2.0615    7.9422 H         2 RES2    0.0000
     77 C49        1.2825    3.1665    7.0830 C.ar      2 RES2    0.0000
     78 H29        1.5028    2.5265    6.4458 H         2 RES2    0.0000
     79 C50        1.9874    4.3931    7.0862 C.ar      2 RES2    0.0000
     80 H30        2.6566    4.5604    6.4621 H         2 RES2    0.0000
     81 C51        1.6562    5.3333    8.0362 C.ar      2 RES2    0.0000
     82 C52        3.7602    7.0187    6.5545 C.ar      2 RES2    0.0000
     83 C53        3.0991    7.0023    5.3337 C.ar      2 RES2    0.0000
     84 H31        2.2650    7.4078    5.2575 H         2 RES2    0.0000
     85 C54        3.6626    6.3934    4.2329 C.ar      2 RES2    0.0000
     86 H32        3.2080    6.3856    3.4207 H         2 RES2    0.0000
     87 C55        4.9089    5.7930    4.3367 C.ar      2 RES2    0.0000
     88 H33        5.2851    5.3643    3.6023 H         2 RES2    0.0000
     89 C56        5.5809    5.8361    5.5299 C.ar      2 RES2    0.0000
     90 H34        6.4268    5.4540    5.5963 H         2 RES2    0.0000
     91 C57        5.0117    6.4468    6.6404 C.ar      2 RES2    0.0000
     92 H35        5.4779    6.4710    7.4445 H         2 RES2    0.0000
     93 C58        0.7975    8.8094   11.2592 C.ar      2 RES2    0.0000
     94 C59        1.3077    8.7999   12.5350 C.ar      2 RES2    0.0000
     95 H36        2.1948    8.5532   12.6615 H         2 RES2    0.0000
     96 C60        0.5455    9.1441   13.6358 C.ar      2 RES2    0.0000
     97 H37        0.9211    9.1286   14.4869 H         2 RES2    0.0000
     98 C61       -0.7819    9.5124   13.4640 C.ar      2 RES2    0.0000
     99 H38       -1.3072    9.7281   14.2016 H         2 RES2    0.0000
    100 C62       -1.3162    9.5556   12.1978 C.ar      2 RES2    0.0000
    101 H39       -2.1947    9.8316   12.0762 H         2 RES2    0.0000
    102 C63       -0.5427    9.1864   11.0922 C.ar      2 RES2    0.0000
    103 H40       -0.9200    9.1907   10.2427 H         2 RES2    0.0000
    104 C64        0.6561    5.0271    8.9733 C.ar      2 RES2    0.0000
@<TRIPOS>BOND
     1    1    2 ar
     2    2    3 ar
     3    3    4 ar
     4    4    5 ar
     5    5    6 ar
     6    6    1 ar
     7    7    3 1
     8    8    7 ar
     9    9    8 1
    10   10    8 ar
    11   11   10 1
    12   12   10 ar
    13   13   12 1
    14   14   12 ar
    15   15   14 ar
    16   16   15 1
    17   17   15 ar
    18   18   17 1
    19   19   17 ar
    20   20   19 1
    21   21    4 1
    22   22    7 ar
    23   23    6 ar
    24   24   23 1
    25   25   23 ar
    26   26   25 1
    27   27   25 ar
    28   28   27 1
    29   29    1 ar
    30   30   29 1
    31   31    2 1
    32   32   31 ar
    33   33   32 1
    34   34   32 ar
    35   35   34 1
    36   36   34 ar
    37   37   36 1
    38   38   36 ar
    39   39   38 1
    40   40   31 ar
    41   41   40 1
    42   42    5 1
    43   43   42 ar
    44   44   43 1
    45   45   43 ar
    46   46   45 1
    47   47   45 ar
    48   48   47 1
    49   49   47 ar
    50   50   49 1
    51   51   42 ar
    52   52   51 1
    53   53   54 ar
    54   54   55 ar
    55   55   56 ar
    56   56   57 1
    57   58   56 ar
    58   59   58 1
    59   60   58 ar
    60   61   60 1
    61   62   60 ar
    62   63   62 1
    63   64   55 ar
    64   65   64 ar
    65   66   53 ar
    66   67   66 1
    67   68   67 ar
    68   69   68 1
    69   70   68 ar
    70   71   70 1
    71   72   70 ar
    72   73   72 1
    73   74   72 ar
    74   75   74 ar
    75   76   75 1
    76   77   75 ar
    77   78   77 1
    78   79   77 ar
    79   80   79 1
    80   81   53 1
    81   82   54 1
    82   83   82 ar
    83   84   83 1
    84   85   83 ar
    85   86   85 1
    86   87   85 ar
    87   88   87 1
    88   89   87 ar
    89   90   89 1
    90   91   82 ar
    91   92   91 1
    92   93   65 1
    93   94   93 ar
    94   95   94 1
    95   96   94 ar
    96   97   96 1
    97   98   96 ar
    98   99   98 1
    99  100   98 ar
   100  101  100 1
   101  102   93 ar
   102  103  102 1
   103  104   67 ar
   104   14   22 ar
   105   19   21 ar
   106   21   22 ar
   107   27   29 ar
   108   38   40 ar
   109   49   51 ar
   110   62   64 ar
   111   65   66 ar
   112   74  104 ar
   113   79   81 ar
   114   81  104 ar
   115   89   91 ar
   116  100  102 ar
@<TRIPOS>SUBSTRUCTURE
     1 RES1 1
     2 RES2 53

@<TRIPOS>CRYSIN
  15.1680    8.6257   16.3320  90.0000  96.9530  90.0000   4 1

