# MOL2 file generated by ConQuest
# Please check atom types

@<TRIPOS>MOLECULE
VOJZIF
   120   132     2
SMALL
NO_CHARGES
****
Generated from CSD

@<TRIPOS>ATOM
      1 C1        -0.1890    9.5305    5.0721 C.ar      1 RES1    0.0000
      2 H1        -0.0608   10.4510    5.2642 H         1 RES1    0.0000
      3 C2         0.4880    8.9795    4.0020 C.ar      1 RES1    0.0000
      4 C3         0.3772    7.5726    3.7683 C.ar      1 RES1    0.0000
      5 C4        -0.2802    6.7884    4.7463 C.ar      1 RES1    0.0000
      6 C5        -1.1226    7.4037    5.7134 C.ar      1 RES1    0.0000
      7 C6        -1.0538    8.7916    5.8835 C.ar      1 RES1    0.0000
      8 C7         0.7817    6.9191    2.5091 C.ar      1 RES1    0.0000
      9 C8         0.9778    7.6352    1.3120 C.ar      1 RES1    0.0000
     10 H2         0.9198    8.5833    1.3275 H         1 RES1    0.0000
     11 C9         1.2478    7.0089    0.1298 C.ar      1 RES1    0.0000
     12 H3         1.3923    7.5231   -0.6548 H         1 RES1    0.0000
     13 C10        1.3115    5.6235    0.0702 C.ar      1 RES1    0.0000
     14 H4         1.5048    5.1880   -0.7520 H         1 RES1    0.0000
     15 C11        1.0947    4.8920    1.2044 C.ar      1 RES1    0.0000
     16 H5         1.1263    3.9436    1.1568 H         1 RES1    0.0000
     17 C12        0.8263    5.5061    2.4384 C.ar      1 RES1    0.0000
     18 C13        0.6077    4.7281    3.6526 C.ar      1 RES1    0.0000
     19 C14        1.0399    3.3872    3.7508 C.ar      1 RES1    0.0000
     20 H6         1.4054    2.9582    2.9863 H         1 RES1    0.0000
     21 C15        0.9427    2.6944    4.9253 C.ar      1 RES1    0.0000
     22 H7         1.2308    1.7907    4.9705 H         1 RES1    0.0000
     23 C16        0.4231    3.3154    6.0448 C.ar      1 RES1    0.0000
     24 H8         0.3844    2.8449    6.8695 H         1 RES1    0.0000
     25 C17       -0.0362    4.6051    5.9736 C.ar      1 RES1    0.0000
     26 H9        -0.4086    5.0100    6.7484 H         1 RES1    0.0000
     27 C18        0.0322    5.3445    4.7729 C.ar      1 RES1    0.0000
     28 C19        1.3590    9.8931    3.2151 C.ar      1 RES1    0.0000
     29 C20        0.8538   11.0794    2.7029 C.ar      1 RES1    0.0000
     30 H10       -0.0605   11.2988    2.8434 H         1 RES1    0.0000
     31 C21        1.6631   11.9495    1.9912 C.ar      1 RES1    0.0000
     32 H11        1.3027   12.7556    1.6410 H         1 RES1    0.0000
     33 C22        2.9916   11.6426    1.7926 C.ar      1 RES1    0.0000
     34 H12        3.5495   12.2316    1.2997 H         1 RES1    0.0000
     35 C23        3.5037   10.4787    2.3107 C.ar      1 RES1    0.0000
     36 H13        4.4205   10.2689    2.1747 H         1 RES1    0.0000
     37 C24        2.7058    9.6127    3.0248 C.ar      1 RES1    0.0000
     38 H14        3.0795    8.8181    3.3891 H         1 RES1    0.0000
     39 C25       -2.1781    6.6220    6.4311 C.ar      1 RES1    0.0000
     40 C26       -3.1446    5.9693    5.6652 C.ar      1 RES1    0.0000
     41 H15       -3.0784    5.9812    4.7185 H         1 RES1    0.0000
     42 C27       -4.1992    5.3058    6.2682 C.ar      1 RES1    0.0000
     43 H16       -4.8542    4.8724    5.7345 H         1 RES1    0.0000
     44 C28       -4.3005    5.2744    7.6463 C.ar      1 RES1    0.0000
     45 H17       -5.0252    4.8218    8.0620 H         1 RES1    0.0000
     46 C29       -3.3376    5.9076    8.4164 C.ar      1 RES1    0.0000
     47 H18       -3.3965    5.8801    9.3637 H         1 RES1    0.0000
     48 C30       -2.2950    6.5785    7.8128 C.ar      1 RES1    0.0000
     49 H19       -1.6474    7.0172    8.3517 H         1 RES1    0.0000
     50 C31       -1.8301    9.5457    6.9115 C.ar      1 RES1    0.0000
     51 C32       -3.2230    9.5234    6.9508 C.ar      1 RES1    0.0000
     52 H20       -3.7060    8.9961    6.3258 H         1 RES1    0.0000
     53 C33       -3.9059   10.2693    7.9011 C.ar      1 RES1    0.0000
     54 H21       -4.8554   10.2547    7.9171 H         1 RES1    0.0000
     55 C34       -3.2241   11.0238    8.8134 C.ar      1 RES1    0.0000
     56 H22       -3.6985   11.5133    9.4748 H         1 RES1    0.0000
     57 C35       -1.8412   11.0740    8.7739 C.ar      1 RES1    0.0000
     58 H23       -1.3652   11.6084    9.3974 H         1 RES1    0.0000
     59 C36       -1.1527   10.3391    7.8181 C.ar      1 RES1    0.0000
     60 H24       -0.2038   10.3822    7.7862 H         1 RES1    0.0000
     61 C37        3.5379   11.4957   14.6927 C.ar      2 RES2    0.0000
     62 H25        3.3837   12.4258   14.5842 H         2 RES2    0.0000
     63 C38        2.8572   10.8281   15.6992 C.ar      2 RES2    0.0000
     64 C39        2.9974    9.4089   15.7839 C.ar      2 RES2    0.0000
     65 C40        3.6924    8.7487   14.7443 C.ar      2 RES2    0.0000
     66 C41        4.5555    9.4745   13.8788 C.ar      2 RES2    0.0000
     67 C42        4.4375   10.8684   13.8322 C.ar      2 RES2    0.0000
     68 C43        2.5965    8.6020   16.9562 C.ar      2 RES2    0.0000
     69 C44        2.3852    9.1596   18.2291 C.ar      2 RES2    0.0000
     70 H26        2.4048   10.1050   18.3265 H         2 RES2    0.0000
     71 C45        2.1518    8.3842   19.3377 C.ar      2 RES2    0.0000
     72 H27        2.0012    8.7938   20.1818 H         2 RES2    0.0000
     73 C46        2.1352    7.0029   19.2250 C.ar      2 RES2    0.0000
     74 H28        1.9638    6.4608   19.9873 H         2 RES2    0.0000
     75 C47        2.3671    6.4300   18.0118 C.ar      2 RES2    0.0000
     76 H29        2.3707    5.4814   17.9435 H         2 RES2    0.0000
     77 C48        2.5999    7.1910   16.8603 C.ar      2 RES2    0.0000
     78 C49        2.8487    6.5557   15.5769 C.ar      2 RES2    0.0000
     79 C50        2.4770    5.2125   15.3243 C.ar      2 RES2    0.0000
     80 H30        2.1158    4.6862   16.0287 H         2 RES2    0.0000
     81 C51        2.6290    4.6638   14.0881 C.ar      2 RES2    0.0000
     82 H31        2.3827    3.7575   13.9393 H         2 RES2    0.0000
     83 C52        3.1431    5.4238   13.0421 C.ar      2 RES2    0.0000
     84 H32        3.2244    5.0444   12.1753 H         2 RES2    0.0000
     85 C53        3.5330    6.7222   13.2631 C.ar      2 RES2    0.0000
     86 H33        3.8887    7.2317   12.5444 H         2 RES2    0.0000
     87 C54        3.4147    7.3114   14.5372 C.ar      2 RES2    0.0000
     88 C55        1.9607   11.6371   16.5687 C.ar      2 RES2    0.0000
     89 C56        0.6479   11.2425   16.8252 C.ar      2 RES2    0.0000
     90 H34        0.3112   10.4449   16.4315 H         2 RES2    0.0000
     91 C57       -0.1657   11.9963   17.6423 C.ar      2 RES2    0.0000
     92 H35       -1.0465   11.6954   17.8364 H         2 RES2    0.0000
     93 C58        0.2859   13.1832   18.1824 C.ar      2 RES2    0.0000
     94 H36       -0.2852   13.7066   18.7333 H         2 RES2    0.0000
     95 C59        1.5670   13.6035   17.9195 C.ar      2 RES2    0.0000
     96 H37        1.8823   14.4229   18.2809 H         2 RES2    0.0000
     97 C60        2.4020   12.8257   17.1211 C.ar      2 RES2    0.0000
     98 H38        3.2904   13.1178   16.9534 H         2 RES2    0.0000
     99 C61        5.6762    8.7689   13.1774 C.ar      2 RES2    0.0000
    100 C62        5.9238    8.8462   11.8116 C.ar      2 RES2    0.0000
    101 H39        5.3519    9.3664   11.2586 H         2 RES2    0.0000
    102 C63        6.9957    8.1738   11.2463 C.ar      2 RES2    0.0000
    103 H40        7.1497    8.2272   10.3101 H         2 RES2    0.0000
    104 C64        7.8425    7.4229   12.0470 C.ar      2 RES2    0.0000
    105 H41        8.5741    6.9585   11.6574 H         2 RES2    0.0000
    106 C65        7.6264    7.3499   13.4066 C.ar      2 RES2    0.0000
    107 H42        8.2134    6.8432   13.9552 H         2 RES2    0.0000
    108 C66        6.5508    8.0164   13.9697 C.ar      2 RES2    0.0000
    109 H43        6.4043    7.9622   14.9076 H         2 RES2    0.0000
    110 C67        5.1891   11.7077   12.8452 C.ar      2 RES2    0.0000
    111 C68        6.5692   11.8625   12.9010 C.ar      2 RES2    0.0000
    112 H44        7.0647   11.4424   13.5941 H         2 RES2    0.0000
    113 C69        7.2263   12.6253   11.9503 C.ar      2 RES2    0.0000
    114 H45        8.1675   12.7395   12.0047 H         2 RES2    0.0000
    115 C70        6.5207   13.2239   10.9217 C.ar      2 RES2    0.0000
    116 H46        6.9783   13.7289   10.2586 H         2 RES2    0.0000
    117 C71        5.1525   13.0846   10.8641 C.ar      2 RES2    0.0000
    118 H47        4.6634   13.4922   10.1593 H         2 RES2    0.0000
    119 C72        4.4888   12.3514   11.8315 C.ar      2 RES2    0.0000
    120 H48        3.5418   12.2862   11.8023 H         2 RES2    0.0000
@<TRIPOS>BOND
     1    1    2 1
     2    3    1 ar
     3    4    3 ar
     4    5    4 ar
     5    6    5 ar
     6    7    1 ar
     7    8    4 ar
     8    9    8 ar
     9   10    9 1
    10   11    9 ar
    11   12   11 1
    12   13   11 ar
    13   14   13 1
    14   15   13 ar
    15   16   15 1
    16   17    8 ar
    17   18   17 ar
    18   19   18 ar
    19   20   19 1
    20   21   19 ar
    21   22   21 1
    22   23   21 ar
    23   24   23 1
    24   25   23 ar
    25   26   25 1
    26   27    5 ar
    27   28    3 1
    28   29   28 ar
    29   30   29 1
    30   31   29 ar
    31   32   31 1
    32   33   31 ar
    33   34   33 1
    34   35   33 ar
    35   36   35 1
    36   37   28 ar
    37   38   37 1
    38   39    6 1
    39   40   39 ar
    40   41   40 1
    41   42   40 ar
    42   43   42 1
    43   44   42 ar
    44   45   44 1
    45   46   44 ar
    46   47   46 1
    47   48   39 ar
    48   49   48 1
    49   50    7 1
    50   51   50 ar
    51   52   51 1
    52   53   51 ar
    53   54   53 1
    54   55   53 ar
    55   56   55 1
    56   57   55 ar
    57   58   57 1
    58   59   50 ar
    59   60   59 1
    60   61   62 1
    61   63   61 ar
    62   64   63 ar
    63   65   64 ar
    64   66   65 ar
    65   67   61 ar
    66   68   64 ar
    67   69   68 ar
    68   70   69 1
    69   71   69 ar
    70   72   71 1
    71   73   71 ar
    72   74   73 1
    73   75   73 ar
    74   76   75 1
    75   77   68 ar
    76   78   77 ar
    77   79   78 ar
    78   80   79 1
    79   81   79 ar
    80   82   81 1
    81   83   81 ar
    82   84   83 1
    83   85   83 ar
    84   86   85 1
    85   87   65 ar
    86   88   63 1
    87   89   88 ar
    88   90   89 1
    89   91   89 ar
    90   92   91 1
    91   93   91 ar
    92   94   93 1
    93   95   93 ar
    94   96   95 1
    95   97   88 ar
    96   98   97 1
    97   99   66 1
    98  100   99 ar
    99  101  100 1
   100  102  100 ar
   101  103  102 1
   102  104  102 ar
   103  105  104 1
   104  106  104 ar
   105  107  106 1
   106  108   99 ar
   107  109  108 1
   108  110   67 1
   109  111  110 ar
   110  112  111 1
   111  113  111 ar
   112  114  113 1
   113  115  113 ar
   114  116  115 1
   115  117  115 ar
   116  118  117 1
   117  119  110 ar
   118  120  119 1
   119    6    7 ar
   120   15   17 ar
   121   18   27 ar
   122   25   27 ar
   123   35   37 ar
   124   46   48 ar
   125   57   59 ar
   126   66   67 ar
   127   75   77 ar
   128   78   87 ar
   129   85   87 ar
   130   95   97 ar
   131  106  108 ar
   132  117  119 ar
@<TRIPOS>SUBSTRUCTURE
     1 RES1 1
     2 RES2 61

@<TRIPOS>CRYSIN
  11.8770   20.2342   20.0123  90.0000  97.4700  90.0000  14 1

