# MOL2 file generated by ConQuest
# Please check atom types

@<TRIPOS>MOLECULE
VOTBAJ
    60    66     1
SMALL
NO_CHARGES
****
Generated from CSD

@<TRIPOS>ATOM
      1 C1         6.1267    3.5120    7.0605 C.ar      1 RES1    0.0000
      2 C2         7.0301    4.5068    6.6184 C.ar      1 RES1    0.0000
      3 C3         6.9993    5.7671    7.2113 C.ar      1 RES1    0.0000
      4 H1         7.5868    6.4455    6.9007 H         1 RES1    0.0000
      5 C4         6.1239    6.0427    8.2464 C.ar      1 RES1    0.0000
      6 H2         6.1258    6.9031    8.6507 H         1 RES1    0.0000
      7 C5         5.2468    5.0718    8.6957 C.ar      1 RES1    0.0000
      8 H3         4.6493    5.2634    9.4097 H         1 RES1    0.0000
      9 C6         5.2395    3.8234    8.1062 C.ar      1 RES1    0.0000
     10 H4         4.6267    3.1643    8.4117 H         1 RES1    0.0000
     11 C7         6.0733    2.2319    6.4362 C.1       1 RES1    0.0000
     12 C8         5.9710    1.1668    5.8877 C.1       1 RES1    0.0000
     13 C9         5.8243   -0.0743    5.1934 C.ar      1 RES1    0.0000
     14 C10        4.9435   -1.0718    5.6961 C.ar      1 RES1    0.0000
     15 C11        4.2284   -0.9157    6.9101 C.ar      1 RES1    0.0000
     16 H5         4.3415   -0.1199    7.4154 H         1 RES1    0.0000
     17 C12        3.3883   -1.8721    7.3641 C.ar      1 RES1    0.0000
     18 H6         2.9275   -1.7455    8.1849 H         1 RES1    0.0000
     19 C13        3.1919   -3.0654    6.6215 C.ar      1 RES1    0.0000
     20 H7         2.5917   -3.7278    6.9426 H         1 RES1    0.0000
     21 C14        3.8527   -3.2628    5.4619 C.ar      1 RES1    0.0000
     22 H8         3.7160   -4.0687    4.9762 H         1 RES1    0.0000
     23 C15        4.7552   -2.2785    4.9524 C.ar      1 RES1    0.0000
     24 C16        5.4432   -2.4600    3.7566 C.ar      1 RES1    0.0000
     25 H9         5.3156   -3.2653    3.2698 H         1 RES1    0.0000
     26 C17        6.3122   -1.4955    3.2513 C.ar      1 RES1    0.0000
     27 C18        6.9885   -1.6745    2.0175 C.ar      1 RES1    0.0000
     28 H10        6.8635   -2.4794    1.5284 H         1 RES1    0.0000
     29 C19        7.8077   -0.7190    1.5246 C.ar      1 RES1    0.0000
     30 H11        8.2413   -0.8538    0.6892 H         1 RES1    0.0000
     31 C20        8.0250    0.4782    2.2422 C.ar      1 RES1    0.0000
     32 H12        8.6143    1.1363    1.8931 H         1 RES1    0.0000
     33 C21        7.3985    0.6957    3.4298 C.ar      1 RES1    0.0000
     34 H13        7.5515    1.5056    3.9014 H         1 RES1    0.0000
     35 C22        6.5159   -0.2756    3.9727 C.ar      1 RES1    0.0000
     36 C23        7.9679    4.2595    5.5603 C.1       1 RES1    0.0000
     37 C24        8.7799    4.1594    4.6785 C.1       1 RES1    0.0000
     38 C25        9.6933    4.0746    3.5786 C.ar      1 RES1    0.0000
     39 C26       10.5433    2.9544    3.4484 C.ar      1 RES1    0.0000
     40 C27       10.5895    1.9166    4.4156 C.ar      1 RES1    0.0000
     41 H14       10.0264    1.9633    5.1803 H         1 RES1    0.0000
     42 C28       11.4296    0.8510    4.2645 C.ar      1 RES1    0.0000
     43 H15       11.4504    0.1704    4.9273 H         1 RES1    0.0000
     44 C29       12.2669    0.7493    3.1349 C.ar      1 RES1    0.0000
     45 H16       12.8318   -0.0063    3.0325 H         1 RES1    0.0000
     46 C30       12.2687    1.7237    2.1964 C.ar      1 RES1    0.0000
     47 H17       12.8454    1.6477    1.4447 H         1 RES1    0.0000
     48 C31       11.4169    2.8648    2.3167 C.ar      1 RES1    0.0000
     49 C32       11.4305    3.8980    1.3819 C.ar      1 RES1    0.0000
     50 H18       12.0044    3.8303    0.6281 H         1 RES1    0.0000
     51 C33       10.6248    5.0258    1.5197 C.ar      1 RES1    0.0000
     52 C34       10.6755    6.1060    0.5882 C.ar      1 RES1    0.0000
     53 H19       11.2458    6.0462   -0.1692 H         1 RES1    0.0000
     54 C35        9.9205    7.2144    0.7691 C.ar      1 RES1    0.0000
     55 H20        9.9730    7.9274    0.1431 H         1 RES1    0.0000
     56 C36        9.0615    7.3171    1.8751 C.ar      1 RES1    0.0000
     57 H21        8.5391    8.1026    1.9908 H         1 RES1    0.0000
     58 C37        8.9664    6.3107    2.7821 C.ar      1 RES1    0.0000
     59 H22        8.3717    6.3965    3.5193 H         1 RES1    0.0000
     60 C38        9.7431    5.1325    2.6427 C.ar      1 RES1    0.0000
@<TRIPOS>BOND
     1    1    2 ar
     2    2    3 ar
     3    3    4 1
     4    5    3 ar
     5    6    5 1
     6    7    5 ar
     7    8    7 1
     8    9    1 ar
     9   10    9 1
    10   11    1 1
    11   12   11 3
    12   13   12 1
    13   14   13 ar
    14   15   14 ar
    15   16   15 1
    16   17   15 ar
    17   18   17 1
    18   19   17 ar
    19   20   19 1
    20   21   19 ar
    21   22   21 1
    22   23   14 ar
    23   24   23 ar
    24   25   24 1
    25   26   24 ar
    26   27   26 ar
    27   28   27 1
    28   29   27 ar
    29   30   29 1
    30   31   29 ar
    31   32   31 1
    32   33   31 ar
    33   34   33 1
    34   35   13 ar
    35   36    2 1
    36   37   36 3
    37   38   37 1
    38   39   38 ar
    39   40   39 ar
    40   41   40 1
    41   42   40 ar
    42   43   42 1
    43   44   42 ar
    44   45   44 1
    45   46   44 ar
    46   47   46 1
    47   48   39 ar
    48   49   48 ar
    49   50   49 1
    50   51   49 ar
    51   52   51 ar
    52   53   52 1
    53   54   52 ar
    54   55   54 1
    55   56   54 ar
    56   57   56 1
    57   58   56 ar
    58   59   58 1
    59   60   38 ar
    60    7    9 ar
    61   21   23 ar
    62   26   35 ar
    63   33   35 ar
    64   46   48 ar
    65   51   60 ar
    66   58   60 ar
@<TRIPOS>SUBSTRUCTURE
     1 RES1 1

@<TRIPOS>CRYSIN
   9.0524   15.7822   17.4480  90.0000  90.0000  90.0000  19 1

