# MOL2 file generated by ConQuest
# Please check atom types

@<TRIPOS>MOLECULE
VUBVUJ
    22    27     1
SMALL
NO_CHARGES
****
Generated from CSD

@<TRIPOS>ATOM
      1 C1         3.5747    1.9487    5.5248 C.ar      1 RES1    0.0000
      2 C2         2.7648    0.9685    6.0362 C.ar      1 RES1    0.0000
      3 C3         1.4075    0.9464    5.6447 C.ar      1 RES1    0.0000
      4 C4         0.8694    1.8579    4.7776 C.ar      1 RES1    0.0000
      5 C5         1.6832    2.8899    4.2283 C.ar      1 RES1    0.0000
      6 C6         1.2862    3.9131    3.3338 C.ar      1 RES1    0.0000
      7 C7         2.1995    4.8310    2.8908 C.ar      1 RES1    0.0000
      8 C8         3.5545    4.8194    3.3138 C.ar      1 RES1    0.0000
      9 C9         3.9640    3.8474    4.1872 C.ar      1 RES1    0.0000
     10 C10        3.0118    2.8876    4.6240 C.ar      1 RES1    0.0000
     11 C11        4.9763    2.3472    5.6542 C.ar      1 RES1    0.0000
     12 C11B       5.2062    3.4698    4.8691 C.ar      1 RES1    0.0000
     13 C9B        6.2184    1.9696    6.3361 C.ar      1 RES1    0.0000
     14 C1B        6.6077    3.8683    4.9986 C.ar      1 RES1    0.0000
     15 C8B        6.6279    0.9976    7.2095 C.ar      1 RES1    0.0000
     16 C10B       7.1707    2.9294    5.8994 C.ar      1 RES1    0.0000
     17 C2B        7.4176    4.8485    4.4872 C.ar      1 RES1    0.0000
     18 C7B        7.9830    0.9860    7.6326 C.ar      1 RES1    0.0000
     19 C5B        8.4993    2.9271    6.2951 C.ar      1 RES1    0.0000
     20 C3B        8.7750    4.8706    4.8786 C.ar      1 RES1    0.0000
     21 C6B        8.8963    1.9039    7.1895 C.ar      1 RES1    0.0000
     22 C4B        9.3130    3.9591    5.7457 C.ar      1 RES1    0.0000
@<TRIPOS>BOND
     1    1    2 ar
     2    2    3 ar
     3    3    4 ar
     4    4    5 ar
     5    5    6 ar
     6    6    7 ar
     7    7    8 ar
     8    8    9 ar
     9    9   10 ar
    10   10    1 ar
    11   11    1 ar
    12   12    9 ar
    13   13   11 ar
    14   14   12 ar
    15   15   13 ar
    16   16   13 ar
    17   17   14 ar
    18   18   15 ar
    19   19   16 ar
    20   20   17 ar
    21   21   18 ar
    22   22   19 ar
    23    5   10 ar
    24   11   12 ar
    25   14   16 ar
    26   19   21 ar
    27   20   22 ar
@<TRIPOS>SUBSTRUCTURE
     1 RES1 1

@<TRIPOS>CRYSIN
  10.9460    5.8170   10.5510  90.0000  94.1500  90.0000  14 1

