# MOL2 file generated by ConQuest
# Please check atom types

@<TRIPOS>MOLECULE
VUFHUA
    66    77     1
SMALL
NO_CHARGES
****
Generated from CSD

@<TRIPOS>ATOM
      1 C1        11.4515   24.3937   -1.0342 C.ar      1 RES1    0.0000
      2 C2        12.2695   25.5416   -1.0773 C.ar      1 RES1    0.0000
      3 C3        13.6205   25.1002   -1.0953 C.ar      1 RES1    0.0000
      4 C4        10.2020   24.3937   -0.4511 C.ar      1 RES1    0.0000
      5 C5         9.7353   25.6824   -0.0424 C.ar      1 RES1    0.0000
      6 H1         8.8423   25.7696    0.2692 H         1 RES1    0.0000
      7 C6        10.5366   26.7977   -0.0866 C.ar      1 RES1    0.0000
      8 H2        10.1832   27.6267    0.2152 H         1 RES1    0.0000
      9 C7        11.8961   26.7599   -0.5745 C.ar      1 RES1    0.0000
     10 C8        12.9896   27.7220   -0.3742 C.ar      1 RES1    0.0000
     11 C9        14.3253   27.2738   -0.3690 C.ar      1 RES1    0.0000
     12 C10       14.6392   25.8597   -0.5779 C.ar      1 RES1    0.0000
     13 C11       15.7283   25.0810   -0.0645 C.ar      1 RES1    0.0000
     14 H3        16.4822   25.5354    0.2910 H         1 RES1    0.0000
     15 C12       12.7070   29.1287   -0.1125 C.ar      1 RES1    0.0000
     16 C13       11.4628   29.6970   -0.4125 C.ar      1 RES1    0.0000
     17 H4        10.8102   29.1684   -0.8550 H         1 RES1    0.0000
     18 C14       11.1610   30.9866   -0.0877 C.ar      1 RES1    0.0000
     19 H5        10.3098   31.3476   -0.3086 H         1 RES1    0.0000
     20 C15       12.1058   31.7724    0.5692 C.ar      1 RES1    0.0000
     21 H6        11.8781   32.6453    0.8636 H         1 RES1    0.0000
     22 C16       13.3608   31.2773    0.7875 C.ar      1 RES1    0.0000
     23 H7        14.0121   31.8322    1.2033 H         1 RES1    0.0000
     24 C17       13.7142   29.9672    0.4114 C.ar      1 RES1    0.0000
     25 C18       15.0921   29.5122    0.4181 C.ar      1 RES1    0.0000
     26 C19       16.1510   30.3471    0.7950 C.ar      1 RES1    0.0000
     27 H8        15.9581   31.1882    1.1921 H         1 RES1    0.0000
     28 C20       17.4567   29.9835    0.6071 C.ar      1 RES1    0.0000
     29 H9        18.1593   30.5540    0.8992 H         1 RES1    0.0000
     30 C21       17.7482   28.7716   -0.0157 C.ar      1 RES1    0.0000
     31 H10       18.6498   28.5342   -0.1961 H         1 RES1    0.0000
     32 C22       16.7368   27.9240   -0.3667 C.ar      1 RES1    0.0000
     33 H11       16.9490   27.1063   -0.8040 H         1 RES1    0.0000
     34 C23       15.3905   28.2281   -0.0979 C.ar      1 RES1    0.0000
     35 C2F       12.2695   23.2459   -1.0773 C.ar      1 RES1    0.0000
     36 C3F       13.6205   23.6873   -1.0953 C.ar      1 RES1    0.0000
     37 C5F        9.7353   23.1051   -0.0424 C.ar      1 RES1    0.0000
     38 H1F        8.8423   23.0179    0.2692 H         1 RES1    0.0000
     39 C6F       10.5366   21.9898   -0.0866 C.ar      1 RES1    0.0000
     40 H2F       10.1832   21.1608    0.2152 H         1 RES1    0.0000
     41 C7F       11.8961   22.0276   -0.5745 C.ar      1 RES1    0.0000
     42 C8F       12.9896   21.0655   -0.3742 C.ar      1 RES1    0.0000
     43 C9F       14.3253   21.5137   -0.3690 C.ar      1 RES1    0.0000
     44 C10F      14.6392   22.9278   -0.5779 C.ar      1 RES1    0.0000
     45 C11F      15.7283   23.7065   -0.0645 C.ar      1 RES1    0.0000
     46 H3F       16.4822   23.2521    0.2910 H         1 RES1    0.0000
     47 C12F      12.7070   19.6588   -0.1125 C.ar      1 RES1    0.0000
     48 C13F      11.4628   19.0905   -0.4125 C.ar      1 RES1    0.0000
     49 H4F       10.8102   19.6191   -0.8550 H         1 RES1    0.0000
     50 C14F      11.1610   17.8009   -0.0877 C.ar      1 RES1    0.0000
     51 H5F       10.3098   17.4399   -0.3086 H         1 RES1    0.0000
     52 C15F      12.1058   17.0151    0.5692 C.ar      1 RES1    0.0000
     53 H6F       11.8781   16.1422    0.8636 H         1 RES1    0.0000
     54 C16F      13.3608   17.5102    0.7875 C.ar      1 RES1    0.0000
     55 H7F       14.0121   16.9553    1.2033 H         1 RES1    0.0000
     56 C17F      13.7142   18.8203    0.4114 C.ar      1 RES1    0.0000
     57 C18F      15.0921   19.2753    0.4181 C.ar      1 RES1    0.0000
     58 C19F      16.1510   18.4404    0.7950 C.ar      1 RES1    0.0000
     59 H8F       15.9581   17.5993    1.1921 H         1 RES1    0.0000
     60 C20F      17.4567   18.8040    0.6071 C.ar      1 RES1    0.0000
     61 H9F       18.1593   18.2335    0.8992 H         1 RES1    0.0000
     62 C21F      17.7482   20.0159   -0.0157 C.ar      1 RES1    0.0000
     63 H10F      18.6498   20.2533   -0.1961 H         1 RES1    0.0000
     64 C22F      16.7368   20.8635   -0.3667 C.ar      1 RES1    0.0000
     65 H11F      16.9490   21.6812   -0.8040 H         1 RES1    0.0000
     66 C23F      15.3905   20.5594   -0.0979 C.ar      1 RES1    0.0000
@<TRIPOS>BOND
     1    1    2 ar
     2    2    3 ar
     3    3   12 ar
     4    4    1 ar
     5    5    4 ar
     6    6    5 1
     7    7    5 ar
     8    8    7 1
     9    9    2 ar
    10   10    9 ar
    11   11   10 ar
    12   12   11 ar
    13   13   12 ar
    14   14   13 1
    15   15   10 ar
    16   16   15 ar
    17   17   16 1
    18   18   16 ar
    19   19   18 1
    20   20   18 ar
    21   21   20 1
    22   22   20 ar
    23   23   22 1
    24   24   15 ar
    25   25   24 ar
    26   26   25 ar
    27   27   26 1
    28   28   26 ar
    29   29   28 1
    30   30   28 ar
    31   31   30 1
    32   32   30 ar
    33   33   32 1
    34   34   11 ar
    35   35    1 ar
    36   36    3 ar
    37   37    4 ar
    38   38   37 1
    39   39   37 ar
    40   40   39 1
    41   41   35 ar
    42   42   41 ar
    43   43   42 ar
    44   44   36 ar
    45   45   13 ar
    46   46   45 1
    47   47   42 ar
    48   48   47 ar
    49   49   48 1
    50   50   48 ar
    51   51   50 1
    52   52   50 ar
    53   53   52 1
    54   54   52 ar
    55   55   54 1
    56   56   47 ar
    57   57   56 ar
    58   58   57 ar
    59   59   58 1
    60   60   58 ar
    61   61   60 1
    62   62   60 ar
    63   63   62 1
    64   64   62 ar
    65   65   64 1
    66   66   43 ar
    67    7    9 ar
    68   22   24 ar
    69   25   34 ar
    70   32   34 ar
    71   35   36 ar
    72   39   41 ar
    73   43   44 ar
    74   44   45 ar
    75   54   56 ar
    76   57   66 ar
    77   64   66 ar
@<TRIPOS>SUBSTRUCTURE
     1 RES1 1

@<TRIPOS>CRYSIN
  19.7771   32.5250    3.7499  90.0000  90.0000  90.0000  62 1

