# MOL2 file generated by ConQuest
# Please check atom types

@<TRIPOS>MOLECULE
VUFHAG
    46    55     1
SMALL
NO_CHARGES
****
Generated from CSD

@<TRIPOS>ATOM
      1 C1        10.7167    7.9762    2.3956 C.ar      1 RES1    0.0000
      2 C2         9.8897    9.0891    2.5097 C.ar      1 RES1    0.0000
      3 C3         8.5666    9.0523    2.0619 C.ar      1 RES1    0.0000
      4 C4         8.0948    7.8917    1.4738 C.ar      1 RES1    0.0000
      5 C5         6.7625    7.5894    0.9088 C.ar      1 RES1    0.0000
      6 C6         5.4893    8.0720    1.1339 C.ar      1 RES1    0.0000
      7 C7         4.3219    7.2747    0.8049 C.ar      1 RES1    0.0000
      8 C8         3.0218    7.3450    1.4211 C.ar      1 RES1    0.0000
      9 C9         2.1875    6.2485    1.5141 C.ar      1 RES1    0.0000
     10 C10        2.5909    4.9482    1.0218 C.ar      1 RES1    0.0000
     11 C11        3.7229    4.9482    0.2415 C.ar      1 RES1    0.0000
     12 C12        4.5536    6.1042    0.0867 C.ar      1 RES1    0.0000
     13 C13        5.8521    5.6529   -0.2106 C.ar      1 RES1    0.0000
     14 C14        6.9363    6.3134    0.2884 C.ar      1 RES1    0.0000
     15 C15        8.1545    5.6463    0.7010 C.ar      1 RES1    0.0000
     16 C16        8.9296    6.7407    1.3691 C.ar      1 RES1    0.0000
     17 C17       10.2333    6.7888    1.8360 C.ar      1 RES1    0.0000
     18 H1        11.7562    8.0538    2.6804 H         1 RES1    0.0000
     19 H2        10.2719    9.9915    2.8406 H         1 RES1    0.0000
     20 H3         7.9188    9.8727    2.1529 H         1 RES1    0.0000
     21 H4         5.3902    8.9445    1.6840 H         1 RES1    0.0000
     22 H5         2.7065    8.2715    1.8677 H         1 RES1    0.0000
     23 H6         1.2563    6.2902    2.0474 H         1 RES1    0.0000
     24 H7        10.9012    5.9617    1.7622 H         1 RES1    0.0000
     25 C1F       10.7167    1.9203    2.3956 C.ar      1 RES1    0.0000
     26 C2F        9.8897    0.8074    2.5097 C.ar      1 RES1    0.0000
     27 C3F        8.5666    0.8442    2.0619 C.ar      1 RES1    0.0000
     28 C4F        8.0948    2.0048    1.4738 C.ar      1 RES1    0.0000
     29 C5F        6.7625    2.3071    0.9088 C.ar      1 RES1    0.0000
     30 C6F        5.4893    1.8245    1.1339 C.ar      1 RES1    0.0000
     31 C7F        4.3219    2.6218    0.8049 C.ar      1 RES1    0.0000
     32 C8F        3.0218    2.5515    1.4211 C.ar      1 RES1    0.0000
     33 C9F        2.1875    3.6480    1.5141 C.ar      1 RES1    0.0000
     34 C12F       4.5536    3.7923    0.0867 C.ar      1 RES1    0.0000
     35 C13F       5.8521    4.2436   -0.2106 C.ar      1 RES1    0.0000
     36 C14F       6.9363    3.5831    0.2884 C.ar      1 RES1    0.0000
     37 C15F       8.1545    4.2502    0.7010 C.ar      1 RES1    0.0000
     38 C16F       8.9296    3.1558    1.3691 C.ar      1 RES1    0.0000
     39 C17F      10.2333    3.1077    1.8360 C.ar      1 RES1    0.0000
     40 H1F       11.7562    1.8427    2.6804 H         1 RES1    0.0000
     41 H2F       10.2719   -0.0950    2.8406 H         1 RES1    0.0000
     42 H3F        7.9188    0.0238    2.1529 H         1 RES1    0.0000
     43 H4F        5.3902    0.9520    1.6840 H         1 RES1    0.0000
     44 H5F        2.7065    1.6250    1.8677 H         1 RES1    0.0000
     45 H6F        1.2563    3.6063    2.0474 H         1 RES1    0.0000
     46 H7F       10.9012    3.9348    1.7622 H         1 RES1    0.0000
@<TRIPOS>BOND
     1    1    2 ar
     2    2    3 ar
     3    3    4 ar
     4    4    5 1
     5    5    6 ar
     6    6    7 ar
     7    7    8 ar
     8    8    9 ar
     9    9   10 ar
    10   10   11 ar
    11   11   12 ar
    12   12    7 ar
    13   13   12 ar
    14   14    5 ar
    15   15   14 ar
    16   16    4 ar
    17   17    1 ar
    18   18    1 1
    19   19    2 1
    20   20    3 1
    21   21    6 1
    22   22    8 1
    23   23    9 1
    24   24   17 1
    25   25   26 ar
    26   26   27 ar
    27   27   28 ar
    28   28   29 1
    29   29   30 ar
    30   30   31 ar
    31   31   32 ar
    32   32   33 ar
    33   33   10 ar
    34   34   11 ar
    35   35   13 ar
    36   36   29 ar
    37   37   15 ar
    38   38   28 ar
    39   39   25 ar
    40   40   25 1
    41   41   26 1
    42   42   27 1
    43   43   30 1
    44   44   32 1
    45   45   33 1
    46   46   39 1
    47   13   14 ar
    48   15   16 1
    49   16   17 ar
    50   31   34 ar
    51   34   35 ar
    52   35   36 ar
    53   36   37 ar
    54   37   38 1
    55   38   39 ar
@<TRIPOS>SUBSTRUCTURE
     1 RES1 1

@<TRIPOS>CRYSIN
  22.8010   19.7930    3.9073  90.0000  90.0000  90.0000  62 1

