# MOL2 file generated by ConQuest
# Please check atom types

@<TRIPOS>MOLECULE
VUFJAI
    38    45     1
SMALL
NO_CHARGES
****
Generated from CSD

@<TRIPOS>ATOM
      1 C1         2.5377    9.4616    2.8122 C.ar      1 RES1    0.0000
      2 C2         2.5078   10.7581    2.3478 C.ar      1 RES1    0.0000
      3 C3         1.9904   11.8437    3.1532 C.ar      1 RES1    0.0000
      4 C4         2.3341   13.2447    3.0970 C.ar      1 RES1    0.0000
      5 C5         2.2219   14.0623    4.2019 C.ar      1 RES1    0.0000
      6 C6         1.7239   13.5759    5.4742 C.ar      1 RES1    0.0000
      7 C7         2.0624   14.0773    6.7978 C.ar      1 RES1    0.0000
      8 C8         1.9662   13.2672    7.9014 C.ar      1 RES1    0.0000
      9 C9         2.5753   13.2447    9.2703 C.ar      1 RES1    0.0000
     10 C10        3.0701   14.2784   10.0525 C.ar      1 RES1    0.0000
     11 C11        3.6131   13.9691   11.3028 C.ar      1 RES1    0.0000
     12 C12        3.6668   12.6616   11.7513 C.ar      1 RES1    0.0000
     13 C13        3.1661   11.6126   10.9777 C.ar      1 RES1    0.0000
     14 C14        2.6103   11.8947    9.7396 C.ar      1 RES1    0.0000
     15 C15        2.0063   11.0130    8.7069 C.ar      1 RES1    0.0000
     16 C16        2.1380    9.6768    8.3683 C.ar      1 RES1    0.0000
     17 C17        1.7858    9.2183    7.0276 C.ar      1 RES1    0.0000
     18 C18        2.3263    8.0622    6.3407 C.ar      1 RES1    0.0000
     19 C19        2.4390    8.0053    4.9670 C.ar      1 RES1    0.0000
     20 C20        2.0472    9.1153    4.1261 C.ar      1 RES1    0.0000
     21 C21        1.3421   10.1119    4.7702 C.ar      1 RES1    0.0000
     22 C22        1.3193   11.4521    4.2911 C.ar      1 RES1    0.0000
     23 C23        1.1360   12.3107    5.4069 C.ar      1 RES1    0.0000
     24 C24        1.0115   11.4953    6.5436 C.ar      1 RES1    0.0000
     25 C25        1.1758   10.1388    6.1843 C.ar      1 RES1    0.0000
     26 C26        1.4874   11.9260    7.7377 C.ar      1 RES1    0.0000
     27 H1         3.0367    8.7578    2.2366 H         1 RES1    0.0000
     28 H2         2.9458   10.9911    1.4911 H         1 RES1    0.0000
     29 H3         2.7821   13.6216    2.2855 H         1 RES1    0.0000
     30 H4         2.5648   14.9853    4.1065 H         1 RES1    0.0000
     31 H5         2.5336   14.9478    6.8931 H         1 RES1    0.0000
     32 H6         3.0533   15.3075    9.7897 H         1 RES1    0.0000
     33 H7         4.0044   14.7132   11.8796 H         1 RES1    0.0000
     34 H8         4.0506   12.4080   12.6618 H         1 RES1    0.0000
     35 H9         3.1918   10.6502   11.2930 H         1 RES1    0.0000
     36 H10        2.6549    9.0174    9.0075 H         1 RES1    0.0000
     37 H11        2.6265    7.2721    6.8931 H         1 RES1    0.0000
     38 H12        2.9033    7.2377    4.5954 H         1 RES1    0.0000
@<TRIPOS>BOND
     1    1    2 ar
     2    2    3 ar
     3    3    4 ar
     4    4    5 ar
     5    5    6 ar
     6    6    7 ar
     7    7    8 ar
     8    8    9 1
     9    9   10 ar
    10   10   11 ar
    11   11   12 ar
    12   12   13 ar
    13   13   14 ar
    14   14    9 ar
    15   15   14 1
    16   16   15 ar
    17   17   16 ar
    18   18   17 ar
    19   19   18 ar
    20   20    1 ar
    21   21   20 ar
    22   22    3 ar
    23   23    6 ar
    24   24   23 ar
    25   25   17 ar
    26   26    8 ar
    27   27    1 1
    28   28    2 1
    29   29    4 1
    30   30    5 1
    31   31    7 1
    32   32   10 1
    33   33   11 1
    34   34   12 1
    35   35   13 1
    36   36   16 1
    37   37   18 1
    38   38   19 1
    39   15   26 ar
    40   19   20 ar
    41   21   22 ar
    42   21   25 ar
    43   22   23 ar
    44   24   25 ar
    45   24   26 ar
@<TRIPOS>SUBSTRUCTURE
     1 RES1 1

@<TRIPOS>CRYSIN
   3.8711   31.2780   12.2437  90.0000  93.4230  90.0000 231 1

