# MOL2 file generated by ConQuest
# Please check atom types

@<TRIPOS>MOLECULE
WAHSED
    34    41     1
SMALL
NO_CHARGES
****
Generated from CSD

@<TRIPOS>ATOM
      1 C1        13.0405    0.6886    1.5469 C.ar      1 RES1    0.0000
      2 C2        12.6380   -0.5173    2.0890 C.ar      1 RES1    0.0000
      3 C3        13.5592   -1.4114    2.6434 C.ar      1 RES1    0.0000
      4 C4        14.8959   -1.0926    2.6667 C.ar      1 RES1    0.0000
      5 C5        15.3591    0.1031    2.0863 C.ar      1 RES1    0.0000
      6 C6        16.7246    0.4542    2.1273 C.ar      1 RES1    0.0000
      7 C7        17.1377    1.6253    1.5784 C.ar      1 RES1    0.0000
      8 C8        16.2368    2.4679    0.8939 C.ar      1 RES1    0.0000
      9 C9        14.8934    2.1387    0.7625 C.ar      1 RES1    0.0000
     10 C10       14.4366    0.9734    1.4538 C.ar      1 RES1    0.0000
     11 C11       10.7749    1.6942    1.4976 C.ar      1 RES1    0.0000
     12 C12       12.1000    1.7168    1.0979 C.ar      1 RES1    0.0000
     13 C13       12.5394    2.7823    0.2711 C.ar      1 RES1    0.0000
     14 C14       13.9385    2.9543   -0.0192 C.ar      1 RES1    0.0000
     15 C15        9.8018    2.5671    1.0048 C.ar      1 RES1    0.0000
     16 C16        8.4366    2.4267    1.6605 C.3       1 RES1    0.0000
     17 C17        7.6707    1.1712    1.2211 C.3       1 RES1    0.0000
     18 C13D      11.5586    3.6597   -0.2711 C.ar      1 RES1    0.0000
     19 C15D      14.2962    3.8749   -1.0048 C.ar      1 RES1    0.0000
     20 C14D      10.1595    3.4877    0.0192 C.ar      1 RES1    0.0000
     21 C12D      11.9980    4.7252   -1.0979 C.ar      1 RES1    0.0000
     22 C11D      13.3231    4.7478   -1.4976 C.ar      1 RES1    0.0000
     23 C16D      15.6614    4.0153   -1.6605 C.3       1 RES1    0.0000
     24 C9D        9.2046    4.3033   -0.7625 C.ar      1 RES1    0.0000
     25 C1D       11.0575    5.7534   -1.5469 C.ar      1 RES1    0.0000
     26 C17D      16.4273    5.2708   -1.2211 C.3       1 RES1    0.0000
     27 C8D        7.8612    3.9741   -0.8939 C.ar      1 RES1    0.0000
     28 C10D       9.6614    5.4686   -1.4538 C.ar      1 RES1    0.0000
     29 C2D       11.4600    6.9593   -2.0890 C.ar      1 RES1    0.0000
     30 C7D        6.9603    4.8167   -1.5784 C.ar      1 RES1    0.0000
     31 C5D        8.7389    6.3389   -2.0863 C.ar      1 RES1    0.0000
     32 C3D       10.5388    7.8534   -2.6434 C.ar      1 RES1    0.0000
     33 C6D        7.3734    5.9878   -2.1273 C.ar      1 RES1    0.0000
     34 C4D        9.2021    7.5346   -2.6667 C.ar      1 RES1    0.0000
@<TRIPOS>BOND
     1    1    2 ar
     2    2    3 ar
     3    3    4 ar
     4    4    5 ar
     5    5    6 ar
     6    6    7 ar
     7    7    8 ar
     8    8    9 ar
     9    9   10 ar
    10   10    1 ar
    11   11   12 ar
    12   12    1 1
    13   13   12 ar
    14   14    9 1
    15   15   11 ar
    16   16   15 1
    17   17   16 1
    18   18   13 ar
    19   19   14 ar
    20   20   15 ar
    21   21   18 ar
    22   22   19 ar
    23   23   19 1
    24   24   20 1
    25   25   21 1
    26   26   23 1
    27   27   24 ar
    28   28   24 ar
    29   29   25 ar
    30   30   27 ar
    31   31   28 ar
    32   32   29 ar
    33   33   30 ar
    34   34   31 ar
    35    5   10 ar
    36   13   14 ar
    37   18   20 ar
    38   21   22 ar
    39   25   28 ar
    40   31   33 ar
    41   32   34 ar
@<TRIPOS>SUBSTRUCTURE
     1 RES1 1

@<TRIPOS>CRYSIN
  24.0980    6.4420   13.8190  90.0000  97.8530  90.0000  15 1

