# MOL2 file generated by ConQuest
# Please check atom types

@<TRIPOS>MOLECULE
WAHSAZ
    34    39     1
SMALL
NO_CHARGES
****
Generated from CSD

@<TRIPOS>ATOM
      1 C1         6.5398    2.3573    0.0564 C.ar      1 RES1    0.0000
      2 C2         6.7323    1.3746   -0.8624 C.ar      1 RES1    0.0000
      3 C3         6.3783    0.0241   -0.6497 C.ar      1 RES1    0.0000
      4 C4         5.7909   -0.3055    0.5556 C.ar      1 RES1    0.0000
      5 C5         5.5641    0.6752    1.5541 C.ar      1 RES1    0.0000
      6 C6         4.9543    0.4079    2.7652 C.ar      1 RES1    0.0000
      7 C7         4.7525    1.3263    3.7028 C.ar      1 RES1    0.0000
      8 C8         5.1613    2.6497    3.4786 C.ar      1 RES1    0.0000
      9 C9         5.7493    3.0234    2.3166 C.ar      1 RES1    0.0000
     10 C10        5.9556    2.0428    1.2878 C.ar      1 RES1    0.0000
     11 C11        6.8759    3.8112   -0.2605 C.ar      1 RES1    0.0000
     12 C12        8.1144    4.3608    0.1794 C.ar      1 RES1    0.0000
     13 C13        9.0208    3.6253    0.9637 C.ar      1 RES1    0.0000
     14 C14       10.2047    4.1790    1.3732 C.ar      1 RES1    0.0000
     15 C15        6.0067    4.5497   -1.0288 C.ar      1 RES1    0.0000
     16 C16        4.6848    4.0192   -1.5367 C.3       1 RES1    0.0000
     17 C17        4.7261    3.7158   -3.0170 C.3       1 RES1    0.0000
     18 C12B       8.4656    5.6872   -0.1794 C.ar      1 RES1    0.0000
     19 C15B      10.5733    5.4983    1.0288 C.ar      1 RES1    0.0000
     20 C14B       6.3753    5.8690   -1.3732 C.ar      1 RES1    0.0000
     21 C11B       9.7041    6.2368    0.2605 C.ar      1 RES1    0.0000
     22 C13B       7.5592    6.4227   -0.9637 C.ar      1 RES1    0.0000
     23 C16B      11.8952    6.0288    1.5367 C.3       1 RES1    0.0000
     24 C1B       10.0402    7.6907   -0.0564 C.ar      1 RES1    0.0000
     25 C17B      11.8539    6.3322    3.0170 C.3       1 RES1    0.0000
     26 C2B        9.8477    8.6734    0.8624 C.ar      1 RES1    0.0000
     27 C10B      10.6244    8.0052   -1.2878 C.ar      1 RES1    0.0000
     28 C3B       10.2017   10.0239    0.6497 C.ar      1 RES1    0.0000
     29 C5B       11.0159    9.3728   -1.5541 C.ar      1 RES1    0.0000
     30 C9B       10.8307    7.0246   -2.3166 C.ar      1 RES1    0.0000
     31 C4B       10.7891   10.3535   -0.5556 C.ar      1 RES1    0.0000
     32 C6B       11.6257    9.6401   -2.7652 C.ar      1 RES1    0.0000
     33 C8B       11.4187    7.3983   -3.4786 C.ar      1 RES1    0.0000
     34 C7B       11.8275    8.7217   -3.7028 C.ar      1 RES1    0.0000
@<TRIPOS>BOND
     1    1    2 ar
     2    2    3 ar
     3    3    4 ar
     4    4    5 ar
     5    5    6 ar
     6    6    7 ar
     7    7    8 ar
     8    8    9 ar
     9    9   10 ar
    10   10    1 ar
    11   11    1 1
    12   12   11 ar
    13   13   12 ar
    14   14   13 ar
    15   15   11 ar
    16   16   15 1
    17   17   16 1
    18   18   12 ar
    19   19   14 ar
    20   20   15 ar
    21   21   18 ar
    22   22   18 ar
    23   23   19 1
    24   24   21 1
    25   25   23 1
    26   26   24 ar
    27   27   24 ar
    28   28   26 ar
    29   29   27 ar
    30   30   27 ar
    31   31   28 ar
    32   32   29 ar
    33   33   30 ar
    34   34   32 ar
    35    5   10 ar
    36   19   21 ar
    37   20   22 ar
    38   29   31 ar
    39   33   34 ar
@<TRIPOS>SUBSTRUCTURE
     1 RES1 1

@<TRIPOS>CRYSIN
   8.2900   10.0480   14.4700  90.0000  90.2200  90.0000 231 1

