# MOL2 file generated by ConQuest
# Please check atom types

@<TRIPOS>MOLECULE
WAHSEC
    34    39     1
SMALL
NO_CHARGES
****
Generated from CSD

@<TRIPOS>ATOM
      1 C1         2.6467   -0.1428    7.8830 C.ar      1 RES1    0.0000
      2 C2         3.5632   -0.4000    6.9059 C.ar      1 RES1    0.0000
      3 C3         3.2147   -1.1318    5.7435 C.ar      1 RES1    0.0000
      4 C4         1.9283   -1.5915    5.5872 C.ar      1 RES1    0.0000
      5 C5         0.9597   -1.3311    6.5539 C.ar      1 RES1    0.0000
      6 C6        -0.3807   -1.7672    6.4101 C.ar      1 RES1    0.0000
      7 C7        -1.3322   -1.4911    7.3372 C.ar      1 RES1    0.0000
      8 C8        -0.9804   -0.7820    8.4788 C.ar      1 RES1    0.0000
      9 C9         0.2993   -0.3561    8.6829 C.ar      1 RES1    0.0000
     10 C10        1.3216   -0.5977    7.7205 C.ar      1 RES1    0.0000
     11 C11        3.0880    0.5851    9.1225 C.ar      1 RES1    0.0000
     12 C12        2.7910    1.9217    9.3204 C.ar      1 RES1    0.0000
     13 C13        3.2903    2.5672   10.4745 C.ar      1 RES1    0.0000
     14 C14        4.0935    1.9319   11.3745 C.ar      1 RES1    0.0000
     15 C15        4.4395    0.5647   11.1974 C.ar      1 RES1    0.0000
     16 C16        3.8889   -0.1145   10.0766 C.ar      1 RES1    0.0000
     17 C17        4.1848   -1.4981    9.9454 C.ar      1 RES1    0.0000
     18 C18        5.0048   -2.1225   10.8266 C.ar      1 RES1    0.0000
     19 C19        5.6023   -1.4464   11.9057 C.ar      1 RES1    0.0000
     20 C20        5.3233   -0.1082   12.0911 C.ar      1 RES1    0.0000
     21 C21        5.9907    0.6706   13.1848 C.ar      1 RES1    0.0000
     22 C22        7.1631    1.3334   12.9161 C.ar      1 RES1    0.0000
     23 C23        7.8230    2.0731   13.9181 C.ar      1 RES1    0.0000
     24 C24        7.3091    2.1343   15.1826 C.ar      1 RES1    0.0000
     25 C25        6.1032    1.4746   15.5014 C.ar      1 RES1    0.0000
     26 C26        5.5321    1.5287   16.7971 C.ar      1 RES1    0.0000
     27 C27        4.3684    0.8801   17.0846 C.ar      1 RES1    0.0000
     28 C28        3.7024    0.1624   16.0930 C.ar      1 RES1    0.0000
     29 C29        4.2148    0.0855   14.8243 C.ar      1 RES1    0.0000
     30 C30        5.4255    0.7350   14.4910 C.ar      1 RES1    0.0000
     31 C31        6.5655   -2.2088   12.7807 C.3       1 RES1    0.0000
     32 C32        7.9334   -2.3727   12.1265 C.3       1 RES1    0.0000
     33 C33        2.0028    2.7578    8.3184 C.3       1 RES1    0.0000
     34 C34        0.8247    3.4230    8.9517 C.3       1 RES1    0.0000
@<TRIPOS>BOND
     1    1    2 ar
     2    2    3 ar
     3    3    4 ar
     4    4    5 ar
     5    5    6 ar
     6    6    7 ar
     7    7    8 ar
     8    8    9 ar
     9    9   10 ar
    10   10    1 ar
    11   11    1 1
    12   12   11 ar
    13   13   12 ar
    14   14   13 ar
    15   15   14 ar
    16   16   11 ar
    17   17   16 ar
    18   18   17 ar
    19   19   18 ar
    20   20   15 ar
    21   21   20 1
    22   22   21 ar
    23   23   22 ar
    24   24   23 ar
    25   25   24 ar
    26   26   25 ar
    27   27   26 ar
    28   28   27 ar
    29   29   28 ar
    30   30   21 ar
    31   31   19 1
    32   32   31 1
    33   33   12 1
    34   34   33 1
    35    5   10 ar
    36   15   16 ar
    37   19   20 ar
    38   25   30 ar
    39   29   30 ar
@<TRIPOS>SUBSTRUCTURE
     1 RES1 1

@<TRIPOS>CRYSIN
  14.9180    7.8437   20.8350  90.0000  90.9090  90.0000 231 1

