# MOL2 file generated by ConQuest
# Please check atom types

@<TRIPOS>MOLECULE
WAJZOW
    54    60     1
SMALL
NO_CHARGES
****
Generated from CSD

@<TRIPOS>ATOM
      1 C1         1.4097    3.6214   -3.0449 C.2       1 RES1    0.0000
      2 H1         1.3475    4.2083   -3.8308 H         1 RES1    0.0000
      3 C2         0.4377    2.7695   -2.6997 C.2       1 RES1    0.0000
      4 H2        -0.3820    2.6401   -3.2945 H         1 RES1    0.0000
      5 C3         0.5754    1.9874   -1.4280 C.ar      1 RES1    0.0000
      6 C4         0.1592    2.5283   -0.2226 C.ar      1 RES1    0.0000
      7 H3        -0.5291    3.2068   -0.2163 H         1 RES1    0.0000
      8 C5         0.8525    2.2538    0.9497 C.ar      1 RES1    0.0000
      9 H4         0.6870    2.7937    1.7758 H         1 RES1    0.0000
     10 C6         1.9647    1.4113    0.9276 C.ar      1 RES1    0.0000
     11 C7         2.1433    0.6335   -0.1996 C.ar      1 RES1    0.0000
     12 H5         2.8698   -0.0287   -0.2360 H         1 RES1    0.0000
     13 C8         1.4588    0.9193   -1.3692 C.ar      1 RES1    0.0000
     14 H6         1.7327    0.4385   -2.1700 H         1 RES1    0.0000
     15 C9         3.1008    1.6061    1.8924 C.ar      1 RES1    0.0000
     16 C10        4.1149    2.4980    1.5432 C.ar      1 RES1    0.0000
     17 C11        3.9659    3.2336    0.2380 C.ar      1 RES1    0.0000
     18 C12        4.3666    2.6700   -0.9638 C.ar      1 RES1    0.0000
     19 H7         4.9614    1.9199   -0.9837 H         1 RES1    0.0000
     20 C13        3.6729    2.9459   -2.1408 C.ar      1 RES1    0.0000
     21 H8         3.8113    2.3508   -2.9300 H         1 RES1    0.0000
     22 C14        2.5784    3.8069   -2.1184 C.ar      1 RES1    0.0000
     23 C15        2.4140    4.6001   -0.9976 C.ar      1 RES1    0.0000
     24 H9         1.7015    5.2667   -1.0022 H         1 RES1    0.0000
     25 C16        3.0997    4.3186    0.1758 C.ar      1 RES1    0.0000
     26 H10        2.8343    4.7858    1.0047 H         1 RES1    0.0000
     27 C17        5.2277    2.6690    2.4032 C.ar      1 RES1    0.0000
     28 H11        5.9187    3.1650    2.1032 H         1 RES1    0.0000
     29 C18        5.2073    2.0726    3.6383 C.ar      1 RES1    0.0000
     30 C19        6.6883    2.5835    4.4246 C.3       1 RES1    0.0000
     31 H12        7.3551    2.2237    3.7159 H         1 RES1    0.0000
     32 H13        6.7069    3.1981    4.7613 H         1 RES1    0.0000
     33 C20        6.8753    1.2395    5.5040 C.ar      1 RES1    0.0000
     34 C21        6.7454    1.5686    6.8589 C.ar      1 RES1    0.0000
     35 H14        6.8422    2.5167    7.0907 H         1 RES1    0.0000
     36 C22        6.2013    0.6500    7.7383 C.ar      1 RES1    0.0000
     37 H15        5.9605    0.9675    8.6218 H         1 RES1    0.0000
     38 C23        5.7700   -0.5877    7.2647 C.ar      1 RES1    0.0000
     39 C24        6.3149   -1.0311    6.0547 C.ar      1 RES1    0.0000
     40 H16        6.1016   -1.9592    5.7475 H         1 RES1    0.0000
     41 C25        6.8754   -0.1138    5.1911 C.ar      1 RES1    0.0000
     42 H17        7.0877   -0.4152    4.2300 H         1 RES1    0.0000
     43 C26        4.4860   -1.1776    7.7294 C.2       1 RES1    0.0000
     44 C27        3.3666   -1.0233    6.9990 C.2       1 RES1    0.0000
     45 H18        2.4856   -1.4513    7.3502 H         1 RES1    0.0000
     46 C28        3.2480   -0.3118    5.6958 C.ar      1 RES1    0.0000
     47 C29        2.2551   -0.6695    4.7440 C.ar      1 RES1    0.0000
     48 H19        1.6491   -1.4185    4.9751 H         1 RES1    0.0000
     49 C30        2.1922   -0.0230    3.5402 C.ar      1 RES1    0.0000
     50 H20        1.4600   -0.2671    2.8917 H         1 RES1    0.0000
     51 C31        3.1618    0.9429    3.1478 C.ar      1 RES1    0.0000
     52 C32        4.2165    1.2273    3.7097 C.ar      1 RES1    0.0000
     53 C33        4.1220    0.8052    5.3586 C.ar      1 RES1    0.0000
     54 H21        4.6722    1.0840    6.0267 H         1 RES1    0.0000
@<TRIPOS>BOND
     1    1    2 1
     2    3    1 2
     3    4    3 1
     4    5    3 1
     5    6    5 ar
     6    7    6 1
     7    8    6 ar
     8    9    8 1
     9   10    8 ar
    10   11   10 ar
    11   12   11 1
    12   13    5 ar
    13   14   13 1
    14   15   10 1
    15   16   15 ar
    16   17   16 1
    17   18   17 ar
    18   19   18 1
    19   20   18 ar
    20   21   20 1
    21   22    1 1
    22   23   22 ar
    23   24   23 1
    24   25   17 ar
    25   26   25 1
    26   27   16 ar
    27   28   27 1
    28   29   27 ar
    29   30   29 1
    30   31   30 1
    31   32   30 1
    32   33   30 1
    33   34   33 ar
    34   35   34 1
    35   36   34 ar
    36   37   36 1
    37   38   36 ar
    38   39   38 ar
    39   40   39 1
    40   41   33 ar
    41   42   41 1
    42   43   38 1
    43   44   43 2
    44   45   44 1
    45   46   44 1
    46   47   46 ar
    47   48   47 1
    48   49   47 ar
    49   50   49 1
    50   51   15 ar
    51   52   29 ar
    52   53   46 ar
    53   54   53 1
    54   11   13 ar
    55   20   22 ar
    56   23   25 ar
    57   39   41 ar
    58   49   51 ar
    59   51   52 ar
    60   52   53 ar
@<TRIPOS>SUBSTRUCTURE
     1 RES1 1

@<TRIPOS>CRYSIN
   8.1200   10.6230   13.2630  68.7800  88.7200  81.7900   2 1

