# MOL2 file generated by ConQuest
# Please check atom types

@<TRIPOS>MOLECULE
WANRIP
   118   131     1
SMALL
NO_CHARGES
****
Generated from CSD

@<TRIPOS>ATOM
      1 C1         3.8814   -2.4777   12.8100 C.ar      1 RES1    0.0000
      2 C2         3.2063   -1.2146   13.0322 C.ar      1 RES1    0.0000
      3 C3         3.2380   -0.5482   14.2900 C.ar      1 RES1    0.0000
      4 H1         3.6514   -0.9749   15.0312 H         1 RES1    0.0000
      5 C4         2.6889    0.6911   14.4550 C.ar      1 RES1    0.0000
      6 H2         2.6696    1.0927   15.3156 H         1 RES1    0.0000
      7 C5         2.1516    1.3719   13.3446 C.ar      1 RES1    0.0000
      8 H3         1.8490    2.2676   13.4444 H         1 RES1    0.0000
      9 C6         2.0602    0.7586   12.1227 C.ar      1 RES1    0.0000
     10 C7         2.4532   -0.6164   11.9770 C.ar      1 RES1    0.0000
     11 C8         2.0054   -1.4829   10.9099 C.ar      1 RES1    0.0000
     12 C9         0.9021   -1.1253   10.0601 C.ar      1 RES1    0.0000
     13 H4         0.5600   -0.2392   10.0945 H         1 RES1    0.0000
     14 C10        0.3394   -2.0149    9.2125 C.ar      1 RES1    0.0000
     15 H5        -0.3743   -1.7377    8.6508 H         1 RES1    0.0000
     16 C11        0.7966   -3.3537    9.1498 C.ar      1 RES1    0.0000
     17 C12        0.1246   -4.3198    8.3742 C.ar      1 RES1    0.0000
     18 H6        -0.6093   -4.0636    7.8291 H         1 RES1    0.0000
     19 C13        0.5254   -5.6232    8.4051 C.ar      1 RES1    0.0000
     20 H7         0.0477   -6.2739    7.9056 H         1 RES1    0.0000
     21 C14        1.6342   -6.0081    9.1634 C.ar      1 RES1    0.0000
     22 H8         1.9000   -6.9201    9.1681 H         1 RES1    0.0000
     23 C15        2.3589   -5.0824    9.9159 C.ar      1 RES1    0.0000
     24 C16        1.9185   -3.7330    9.9385 C.ar      1 RES1    0.0000
     25 C17        2.5416   -2.7743   10.8016 C.ar      1 RES1    0.0000
     26 C18        3.6578   -3.1848   11.6319 C.ar      1 RES1    0.0000
     27 C19        4.3775   -4.4115   11.2242 C.ar      1 RES1    0.0000
     28 C20        3.6520   -5.4118   10.5266 C.ar      1 RES1    0.0000
     29 C21        4.2430   -6.6546   10.2931 C.ar      1 RES1    0.0000
     30 H9         3.7211   -7.3449    9.9032 H         1 RES1    0.0000
     31 C22        5.5616   -6.9134   10.6101 C.ar      1 RES1    0.0000
     32 C23        6.3181   -5.8509   11.1040 C.ar      1 RES1    0.0000
     33 H10        7.2492   -5.9807   11.2372 H         1 RES1    0.0000
     34 C24        5.7718   -4.6178   11.4078 C.ar      1 RES1    0.0000
     35 C25        1.6787    1.5997   10.9426 C.ar      1 RES1    0.0000
     36 C26        0.4453    2.2277   10.8605 C.ar      1 RES1    0.0000
     37 H11       -0.1795    2.1272   11.5682 H         1 RES1    0.0000
     38 C27        0.1101    3.0078    9.7470 C.ar      1 RES1    0.0000
     39 C28        1.0595    3.1800    8.7486 C.ar      1 RES1    0.0000
     40 H12        0.8448    3.7163    7.9938 H         1 RES1    0.0000
     41 C29        2.3150    2.5896    8.8229 C.ar      1 RES1    0.0000
     42 C30        2.6036    1.7903    9.9162 C.ar      1 RES1    0.0000
     43 H13        3.4499    1.3628    9.9681 H         1 RES1    0.0000
     44 C31       -1.2677    3.6135    9.6338 C.3       1 RES1    0.0000
     45 H14       -1.2440    4.5404    9.9515 H         1 RES1    0.0000
     46 H15       -1.8987    3.0971   10.1777 H         1 RES1    0.0000
     47 H16       -1.5548    3.5985    8.6957 H         1 RES1    0.0000
     48 C32        3.3272    2.7980    7.7228 C.3       1 RES1    0.0000
     49 H17        3.0504    2.2998    6.9259 H         1 RES1    0.0000
     50 H18        4.2041    2.4763    8.0204 H         1 RES1    0.0000
     51 H19        3.3841    3.7527    7.5081 H         1 RES1    0.0000
     52 C33        6.7393   -3.5272   11.7749 C.3       1 RES1    0.0000
     53 H20        6.9793   -3.6085   12.7208 H         1 RES1    0.0000
     54 H21        6.3221   -2.6548   11.6181 H         1 RES1    0.0000
     55 H22        7.5462   -3.6087   11.2255 H         1 RES1    0.0000
     56 C34        6.1729   -8.2645   10.3324 C.3       1 RES1    0.0000
     57 H23        6.2098   -8.7832   11.1623 H         1 RES1    0.0000
     58 H24        7.0804   -8.1457    9.9797 H         1 RES1    0.0000
     59 H25        5.6265   -8.7403    9.6720 H         1 RES1    0.0000
     60 C35        4.7549   -3.0162   13.9056 C.ar      1 RES1    0.0000
     61 C36        5.8093   -2.1706   14.4367 C.ar      1 RES1    0.0000
     62 C37        6.1287   -0.9269   13.8338 C.ar      1 RES1    0.0000
     63 H26        5.6951   -0.6761   13.0269 H         1 RES1    0.0000
     64 C38        7.0493   -0.0822   14.3925 C.ar      1 RES1    0.0000
     65 H27        7.3006    0.7164   13.9417 H         1 RES1    0.0000
     66 C39        7.6172   -0.4014   15.6306 C.ar      1 RES1    0.0000
     67 H28        8.1805    0.2325   16.0591 H         1 RES1    0.0000
     68 C40        7.3821   -1.6111   16.2430 C.ar      1 RES1    0.0000
     69 C41        6.5638   -2.5903   15.5727 C.ar      1 RES1    0.0000
     70 C42        6.5996   -4.0074   15.8502 C.ar      1 RES1    0.0000
     71 C43        7.6285   -4.6115   16.6505 C.ar      1 RES1    0.0000
     72 H29        8.2016   -4.0525   17.1618 H         1 RES1    0.0000
     73 C44        7.8066   -5.9521   16.6986 C.ar      1 RES1    0.0000
     74 H30        8.4918   -6.3129   17.2500 H         1 RES1    0.0000
     75 C45        6.9879   -6.8271   15.9403 C.ar      1 RES1    0.0000
     76 C46        7.2427   -8.2075   15.8957 C.ar      1 RES1    0.0000
     77 H31        7.9506   -8.5748   16.4117 H         1 RES1    0.0000
     78 C47        6.4732   -9.0261   15.1128 C.ar      1 RES1    0.0000
     79 H32        6.6659   -9.9551   15.0644 H         1 RES1    0.0000
     80 C48        5.4030   -8.4953   14.3851 C.ar      1 RES1    0.0000
     81 H33        4.8812   -9.0754   13.8436 H         1 RES1    0.0000
     82 C49        5.0820   -7.1482   14.4295 C.ar      1 RES1    0.0000
     83 C50        5.9074   -6.2833   15.1985 C.ar      1 RES1    0.0000
     84 C51        5.7014   -4.8577   15.1749 C.ar      1 RES1    0.0000
     85 C52        4.6255   -4.3151   14.3753 C.ar      1 RES1    0.0000
     86 C53        3.5271   -5.2432   14.0142 C.ar      1 RES1    0.0000
     87 C54        3.8303   -6.6103   13.8712 C.ar      1 RES1    0.0000
     88 C55        2.8660   -7.4902   13.3697 C.ar      1 RES1    0.0000
     89 H34        3.1025   -8.3976   13.2148 H         1 RES1    0.0000
     90 C56        1.5753   -7.0751   13.0941 C.ar      1 RES1    0.0000
     91 C57        1.2354   -5.7734   13.4179 C.ar      1 RES1    0.0000
     92 H35        0.3318   -5.4993   13.3163 H         1 RES1    0.0000
     93 C58        2.1653   -4.8512   13.8873 C.ar      1 RES1    0.0000
     94 C59        7.9244   -1.8124   17.6167 C.ar      1 RES1    0.0000
     95 C60        9.2736   -1.5615   17.8844 C.ar      1 RES1    0.0000
     96 H36        9.8480   -1.2734   17.1851 H         1 RES1    0.0000
     97 C61        9.7818   -1.7320   19.1794 C.ar      1 RES1    0.0000
     98 C62        8.9216   -2.1404   20.1907 C.ar      1 RES1    0.0000
     99 H37        9.2699   -2.2831   21.0639 H         1 RES1    0.0000
    100 C63        7.5691   -2.3471   19.9626 C.ar      1 RES1    0.0000
    101 C64        7.0902   -2.1808   18.6626 C.ar      1 RES1    0.0000
    102 H38        6.1672   -2.3239   18.4891 H         1 RES1    0.0000
    103 C65       11.2447   -1.4617   19.4505 C.3       1 RES1    0.0000
    104 H39       11.3341   -0.6276   19.9562 H         1 RES1    0.0000
    105 H40       11.7265   -1.3834   18.6006 H         1 RES1    0.0000
    106 H41       11.6213   -2.2016   19.9728 H         1 RES1    0.0000
    107 C66        6.6469   -2.6744   21.0983 C.3       1 RES1    0.0000
    108 H42        6.8852   -3.5487   21.4714 H         1 RES1    0.0000
    109 H43        5.7227   -2.6990   20.7728 H         1 RES1    0.0000
    110 H44        6.7292   -1.9894   21.7941 H         1 RES1    0.0000
    111 C67        1.6251   -3.5309   14.3677 C.3       1 RES1    0.0000
    112 H45        1.4334   -2.9565   13.5974 H         1 RES1    0.0000
    113 H46        2.2888   -3.0955   14.9430 H         1 RES1    0.0000
    114 H47        0.8010   -3.6817   14.8765 H         1 RES1    0.0000
    115 C68        0.5612   -8.0464   12.5512 C.3       1 RES1    0.0000
    116 H48        0.6019   -8.0473   11.5715 H         1 RES1    0.0000
    117 H49       -0.3359   -7.7773   12.8406 H         1 RES1    0.0000
    118 H50        0.7572   -8.9454   12.8872 H         1 RES1    0.0000
@<TRIPOS>BOND
     1    1    2 ar
     2    2    3 ar
     3    3    4 1
     4    5    3 ar
     5    6    5 1
     6    7    5 ar
     7    8    7 1
     8    9    7 ar
     9   10    2 ar
    10   11   10 ar
    11   12   11 ar
    12   13   12 1
    13   14   12 ar
    14   15   14 1
    15   16   14 ar
    16   17   16 ar
    17   18   17 1
    18   19   17 ar
    19   20   19 1
    20   21   19 ar
    21   22   21 1
    22   23   21 ar
    23   24   16 ar
    24   25   11 ar
    25   26    1 ar
    26   27   26 ar
    27   28   23 ar
    28   29   28 ar
    29   30   29 1
    30   31   29 ar
    31   32   31 ar
    32   33   32 1
    33   34   27 ar
    34   35    9 1
    35   36   35 ar
    36   37   36 1
    37   38   36 ar
    38   39   38 ar
    39   40   39 1
    40   41   39 ar
    41   42   35 ar
    42   43   42 1
    43   44   38 1
    44   45   44 1
    45   46   44 1
    46   47   44 1
    47   48   41 1
    48   49   48 1
    49   50   48 1
    50   51   48 1
    51   52   34 1
    52   53   52 1
    53   54   52 1
    54   55   52 1
    55   56   31 1
    56   57   56 1
    57   58   56 1
    58   59   56 1
    59   60    1 1
    60   61   60 ar
    61   62   61 ar
    62   63   62 1
    63   64   62 ar
    64   65   64 1
    65   66   64 ar
    66   67   66 1
    67   68   66 ar
    68   69   61 ar
    69   70   69 ar
    70   71   70 ar
    71   72   71 1
    72   73   71 ar
    73   74   73 1
    74   75   73 ar
    75   76   75 ar
    76   77   76 1
    77   78   76 ar
    78   79   78 1
    79   80   78 ar
    80   81   80 1
    81   82   80 ar
    82   83   75 ar
    83   84   70 ar
    84   85   60 ar
    85   86   85 ar
    86   87   82 ar
    87   88   87 ar
    88   89   88 1
    89   90   88 ar
    90   91   90 ar
    91   92   91 1
    92   93   86 ar
    93   94   68 1
    94   95   94 ar
    95   96   95 1
    96   97   95 ar
    97   98   97 ar
    98   99   98 1
    99  100   98 ar
   100  101   94 ar
   101  102  101 1
   102  103   97 1
   103  104  103 1
   104  105  103 1
   105  106  103 1
   106  107  100 1
   107  108  107 1
   108  109  107 1
   109  110  107 1
   110  111   93 1
   111  112  111 1
   112  113  111 1
   113  114  111 1
   114  115   90 1
   115  116  115 1
   116  117  115 1
   117  118  115 1
   118    9   10 ar
   119   23   24 ar
   120   24   25 ar
   121   25   26 ar
   122   27   28 ar
   123   32   34 ar
   124   41   42 ar
   125   68   69 ar
   126   82   83 ar
   127   83   84 ar
   128   84   85 ar
   129   86   87 ar
   130   91   93 ar
   131  100  101 ar
@<TRIPOS>SUBSTRUCTURE
     1 RES1 1

@<TRIPOS>CRYSIN
   8.4472   16.7753   18.3596 111.7670 100.3660  93.7000   2 1

