# MOL2 file generated by ConQuest
# Please check atom types

@<TRIPOS>MOLECULE
WANROV
    62    67     1
SMALL
NO_CHARGES
****
Generated from CSD

@<TRIPOS>ATOM
      1 C1         6.0015    9.6404    1.9729 C.ar      1 RES1    0.0000
      2 C2         6.3207   10.6080    1.0338 C.ar      1 RES1    0.0000
      3 H1         7.1756   10.5822    0.6206 H         1 RES1    0.0000
      4 C3         5.4247   11.6246    0.6725 C.ar      1 RES1    0.0000
      5 H2         5.6796   12.2885    0.0425 H         1 RES1    0.0000
      6 C4         4.1817   11.6487    1.2380 C.ar      1 RES1    0.0000
      7 H3         3.5548   12.3109    0.9711 H         1 RES1    0.0000
      8 C5         3.8198   10.6960    2.2181 C.ar      1 RES1    0.0000
      9 C6         2.5225   10.7612    2.7977 C.ar      1 RES1    0.0000
     10 H4         1.9266   11.4480    2.5233 H         1 RES1    0.0000
     11 C7         2.1181    9.8694    3.7278 C.ar      1 RES1    0.0000
     12 H5         1.2295    9.9188    4.0604 H         1 RES1    0.0000
     13 C8         2.9939    8.8517    4.2260 C.ar      1 RES1    0.0000
     14 C9         2.5613    7.9172    5.2616 C.ar      1 RES1    0.0000
     15 C10        1.1962    7.6834    5.6362 C.ar      1 RES1    0.0000
     16 C11        0.9142    6.8477    6.7053 C.ar      1 RES1    0.0000
     17 H6         0.0072    6.7163    6.9586 H         1 RES1    0.0000
     18 C12        1.9209    6.1894    7.4277 C.ar      1 RES1    0.0000
     19 H7         1.6997    5.6501    8.1770 H         1 RES1    0.0000
     20 C13        3.2215    6.3335    7.0403 C.ar      1 RES1    0.0000
     21 H8         3.9054    5.8612    7.5003 H         1 RES1    0.0000
     22 C14        3.5594    7.1790    5.9600 C.ar      1 RES1    0.0000
     23 C15        4.9228    7.3083    5.5646 C.ar      1 RES1    0.0000
     24 H9         5.5926    6.8515    6.0603 H         1 RES1    0.0000
     25 C16        5.2921    8.0644    4.5015 C.ar      1 RES1    0.0000
     26 H10        6.2042    8.0811    4.2380 H         1 RES1    0.0000
     27 C17        4.3351    8.8398    3.7642 C.ar      1 RES1    0.0000
     28 C18        4.7389    9.7022    2.6555 C.ar      1 RES1    0.0000
     29 C19        6.9813    8.5233    2.1017 C.ar      1 RES1    0.0000
     30 C20        6.6066    7.2166    1.7850 C.ar      1 RES1    0.0000
     31 H11        5.7107    7.0363    1.5249 H         1 RES1    0.0000
     32 C21        7.5276    6.1744    1.8443 C.ar      1 RES1    0.0000
     33 C22        8.8431    6.4633    2.2212 C.ar      1 RES1    0.0000
     34 H12        9.4758    5.7571    2.2730 H         1 RES1    0.0000
     35 C23        9.2463    7.7583    2.5224 C.ar      1 RES1    0.0000
     36 C24        8.3030    8.7858    2.4587 C.ar      1 RES1    0.0000
     37 H13        8.5655    9.6756    2.6614 H         1 RES1    0.0000
     38 C25        7.1017    4.7689    1.5073 C.3       1 RES1    0.0000
     39 H14        6.6778    4.3592    2.2912 H         1 RES1    0.0000
     40 H15        7.8868    4.2434    1.2473 H         1 RES1    0.0000
     41 H16        6.4621    4.7901    0.7647 H         1 RES1    0.0000
     42 C26       10.6724    8.0662    2.8968 C.3       1 RES1    0.0000
     43 H17       10.7198    8.2844    3.8510 H         1 RES1    0.0000
     44 H18       10.9910    8.8292    2.3716 H         1 RES1    0.0000
     45 H19       11.2346    7.2854    2.7115 H         1 RES1    0.0000
     46 C27        0.0039    8.1955    4.8921 C.ar      1 RES1    0.0000
     47 C28       -0.9275    9.0252    5.5210 C.ar      1 RES1    0.0000
     48 H20       -0.7903    9.2787    6.4260 H         1 RES1    0.0000
     49 C29       -2.0579    9.4884    4.8423 C.ar      1 RES1    0.0000
     50 C30       -2.2415    9.0934    3.5212 C.ar      1 RES1    0.0000
     51 H21       -2.9843    9.4324    3.0362 H         1 RES1    0.0000
     52 C31       -1.3619    8.2124    2.8909 C.ar      1 RES1    0.0000
     53 C32       -0.2367    7.7826    3.5814 C.ar      1 RES1    0.0000
     54 H22        0.3788    7.1978    3.1546 H         1 RES1    0.0000
     55 C33       -3.0650   10.3842    5.5219 C.3       1 RES1    0.0000
     56 H23       -3.1040   11.2447    5.0543 H         1 RES1    0.0000
     57 H24       -2.7969   10.5297    6.4533 H         1 RES1    0.0000
     58 H25       -3.9474    9.9596    5.4989 H         1 RES1    0.0000
     59 C34       -1.6623    7.6874    1.5098 C.3       1 RES1    0.0000
     60 H26       -0.9558    7.0665    1.2351 H         1 RES1    0.0000
     61 H27       -1.7025    8.4352    0.8770 H         1 RES1    0.0000
     62 H28       -2.5240    7.2202    1.5189 H         1 RES1    0.0000
@<TRIPOS>BOND
     1    1    2 ar
     2    2    3 1
     3    4    2 ar
     4    5    4 1
     5    6    4 ar
     6    7    6 1
     7    8    6 ar
     8    9    8 ar
     9   10    9 1
    10   11    9 ar
    11   12   11 1
    12   13   11 ar
    13   14   13 ar
    14   15   14 ar
    15   16   15 ar
    16   17   16 1
    17   18   16 ar
    18   19   18 1
    19   20   18 ar
    20   21   20 1
    21   22   14 ar
    22   23   22 ar
    23   24   23 1
    24   25   23 ar
    25   26   25 1
    26   27   13 ar
    27   28    1 ar
    28   29    1 1
    29   30   29 ar
    30   31   30 1
    31   32   30 ar
    32   33   32 ar
    33   34   33 1
    34   35   33 ar
    35   36   29 ar
    36   37   36 1
    37   38   32 1
    38   39   38 1
    39   40   38 1
    40   41   38 1
    41   42   35 1
    42   43   42 1
    43   44   42 1
    44   45   42 1
    45   46   15 1
    46   47   46 ar
    47   48   47 1
    48   49   47 ar
    49   50   49 ar
    50   51   50 1
    51   52   50 ar
    52   53   46 ar
    53   54   53 1
    54   55   49 1
    55   56   55 1
    56   57   55 1
    57   58   55 1
    58   59   52 1
    59   60   59 1
    60   61   59 1
    61   62   59 1
    62    8   28 ar
    63   20   22 ar
    64   25   27 ar
    65   27   28 ar
    66   35   36 ar
    67   52   53 ar
@<TRIPOS>SUBSTRUCTURE
     1 RES1 1

@<TRIPOS>CRYSIN
  16.2619    9.7281   15.1953  90.0000  93.0710  90.0000  14 1

