# MOL2 file generated by ConQuest
# Please check atom types

@<TRIPOS>MOLECULE
WAZCOP
    46    54     1
SMALL
NO_CHARGES
****
Generated from CSD

@<TRIPOS>ATOM
      1 C1        14.5489    2.4927    6.7101 C.ar      1 RES1    0.0000
      2 C2        13.5788    1.4875    6.8107 C.ar      1 RES1    0.0000
      3 C3        12.7689    1.0606    5.7320 C.ar      1 RES1    0.0000
      4 C4        12.9862    1.6296    4.5016 C.ar      1 RES1    0.0000
      5 C5        13.9825    2.6251    4.3704 C.ar      1 RES1    0.0000
      6 C6        14.7304    3.0576    5.4273 C.ar      1 RES1    0.0000
      7 C7        15.2309    2.8108    7.9099 C.ar      1 RES1    0.0000
      8 C8        14.9578    2.1361    9.0674 C.ar      1 RES1    0.0000
      9 C9        13.9890    1.1042    9.1344 C.ar      1 RES1    0.0000
     10 C10       13.2873    0.7856    8.0032 C.ar      1 RES1    0.0000
     11 C11       12.2043   -0.1601    7.6694 C.ar      1 RES1    0.0000
     12 C12       11.8629    0.0339    6.2801 C.ar      1 RES1    0.0000
     13 C13       10.8312   -0.6501    5.7378 C.ar      1 RES1    0.0000
     14 C14       10.0747   -1.6040    6.4973 C.ar      1 RES1    0.0000
     15 C15       10.4835   -1.8718    7.8632 C.ar      1 RES1    0.0000
     16 C16       11.5642   -1.0919    8.4041 C.ar      1 RES1    0.0000
     17 C17        8.9733   -2.2869    5.9536 C.ar      1 RES1    0.0000
     18 C18        8.4975   -1.9739    4.5570 C.3       1 RES1    0.0000
     19 C19        9.0852   -2.8714    3.4710 C.3       1 RES1    0.0000
     20 C20        8.5547   -2.5614    2.0846 C.3       1 RES1    0.0000
     21 C21        9.0457   -3.5112    1.0190 C.3       1 RES1    0.0000
     22 C22        8.5396   -3.2116   -0.3863 C.3       1 RES1    0.0000
     23 C23        9.0743   -4.2065   -1.4082 C.3       1 RES1    0.0000
     24 C17B       9.8180   -2.8442    8.6242 C.ar      1 RES1    0.0000
     25 C15B       8.3078   -3.2593    6.7145 C.ar      1 RES1    0.0000
     26 C14B       8.7166   -3.5271    8.0805 C.ar      1 RES1    0.0000
     27 C18B      10.2938   -3.1572   10.0208 C.3       1 RES1    0.0000
     28 C16B       7.2271   -4.0392    6.1737 C.ar      1 RES1    0.0000
     29 C13B       7.9601   -4.4810    8.8400 C.ar      1 RES1    0.0000
     30 C19B       9.7061   -2.2597   11.1068 C.3       1 RES1    0.0000
     31 C11B       6.5870   -4.9710    6.9084 C.ar      1 RES1    0.0000
     32 C12B       6.9284   -5.1650    8.2977 C.ar      1 RES1    0.0000
     33 C20B      10.2366   -2.5697   12.4931 C.3       1 RES1    0.0000
     34 C10B       5.5040   -5.9167    6.5746 C.ar      1 RES1    0.0000
     35 C3B        6.0224   -6.1917    8.8458 C.ar      1 RES1    0.0000
     36 C21B       9.7456   -1.6199   13.5588 C.3       1 RES1    0.0000
     37 C2B        5.2125   -6.6186    7.7670 C.ar      1 RES1    0.0000
     38 C9B        4.8023   -6.2353    5.4433 C.ar      1 RES1    0.0000
     39 C4B        5.8051   -6.7607   10.0762 C.ar      1 RES1    0.0000
     40 C22B      10.2517   -1.9195   14.9641 C.3       1 RES1    0.0000
     41 C1B        4.2424   -7.6238    7.8676 C.ar      1 RES1    0.0000
     42 C8B        3.8335   -7.2672    5.5104 C.ar      1 RES1    0.0000
     43 C5B        4.8088   -7.7562   10.2074 C.ar      1 RES1    0.0000
     44 C23B       9.7170   -0.9246   15.9860 C.3       1 RES1    0.0000
     45 C6B        4.0610   -8.1887    9.1505 C.ar      1 RES1    0.0000
     46 C7B        3.5604   -7.9419    6.6679 C.ar      1 RES1    0.0000
@<TRIPOS>BOND
     1    1    2 ar
     2    2    3 ar
     3    3    4 ar
     4    4    5 ar
     5    5    6 ar
     6    6    1 ar
     7    7    1 ar
     8    8    7 ar
     9    9    8 ar
    10   10    2 ar
    11   11   10 1
    12   12    3 1
    13   13   12 ar
    14   14   13 ar
    15   15   14 ar
    16   16   11 ar
    17   17   14 ar
    18   18   17 1
    19   19   18 1
    20   20   19 1
    21   21   20 1
    22   22   21 1
    23   23   22 1
    24   24   15 ar
    25   25   17 ar
    26   26   24 ar
    27   27   24 1
    28   28   25 ar
    29   29   26 ar
    30   30   27 1
    31   31   28 ar
    32   32   29 ar
    33   33   30 1
    34   34   31 1
    35   35   32 1
    36   36   33 1
    37   37   34 ar
    38   38   34 ar
    39   39   35 ar
    40   40   36 1
    41   41   37 ar
    42   42   38 ar
    43   43   39 ar
    44   44   40 1
    45   45   41 ar
    46   46   41 ar
    47    9   10 ar
    48   11   12 ar
    49   15   16 ar
    50   25   26 ar
    51   31   32 ar
    52   35   37 ar
    53   42   46 ar
    54   43   45 ar
@<TRIPOS>SUBSTRUCTURE
     1 RES1 1

@<TRIPOS>CRYSIN
  21.1900    5.1311   14.7738  90.0000  99.3440  90.0000 231 1

