# MOL2 file generated by ConQuest
# Please check atom types

@<TRIPOS>MOLECULE
WEFCUG
    80    86     2
SMALL
NO_CHARGES
****
Generated from CSD

@<TRIPOS>ATOM
      1 C1        13.7535   11.0149    2.4828 C.1       1 RES1    0.0000
      2 H1        14.3940   11.6753    2.3433 H         1 RES1    0.0000
      3 C2        12.9456   10.1823    2.6585 C.1       1 RES1    0.0000
      4 C3        11.9524    9.1628    2.8385 C.ar      1 RES1    0.0000
      5 C4        11.9912    8.0307    2.0688 C.ar      1 RES1    0.0000
      6 H2        12.6762    7.9187    1.4503 H         1 RES1    0.0000
      7 C5        11.0291    7.0592    2.1990 C.ar      1 RES1    0.0000
      8 H3        11.0820    6.2996    1.6643 H         1 RES1    0.0000
      9 C6         9.9931    7.1743    3.0961 C.ar      1 RES1    0.0000
     10 C7         9.9609    8.3088    3.8781 C.ar      1 RES1    0.0000
     11 H4         9.2734    8.4159    4.4947 H         1 RES1    0.0000
     12 C8        10.9283    9.2924    3.7681 C.ar      1 RES1    0.0000
     13 H5        10.8920   10.0417    4.3176 H         1 RES1    0.0000
     14 C9         9.0083    6.0763    3.1633 C.2       1 RES1    0.0000
     15 H6         9.1307    5.3848    2.5537 H         1 RES1    0.0000
     16 C10        7.9872    5.9509    3.9692 C.2       1 RES1    0.0000
     17 H7         7.8127    6.6447    4.5648 H         1 RES1    0.0000
     18 C11        7.0939    4.7743    3.9951 C.ar      1 RES1    0.0000
     19 C12        6.5135    4.2509    2.8253 C.ar      1 RES1    0.0000
     20 C13        6.5928    4.9046    1.5577 C.ar      1 RES1    0.0000
     21 H8         7.0292    5.7238    1.4946 H         1 RES1    0.0000
     22 C14        6.0450    4.3537    0.4450 C.ar      1 RES1    0.0000
     23 H9         6.1199    4.7975   -0.3690 H         1 RES1    0.0000
     24 C15        5.3620    3.1169    0.5000 C.ar      1 RES1    0.0000
     25 H10        5.0198    2.7353   -0.2768 H         1 RES1    0.0000
     26 C16        5.2093    2.4967    1.6831 C.ar      1 RES1    0.0000
     27 H11        4.7274    1.7024    1.7197 H         1 RES1    0.0000
     28 C17        5.7690    3.0232    2.8858 C.ar      1 RES1    0.0000
     29 C18        5.5796    2.3975    4.1010 C.ar      1 RES1    0.0000
     30 H12        5.1015    1.6002    4.1331 H         1 RES1    0.0000
     31 C19        6.0902    2.9368    5.2811 C.ar      1 RES1    0.0000
     32 C20        5.8589    2.3086    6.5321 C.ar      1 RES1    0.0000
     33 H13        5.3769    1.5137    6.5613 H         1 RES1    0.0000
     34 C21        6.3249    2.8406    7.6809 C.ar      1 RES1    0.0000
     35 H14        6.1394    2.4304    8.4950 H         1 RES1    0.0000
     36 C22        7.0893    4.0117    7.6414 C.ar      1 RES1    0.0000
     37 H15        7.4172    4.3720    8.4322 H         1 RES1    0.0000
     38 C23        7.3575    4.6270    6.4727 C.ar      1 RES1    0.0000
     39 H16        7.8868    5.3927    6.4764 H         1 RES1    0.0000
     40 C24        6.8583    4.1407    5.2291 C.ar      1 RES1    0.0000
     41 C25       -5.1840    7.4305    7.4455 C.1       2 RES2    0.0000
     42 H17       -5.8547    8.0526    7.6130 H         2 RES2    0.0000
     43 C26       -4.3354    6.6441    7.2322 C.1       2 RES2    0.0000
     44 C27       -3.2799    5.7092    6.9842 C.ar      2 RES2    0.0000
     45 C28       -3.2831    4.4603    7.5794 C.ar      2 RES2    0.0000
     46 H18       -3.9904    4.2186    8.1333 H         2 RES2    0.0000
     47 C29       -2.2602    3.5747    7.3657 C.ar      2 RES2    0.0000
     48 H19       -2.2892    2.7396    7.7754 H         2 RES2    0.0000
     49 C30       -1.1817    3.8930    6.5528 C.ar      2 RES2    0.0000
     50 C31       -1.1709    5.1535    5.9646 C.ar      2 RES2    0.0000
     51 H20       -0.4520    5.4049    5.4284 H         2 RES2    0.0000
     52 C32       -2.2106    6.0330    6.1649 C.ar      2 RES2    0.0000
     53 H21       -2.1940    6.8614    5.7420 H         2 RES2    0.0000
     54 C33       -0.1598    2.8765    6.2948 C.2       2 RES2    0.0000
     55 H22       -0.1590    2.1431    6.8676 H         2 RES2    0.0000
     56 C34        0.7699    2.8759    5.3394 C.2       2 RES2    0.0000
     57 H23        0.8578    3.6380    4.8158 H         2 RES2    0.0000
     58 C35        1.6614    1.7414    5.0682 C.ar      2 RES2    0.0000
     59 C36        2.3367    1.0548    6.1037 C.ar      2 RES2    0.0000
     60 C37        2.4003    1.5466    7.4469 C.ar      2 RES2    0.0000
     61 H24        1.9966    2.3567    7.6573 H         2 RES2    0.0000
     62 C38        3.0461    0.8485    8.4160 C.ar      2 RES2    0.0000
     63 H25        3.0883    1.1972    9.2773 H         2 RES2    0.0000
     64 C39        3.6468   -0.3877    8.1448 C.ar      2 RES2    0.0000
     65 H26        4.0480   -0.8710    8.8308 H         2 RES2    0.0000
     66 C40        3.6437   -0.8722    6.8919 C.ar      2 RES2    0.0000
     67 H27        4.0568   -1.6872    6.7199 H         2 RES2    0.0000
     68 C41        3.0184   -0.1668    5.8166 C.ar      2 RES2    0.0000
     69 C42        3.0890   -0.6251    4.5147 C.ar      2 RES2    0.0000
     70 H28        3.5248   -1.4279    4.3397 H         2 RES2    0.0000
     71 C43        2.5255    0.0816    3.4570 C.ar      2 RES2    0.0000
     72 C44        2.6365   -0.3567    2.1031 C.ar      2 RES2    0.0000
     73 H29        3.1041   -1.1376    1.9152 H         2 RES2    0.0000
     74 C45        2.0771    0.3390    1.0960 C.ar      2 RES2    0.0000
     75 H30        2.1628    0.0365    0.2214 H         2 RES2    0.0000
     76 C46        1.3670    1.5150    1.3602 C.ar      2 RES2    0.0000
     77 H31        0.9940    1.9940    0.6569 H         2 RES2    0.0000
     78 C47        1.2176    1.9641    2.6241 C.ar      2 RES2    0.0000
     79 H32        0.7211    2.7353    2.7751 H         2 RES2    0.0000
     80 C48        1.8016    1.2837    3.7312 C.ar      2 RES2    0.0000
@<TRIPOS>BOND
     1    1    2 1
     2    3    1 3
     3    4    3 1
     4    5    4 ar
     5    6    5 1
     6    7    5 ar
     7    8    7 1
     8    9    7 ar
     9   10    9 ar
    10   11   10 1
    11   12    4 ar
    12   13   12 1
    13   14    9 1
    14   15   14 1
    15   16   14 2
    16   17   16 1
    17   18   16 1
    18   19   18 ar
    19   20   19 ar
    20   21   20 1
    21   22   20 ar
    22   23   22 1
    23   24   22 ar
    24   25   24 1
    25   26   24 ar
    26   27   26 1
    27   28   19 ar
    28   29   28 ar
    29   30   29 1
    30   31   29 ar
    31   32   31 ar
    32   33   32 1
    33   34   32 ar
    34   35   34 1
    35   36   34 ar
    36   37   36 1
    37   38   36 ar
    38   39   38 1
    39   40   18 ar
    40   41   42 1
    41   43   41 3
    42   44   43 1
    43   45   44 ar
    44   46   45 1
    45   47   45 ar
    46   48   47 1
    47   49   47 ar
    48   50   49 ar
    49   51   50 1
    50   52   44 ar
    51   53   52 1
    52   54   49 1
    53   55   54 1
    54   56   54 2
    55   57   56 1
    56   58   56 1
    57   59   58 ar
    58   60   59 ar
    59   61   60 1
    60   62   60 ar
    61   63   62 1
    62   64   62 ar
    63   65   64 1
    64   66   64 ar
    65   67   66 1
    66   68   59 ar
    67   69   68 ar
    68   70   69 1
    69   71   69 ar
    70   72   71 ar
    71   73   72 1
    72   74   72 ar
    73   75   74 1
    74   76   74 ar
    75   77   76 1
    76   78   76 ar
    77   79   78 1
    78   80   58 ar
    79   10   12 ar
    80   26   28 ar
    81   31   40 ar
    82   38   40 ar
    83   50   52 ar
    84   66   68 ar
    85   71   80 ar
    86   78   80 ar
@<TRIPOS>SUBSTRUCTURE
     1 RES1 1
     2 RES2 41

@<TRIPOS>CRYSIN
  14.7618    6.0866   37.4890  90.0000 100.1480  90.0000 231 1

