# MOL2 file generated by ConQuest
# Please check atom types

@<TRIPOS>MOLECULE
WEFSAD
   256   272     1
SMALL
NO_CHARGES
****
Generated from CSD

@<TRIPOS>ATOM
      1 C1         2.0956   14.1771    5.4621 C.ar      1 RES1    0.0000
      2 C2         2.9586   14.7897    6.3885 C.ar      1 RES1    0.0000
      3 H1         3.7243   15.2496    6.0583 H         1 RES1    0.0000
      4 C3         2.3514   14.1809    4.0360 C.ar      1 RES1    0.0000
      5 C4         6.3397   10.0991    0.5469 C.ar      1 RES1    0.0000
      6 C5         0.3491    6.0763   11.1322 C.ar      1 RES1    0.0000
      7 C6         6.9142    7.7460    0.8042 C.ar      1 RES1    0.0000
      8 C7        -0.3595    8.3321   10.6089 C.ar      1 RES1    0.0000
      9 C8         2.7486   14.7554    7.7481 C.ar      1 RES1    0.0000
     10 C9        -1.4511    7.8285    9.8884 C.ar      1 RES1    0.0000
     11 C10        1.5353    7.8895   12.2216 C.ar      1 RES1    0.0000
     12 H2         1.5602    8.8133   12.4468 H         1 RES1    0.0000
     13 C11       -0.0987   13.2252    5.0010 C.ar      1 RES1    0.0000
     14 H3        -0.8977   12.8291    5.3270 H         1 RES1    0.0000
     15 C12        0.9487   13.5218    5.9339 C.ar      1 RES1    0.0000
     16 C13        1.7257   13.8790    8.2350 C.ar      1 RES1    0.0000
     17 C14        1.2688   13.9005    3.1396 C.ar      1 RES1    0.0000
     18 C15        5.8710    7.3694   -0.0365 C.ar      1 RES1    0.0000
     19 C16        7.5890   13.1182    2.3547 C.ar      1 RES1    0.0000
     20 H4         8.3980   13.4655    2.7128 H         1 RES1    0.0000
     21 C17        1.5400   13.5954    9.6332 C.ar      1 RES1    0.0000
     22 H5         2.0043   14.1106   10.2808 H         1 RES1    0.0000
     23 C18        5.1021    8.3745   -0.7120 C.ar      1 RES1    0.0000
     24 C19        4.5251    2.3723    7.6173 C.ar      1 RES1    0.0000
     25 C20       -0.0024   13.4867    3.6500 C.ar      1 RES1    0.0000
     26 C21        5.2551   13.4367    1.8186 C.ar      1 RES1    0.0000
     27 C22        0.8656   13.2226    7.3257 C.ar      1 RES1    0.0000
     28 C23        7.5293    6.7598    1.5998 C.ar      1 RES1    0.0000
     29 H6         8.2697    7.0059    2.1424 H         1 RES1    0.0000
     30 C24        7.5868   11.8417    1.7692 C.ar      1 RES1    0.0000
     31 C25        0.0429    9.6821   10.3945 C.ar      1 RES1    0.0000
     32 H7         0.7839   10.0250   10.8791 H         1 RES1    0.0000
     33 C26        0.5199    7.4534   11.3638 C.ar      1 RES1    0.0000
     34 C27        2.8420   13.8743    1.2996 C.ar      1 RES1    0.0000
     35 H8         3.0094   13.8142    0.3667 H         1 RES1    0.0000
     36 C28        2.5256    5.7064   12.2881 C.ar      1 RES1    0.0000
     37 C29        2.4910    7.0716   12.7577 C.ar      1 RES1    0.0000
     38 C30        5.2928    9.6815   -0.3774 C.ar      1 RES1    0.0000
     39 H9         4.7249   10.3417   -0.7592 H         1 RES1    0.0000
     40 C31        6.4426   11.4343    1.0444 C.ar      1 RES1    0.0000
     41 C32        1.5464   13.8857    1.7564 C.ar      1 RES1    0.0000
     42 H10        0.8309   13.8839    1.1323 H         1 RES1    0.0000
     43 C33        0.7032   12.5946   10.0428 C.ar      1 RES1    0.0000
     44 H11        0.5899   12.4368   10.9714 H         1 RES1    0.0000
     45 C34        3.9159   13.9513    2.1853 C.ar      1 RES1    0.0000
     46 C35        3.6377   14.2131    3.5363 C.ar      1 RES1    0.0000
     47 H12        4.3547   14.4186    4.1239 H         1 RES1    0.0000
     48 C36        0.0050   11.7917    9.1185 C.ar      1 RES1    0.0000
     49 C37        8.6494   10.8895    1.9794 C.ar      1 RES1    0.0000
     50 C38        8.4121    9.5955    1.6427 C.ar      1 RES1    0.0000
     51 H13        9.0755    8.9528    1.8636 H         1 RES1    0.0000
     52 C39        5.6739    2.7294    5.4792 C.ar      1 RES1    0.0000
     53 C40        6.4544   13.8653    2.4169 C.ar      1 RES1    0.0000
     54 H14        6.4717   14.6975    2.8779 H         1 RES1    0.0000
     55 C41        5.4988    5.9729   -0.1029 C.ar      1 RES1    0.0000
     56 H15        4.8370    5.6867   -0.7206 H         1 RES1    0.0000
     57 C42       -0.6197   10.5143    9.4916 C.ar      1 RES1    0.0000
     58 C43        0.0342   12.1683    7.7739 C.ar      1 RES1    0.0000
     59 H16       -0.5156   11.7075    7.1498 H         1 RES1    0.0000
     60 C44        7.0996    5.4594    1.6213 C.ar      1 RES1    0.0000
     61 C45       -0.8306    5.5849   10.4974 C.ar      1 RES1    0.0000
     62 H17       -0.9830    4.6464   10.4803 H         1 RES1    0.0000
     63 C46        1.4607    5.1999   11.4903 C.ar      1 RES1    0.0000
     64 C47        9.0029    4.3084    4.6515 C.ar      1 RES1    0.0000
     65 H18        9.8693    4.4023    5.0289 H         1 RES1    0.0000
     66 C48       -1.7712    9.9785    8.8526 C.ar      1 RES1    0.0000
     67 H19       -2.2723   10.5364    8.2693 H         1 RES1    0.0000
     68 C49        7.2504    9.1428    0.9908 C.ar      1 RES1    0.0000
     69 C50        5.2872   12.2843    1.0701 C.ar      1 RES1    0.0000
     70 H20        4.5219   12.0445    0.5597 H         1 RES1    0.0000
     71 C51       -1.7313    6.3974    9.9227 C.ar      1 RES1    0.0000
     72 C52        3.6792    4.8730   12.4940 C.ar      1 RES1    0.0000
     73 H21        4.3348    5.1113   13.1395 H         1 RES1    0.0000
     74 C53        5.7290    2.7736    6.8710 C.ar      1 RES1    0.0000
     75 C54        7.9664    3.7342    5.4278 C.ar      1 RES1    0.0000
     76 C55        7.5246    4.5906    2.7772 C.ar      1 RES1    0.0000
     77 C56        6.7674    3.3803    4.7458 C.ar      1 RES1    0.0000
     78 C57        3.4649    1.7156    6.9161 C.ar      1 RES1    0.0000
     79 C58        8.7825    4.7315    3.3648 C.ar      1 RES1    0.0000
     80 H22        9.4937    5.1229    2.8694 H         1 RES1    0.0000
     81 C59        2.1911    1.6993    8.9748 C.ar      1 RES1    0.0000
     82 H23        1.4187    1.4180    9.4488 H         1 RES1    0.0000
     83 C60       -2.1787    8.7203    9.0413 C.ar      1 RES1    0.0000
     84 H24       -2.9641    8.4123    8.6060 H         1 RES1    0.0000
     85 C61        8.0239    3.6171    6.8474 C.ar      1 RES1    0.0000
     86 C62        6.5570    3.8418    3.4312 C.ar      1 RES1    0.0000
     87 H25        5.7438    3.6381    2.9873 H         1 RES1    0.0000
     88 C63        1.6541    4.0115   10.7848 C.ar      1 RES1    0.0000
     89 H26        0.9358    3.6555   10.2765 H         1 RES1    0.0000
     90 C64        6.9243    3.2103    7.5337 C.ar      1 RES1    0.0000
     91 H27        6.9458    3.2138    8.4837 H         1 RES1    0.0000
     92 C65        3.1637    2.4952    9.6267 C.ar      1 RES1    0.0000
     93 C66        3.8232    3.7223   11.7391 C.ar      1 RES1    0.0000
     94 H28        4.5940    3.1848   11.8635 H         1 RES1    0.0000
     95 C67        4.3496    2.7283    8.9512 C.ar      1 RES1    0.0000
     96 H29        5.0668    3.1441    9.4123 H         1 RES1    0.0000
     97 C68        6.1068    5.0616    0.7291 C.ar      1 RES1    0.0000
     98 H30        5.8460    4.1495    0.6948 H         1 RES1    0.0000
     99 C69        3.5253    1.5680    5.5050 C.ar      1 RES1    0.0000
    100 C70        2.8661    3.3315   10.8019 C.ar      1 RES1    0.0000
    101 C71        2.3521    1.3358    7.6860 C.ar      1 RES1    0.0000
    102 H31        1.6813    0.7991    7.2806 H         1 RES1    0.0000
    103 C72        4.6104    2.1064    4.8380 C.ar      1 RES1    0.0000
    104 H32        4.6285    2.0486    3.8902 H         1 RES1    0.0000
    105 C73        3.6691   15.4998    8.6767 C.3       1 RES1    0.0000
    106 H33        3.1965   15.6594    9.5324 H         1 RES1    0.0000
    107 H34        3.8789   16.3829    8.2778 H         1 RES1    0.0000
    108 C74       -1.1618   13.2199    2.7621 C.3       1 RES1    0.0000
    109 H35       -1.8282   12.6983    3.2747 H         1 RES1    0.0000
    110 H36       -0.8528   12.6519    2.0137 H         1 RES1    0.0000
    111 C75       -3.0213    5.8174    9.3265 C.3       1 RES1    0.0000
    112 H37       -3.1756    6.2213    8.4344 H         1 RES1    0.0000
    113 H38       -2.9107    4.8440    9.2021 H         1 RES1    0.0000
    114 C76        9.9495   11.2978    2.6185 C.3       1 RES1    0.0000
    115 H39       10.6483   10.6759    2.2989 H         1 RES1    0.0000
    116 H40       10.1812   12.1985    2.2775 H         1 RES1    0.0000
    117 C77        9.2800    4.0187    7.6216 C.3       1 RES1    0.0000
    118 H41        9.0280    4.2483    8.5502 H         1 RES1    0.0000
    119 H42        9.6739    4.8265    7.2056 H         1 RES1    0.0000
    120 C78        4.0672    7.9851   -1.7628 C.3       1 RES1    0.0000
    121 H43        3.4946    7.2616   -1.4068 H         1 RES1    0.0000
    122 H44        3.4889    8.7668   -1.9558 H         1 RES1    0.0000
    123 C79       -1.8756   14.4715    2.1660 C.3       1 RES1    0.0000
    124 H45       -1.2229   14.9765    1.6170 H         1 RES1    0.0000
    125 H46       -2.6015   14.1687    1.5634 H         1 RES1    0.0000
    126 C80       -2.4602   15.3961    3.1975 C.3       1 RES1    0.0000
    127 H47       -1.7266   15.8540    3.6757 H         1 RES1    0.0000
    128 H48       -2.9714   14.8661    3.8580 H         1 RES1    0.0000
    129 C81        4.7240    7.5173   -3.0538 C.3       1 RES1    0.0000
    130 H49        5.3898    6.8141   -2.8479 H         1 RES1    0.0000
    131 H50        5.2004    8.2757   -3.4741 H         1 RES1    0.0000
    132 C82        3.6586    6.9507   -4.0553 C.3       1 RES1    0.0000
    133 H51        3.1880    6.1952   -3.6264 H         1 RES1    0.0000
    134 H52        2.9917    7.6568   -4.2440 H         1 RES1    0.0000
    135 C83        2.4208    0.8950    4.7330 C.3       1 RES1    0.0000
    136 H53        2.1004    0.1017    5.2305 H         1 RES1    0.0000
    137 H54        2.7657    0.5899    3.8558 H         1 RES1    0.0000
    138 C84       -4.2173    6.0702   10.1908 C.3       1 RES1    0.0000
    139 H55       -4.3601    7.0495   10.2572 H         1 RES1    0.0000
    140 H56       -4.0263    5.7360   11.1022 H         1 RES1    0.0000
    141 C85       -3.3878   16.4477    2.5670 C.3       1 RES1    0.0000
    142 H57       -2.8834   16.9524    1.8807 H         1 RES1    0.0000
    143 H58       -4.1345   15.9848    2.1102 H         1 RES1    0.0000
    144 C86        4.2431    6.4857   -5.3420 C.3       1 RES1    0.0000
    145 H59        3.5554    5.9627   -5.8267 H         1 RES1    0.0000
    146 H60        4.9975    5.8784   -5.1447 H         1 RES1    0.0000
    147 C87        4.7471    7.6016   -6.2684 C.3       1 RES1    0.0000
    148 H61        4.0417    8.2902   -6.3735 H         1 RES1    0.0000
    149 H62        5.5399    8.0345   -5.8653 H         1 RES1    0.0000
    150 C88       10.0285   11.3413    4.0231 C.3       1 RES1    0.0000
    151 H63        9.7216   10.4754    4.3920 H         1 RES1    0.0000
    152 H64        9.4178   12.0474    4.3598 H         1 RES1    0.0000
    153 C89       11.5033   11.6377    4.5550 C.3       1 RES1    0.0000
    154 H65       12.1033   10.9287    4.2118 H         1 RES1    0.0000
    155 H66       11.8039   12.4949    4.1689 H         1 RES1    0.0000
    156 C90       11.6521   11.7046    5.9768 C.3       1 RES1    0.0000
    157 H67       11.1597   10.9403    6.3692 H         1 RES1    0.0000
    158 H68       11.2007   12.5298    6.2877 H         1 RES1    0.0000
    159 C91        5.1070    7.0320   -7.6152 C.3       1 RES1    0.0000
    160 H69        5.4205    7.7527   -8.2006 H         1 RES1    0.0000
    161 H70        4.3182    6.6078   -8.0119 H         1 RES1    0.0000
    162 H71        5.8148    6.3666   -7.5080 H         1 RES1    0.0000
    163 C92       13.0947   11.6988    6.5772 C.3       1 RES1    0.0000
    164 H72       13.5670   10.9229    6.1762 H         1 RES1    0.0000
    165 H73       13.5485   12.5095    6.2363 H         1 RES1    0.0000
    166 C93       -3.9463   17.3999    3.5427 C.3       1 RES1    0.0000
    167 H74       -3.5431   18.2513    3.2339 H         1 RES1    0.0000
    168 H75       -4.8913   17.4493    3.2447 H         1 RES1    0.0000
    169 C94       -7.3619    5.3815    7.9840 C.3       1 RES1    0.0000
    170 H76       -7.3363    4.3994    8.0998 H         1 RES1    0.0000
    171 H77       -8.0313    5.7360    8.6210 H         1 RES1    0.0000
    172 C95       -5.4923    5.4309    9.6975 C.3       1 RES1    0.0000
    173 H78       -6.1925    5.5704   10.3838 H         1 RES1    0.0000
    174 H79       -5.3376    4.4546    9.6267 H         1 RES1    0.0000
    175 C96       -6.0289    5.9278    8.3550 C.3       1 RES1    0.0000
    176 H80       -6.0922    6.9158    8.3851 H         1 RES1    0.0000
    177 H81       -5.3838    5.6867    7.6474 H         1 RES1    0.0000
    178 C97       -7.8216    5.6808    6.6030 C.3       1 RES1    0.0000
    179 H82       -8.7230    5.3176    6.4743 H         1 RES1    0.0000
    180 H83       -7.2103    5.2711    5.9596 H         1 RES1    0.0000
    181 H84       -7.8391    6.6514    6.4679 H         1 RES1    0.0000
    182 C98        0.0661    1.3076    3.9009 C.3       1 RES1    0.0000
    183 H85       -0.2476    0.5347    4.4306 H         1 RES1    0.0000
    184 H86        0.2820    0.9938    2.9852 H         1 RES1    0.0000
    185 C99       -4.0531   17.5917    4.5764 C.3       1 RES1    0.0000
    186 H87       -4.3732   18.5070    4.7115 H         1 RES1    0.0000
    187 H88       -3.1853   17.4813    5.0182 H         1 RES1    0.0000
    188 H89       -4.6981   16.9612    4.9624 H         1 RES1    0.0000
    189 C100      10.3317    2.9029    7.6474 C.3       1 RES1    0.0000
    190 H90        9.9573    2.1300    8.1384 H         1 RES1    0.0000
    191 H91       10.5040    2.6123    6.7166 H         1 RES1    0.0000
    192 C101      11.6242    3.2777    8.2693 C.3       1 RES1    0.0000
    193 H92       11.9802    4.0739    7.7996 H         1 RES1    0.0000
    194 H93       12.2661    2.5368    8.1234 H         1 RES1    0.0000
    195 C102       1.2365    1.8859    4.5142 C.3       1 RES1    0.0000
    196 H94        0.9761    2.2636    5.3913 H         1 RES1    0.0000
    197 H95        1.5520    2.6327    3.9481 H         1 RES1    0.0000
    198 C103       3.5691    7.6306   13.6198 C.3       1 RES1    0.0000
    199 H96        3.8401    6.9478   14.2846 H         1 RES1    0.0000
    200 H97        3.2158    8.4123   14.1152 H         1 RES1    0.0000
    201 C104       7.9808    7.2238   15.3741 C.3       1 RES1    0.0000
    202 H98        8.7823    7.4679   14.8486 H         1 RES1    0.0000
    203 H99        7.8660    7.9154   16.0732 H         1 RES1    0.0000
    204 C105       6.6921    7.3023   14.3833 C.3       1 RES1    0.0000
    205 H100       6.9253    6.6892   13.6434 H         1 RES1    0.0000
    206 H101       5.9764    6.8461   14.8894 H         1 RES1    0.0000
    207 C106       8.2757    5.8523   16.0946 C.3       1 RES1    0.0000
    208 H102       9.0318    5.9627   16.7058 H         1 RES1    0.0000
    209 H103       8.4902    5.1723   15.4234 H         1 RES1    0.0000
    210 H104       7.4823    5.5733   16.6007 H         1 RES1    0.0000
    211 C107      11.5731    3.5770    9.7490 C.3       1 RES1    0.0000
    212 H105      11.0688    4.4226    9.8562 H         1 RES1    0.0000
    213 H106      11.0309    2.8651   10.1715 H         1 RES1    0.0000
    214 C108      12.7333    3.6991   10.4910 C.3       1 RES1    0.0000
    215 H107      13.2634    2.8651   10.4267 H         1 RES1    0.0000
    216 H108      12.5098    3.8531   11.4410 H         1 RES1    0.0000
    217 C109       4.9842   14.7673    8.9684 C.3       1 RES1    0.0000
    218 H109       4.7618   13.9159    9.4230 H         1 RES1    0.0000
    219 H110       5.3962   14.5290    8.0977 H         1 RES1    0.0000
    220 C110       6.0084   15.4501    9.7747 C.3       1 RES1    0.0000
    221 H111       5.7099   15.4385   10.7183 H         1 RES1    0.0000
    222 H112       6.0413   16.3945    9.4874 H         1 RES1    0.0000
    223 C111      13.3322   11.6523    7.9004 C.3       1 RES1    0.0000
    224 H113      14.2986   11.6232    8.0591 H         1 RES1    0.0000
    225 H114      12.9161   10.8503    8.2800 H         1 RES1    0.0000
    226 H115      12.9571   12.4484    8.3272 H         1 RES1    0.0000
    227 C112       9.7242   15.5518   10.4931 C.3       1 RES1    0.0000
    228 H116      10.1184   16.1098   11.1944 H         1 RES1    0.0000
    229 H117       9.9957   15.8889    9.6139 H         1 RES1    0.0000
    230 H118      10.0346   14.6278   10.5982 H         1 RES1    0.0000
    231 C113       7.3888   14.9068    9.7275 C.3       1 RES1    0.0000
    232 H119       7.6990   14.9445    8.7882 H         1 RES1    0.0000
    233 H120       7.3516   13.9537    9.9849 H         1 RES1    0.0000
    234 C114       8.4277   15.5838   10.5896 C.3       1 RES1    0.0000
    235 H121       8.1946   16.5427   10.5660 H         1 RES1    0.0000
    236 H122       8.2337   15.2787   11.5096 H         1 RES1    0.0000
    237 C115       4.8188    8.0694   12.8071 C.3       1 RES1    0.0000
    238 H123       5.0954    7.3284   12.2130 H         1 RES1    0.0000
    239 H124       4.5790    8.8423   12.2366 H         1 RES1    0.0000
    240 C116       5.9736    8.4501   13.6906 C.3       1 RES1    0.0000
    241 H125       5.6412    9.0719   14.3854 H         1 RES1    0.0000
    242 H126       6.6331    8.9441   13.1416 H         1 RES1    0.0000
    243 C117      13.4817    4.7800    9.9956 C.3       1 RES1    0.0000
    244 H127      14.2439    4.4430    9.4831 H         1 RES1    0.0000
    245 H128      13.8053    5.3234   10.7440 H         1 RES1    0.0000
    246 H129      12.9155    5.3321    9.4144 H         1 RES1    0.0000
    247 C118      -1.1748    2.5571    3.8408 C.3       1 RES1    0.0000
    248 H130      -1.6200    2.6966    4.7158 H         1 RES1    0.0000
    249 H131      -0.8386    3.4143    3.4827 H         1 RES1    0.0000
    250 C119      -2.1571    1.7115    2.7235 C.3       1 RES1    0.0000
    251 H132      -2.3273    0.7584    2.9358 H         1 RES1    0.0000
    252 H133      -1.9808    1.8859    1.7735 H         1 RES1    0.0000
    253 C120      -3.0572    2.7867    3.4999 C.3       1 RES1    0.0000
    254 H134      -3.9948    2.6675    3.2404 H         1 RES1    0.0000
    255 H135      -2.7657    3.6904    3.2640 H         1 RES1    0.0000
    256 H136      -2.9706    2.6559    4.4670 H         1 RES1    0.0000
@<TRIPOS>BOND
     1    1    2 ar
     2    2    3 1
     3    4    1 ar
     4    5   38 ar
     5    6   33 ar
     6    7   18 ar
     7    8   10 ar
     8    9    2 ar
     9   10   71 ar
    10   11   12 1
    11   13   14 1
    12   15    1 ar
    13   16    9 ar
    14   17    4 ar
    15   18   23 ar
    16   19   20 1
    17   21   16 ar
    18   22   21 1
    19   23   38 ar
    20   24   74 ar
    21   25   13 ar
    22   26   45 1
    23   27   15 ar
    24   28    7 ar
    25   29   28 1
    26   30   19 ar
    27   31    8 ar
    28   32   31 1
    29   33    8 ar
    30   34   35 1
    31   36   37 ar
    32   37   11 ar
    33   38   39 1
    34   40    5 ar
    35   41   17 ar
    36   42   41 1
    37   43   21 ar
    38   44   43 1
    39   45   34 ar
    40   46    4 ar
    41   47   46 1
    42   48   43 ar
    43   49   30 ar
    44   50   49 ar
    45   51   50 1
    46   52   74 ar
    47   53   19 ar
    48   54   53 1
    49   55   18 ar
    50   56   55 1
    51   57   31 ar
    52   58   27 ar
    53   59   58 1
    54   60   28 ar
    55   61    6 ar
    56   62   61 1
    57   63    6 ar
    58   64   65 1
    59   66   57 ar
    60   67   66 1
    61   68    5 ar
    62   69   26 ar
    63   70   69 1
    64   71   61 ar
    65   72   36 ar
    66   73   72 1
    67   74   90 ar
    68   75   64 ar
    69   76   60 1
    70   77   52 ar
    71   78   24 ar
    72   79   64 ar
    73   80   79 1
    74   81   82 1
    75   83   10 ar
    76   84   83 1
    77   85   75 ar
    78   86   76 ar
    79   87   86 1
    80   88   63 ar
    81   89   88 1
    82   90   85 ar
    83   91   90 1
    84   92   81 ar
    85   93   72 ar
    86   94   93 1
    87   95   24 ar
    88   96   95 1
    89   97   55 ar
    90   98   97 1
    91   99   78 ar
    92  100   88 ar
    93  101   78 ar
    94  102  101 1
    95  103   52 ar
    96  104  103 1
    97  105    9 1
    98  106  105 1
    99  107  105 1
   100  108   25 1
   101  109  108 1
   102  110  108 1
   103  111   71 1
   104  112  111 1
   105  113  111 1
   106  114   49 1
   107  115  114 1
   108  116  114 1
   109  117   85 1
   110  118  117 1
   111  119  117 1
   112  120   23 1
   113  121  120 1
   114  122  120 1
   115  123  108 1
   116  124  123 1
   117  125  123 1
   118  126  123 1
   119  127  126 1
   120  128  126 1
   121  129  120 1
   122  130  129 1
   123  131  129 1
   124  132  129 1
   125  133  132 1
   126  134  132 1
   127  135   99 1
   128  136  135 1
   129  137  135 1
   130  138  111 1
   131  139  138 1
   132  140  138 1
   133  141  126 1
   134  142  141 1
   135  143  141 1
   136  144  132 1
   137  145  144 1
   138  146  144 1
   139  147  144 1
   140  148  147 1
   141  149  147 1
   142  150  114 1
   143  151  150 1
   144  152  150 1
   145  153  150 1
   146  154  153 1
   147  155  153 1
   148  156  153 1
   149  157  156 1
   150  158  156 1
   151  159  147 1
   152  160  159 1
   153  161  159 1
   154  162  159 1
   155  163  156 1
   156  164  163 1
   157  165  163 1
   158  166  141 1
   159  167  166 1
   160  168  166 1
   161  169  170 1
   162  171  169 1
   163  172  138 1
   164  173  172 1
   165  174  172 1
   166  175  169 1
   167  176  175 1
   168  177  175 1
   169  178  169 1
   170  179  178 1
   171  180  178 1
   172  181  178 1
   173  182  183 1
   174  184  182 1
   175  185  166 1
   176  186  185 1
   177  187  185 1
   178  188  185 1
   179  189  117 1
   180  190  189 1
   181  191  189 1
   182  192  189 1
   183  193  192 1
   184  194  192 1
   185  195  135 1
   186  196  195 1
   187  197  195 1
   188  198   37 1
   189  199  198 1
   190  200  198 1
   191  201  202 1
   192  203  201 1
   193  204  201 1
   194  205  204 1
   195  206  204 1
   196  207  201 1
   197  208  207 1
   198  209  207 1
   199  210  207 1
   200  211  192 1
   201  212  211 1
   202  213  211 1
   203  214  211 1
   204  215  214 1
   205  216  214 1
   206  217  105 1
   207  218  217 1
   208  219  217 1
   209  220  217 1
   210  221  220 1
   211  222  220 1
   212  223  163 1
   213  224  223 1
   214  225  223 1
   215  226  223 1
   216  227  228 1
   217  229  227 1
   218  230  227 1
   219  231  220 1
   220  232  231 1
   221  233  231 1
   222  234  227 1
   223  235  234 1
   224  236  234 1
   225  237  198 1
   226  238  237 1
   227  239  237 1
   228  240  204 1
   229  241  240 1
   230  242  240 1
   231  243  214 1
   232  244  243 1
   233  245  243 1
   234  246  243 1
   235  247  182 1
   236  248  247 1
   237  249  247 1
   238  250  247 1
   239  251  250 1
   240  252  250 1
   241  253  250 1
   242  254  253 1
   243  255  253 1
   244  256  253 1
   245    7   68 ar
   246   11   33 ar
   247   13   15 ar
   248   16   27 ar
   249   17   25 ar
   250   26   53 ar
   251   30   40 ar
   252   34   41 ar
   253   36   63 ar
   254   40   69 ar
   255   45   46 ar
   256   48   57 1
   257   48   58 ar
   258   50   68 ar
   259   60   97 ar
   260   66   83 ar
   261   75   77 ar
   262   76   79 ar
   263   77   86 ar
   264   81  101 ar
   265   92   95 ar
   266   92  100 1
   267   93  100 ar
   268   99  103 ar
   269  172  175 1
   270  182  195 1
   271  231  234 1
   272  237  240 1
@<TRIPOS>SUBSTRUCTURE
     1 RES1 1

@<TRIPOS>CRYSIN
  33.7620   29.0580   23.2610  90.0000 112.7890  90.0000  15 1

