# MOL2 file generated by ConQuest
# Please check atom types

@<TRIPOS>MOLECULE
WEVVOI
    62    66     1
SMALL
NO_CHARGES
****
Generated from CSD

@<TRIPOS>ATOM
      1 C1         2.6030    6.1206   14.5384 C.3       1 RES1    0.0000
      2 H1         1.9246    6.2620   15.2176 H         1 RES1    0.0000
      3 H2         2.2294    5.5391   13.8570 H         1 RES1    0.0000
      4 C2         2.9963    7.4980   13.8955 C.3       1 RES1    0.0000
      5 H3         2.4518    7.6416   13.1058 H         1 RES1    0.0000
      6 H4         2.7940    8.2060   14.5260 H         1 RES1    0.0000
      7 C3         4.4616    7.5937   13.5042 C.ar      1 RES1    0.0000
      8 C4         5.0189    6.7785   12.4819 C.ar      1 RES1    0.0000
      9 C5         4.1755    6.0807   11.5690 C.ar      1 RES1    0.0000
     10 H5         3.2751    6.3087   11.5236 H         1 RES1    0.0000
     11 C6         4.6390    5.1047   10.7734 C.ar      1 RES1    0.0000
     12 H6         4.0364    4.6087   10.2688 H         1 RES1    0.0000
     13 C7         6.0417    4.8048   10.6782 C.ar      1 RES1    0.0000
     14 C8         6.5242    3.7627    9.8315 C.ar      1 RES1    0.0000
     15 C9         7.8764    3.6680    9.6533 C.ar      1 RES1    0.0000
     16 H7         8.2283    2.9463    9.1826 H         1 RES1    0.0000
     17 C10        8.7354    4.6383   10.1679 C.ar      1 RES1    0.0000
     18 H8         9.6376    4.5927    9.9495 H         1 RES1    0.0000
     19 C11        8.3094    5.6577   10.9814 C.ar      1 RES1    0.0000
     20 C12        6.9409    5.6508   11.3864 C.ar      1 RES1    0.0000
     21 C13        6.4164    6.5089   12.4481 C.ar      1 RES1    0.0000
     22 C14        7.2040    6.9415   13.5576 C.ar      1 RES1    0.0000
     23 C15        6.6845    7.9369   14.3538 C.ar      1 RES1    0.0000
     24 H9         7.2493    8.3907   14.9372 H         1 RES1    0.0000
     25 C16        5.3357    8.2836   14.3091 C.ar      1 RES1    0.0000
     26 H10        5.0240    8.9882   14.8295 H         1 RES1    0.0000
     27 C17        8.3710    6.1286   14.0940 C.3       1 RES1    0.0000
     28 H11        9.1142    6.7249   14.2744 H         1 RES1    0.0000
     29 H12        8.6559    5.4980   13.4139 H         1 RES1    0.0000
     30 C18        8.0184    5.3396   15.4080 C.3       1 RES1    0.0000
     31 H13        8.4831    4.4878   15.4000 H         1 RES1    0.0000
     32 H14        8.3347    5.8435   16.1742 H         1 RES1    0.0000
     33 C19        6.5459    5.0910   15.5594 C.ar      1 RES1    0.0000
     34 C20        5.7833    5.8207   16.4696 C.ar      1 RES1    0.0000
     35 H15        6.1914    6.1879   17.2199 H         1 RES1    0.0000
     36 C21        4.4291    6.0043   16.2713 C.ar      1 RES1    0.0000
     37 H16        3.9328    6.4946   16.8859 H         1 RES1    0.0000
     38 C22        3.8054    5.4581   15.1588 C.ar      1 RES1    0.0000
     39 C23        4.5113    4.5106   14.4359 C.ar      1 RES1    0.0000
     40 H17        4.0658    3.9884   13.8085 H         1 RES1    0.0000
     41 C24        5.8623    4.3293   14.6314 C.ar      1 RES1    0.0000
     42 H18        6.3181    3.6885   14.1349 H         1 RES1    0.0000
     43 C25        5.5600    2.8140    9.1383 C.3       1 RES1    0.0000
     44 H19        4.8987    3.3647    8.6703 H         1 RES1    0.0000
     45 C26        6.2169    1.9155    8.0959 C.3       1 RES1    0.0000
     46 H20        5.5403    1.4161    7.6329 H         1 RES1    0.0000
     47 H21        6.8205    1.3089    8.5310 H         1 RES1    0.0000
     48 H22        6.7026    2.4549    7.4687 H         1 RES1    0.0000
     49 C27        4.7992    1.9463   10.1426 C.3       1 RES1    0.0000
     50 H23        4.1302    1.4355    9.6816 H         1 RES1    0.0000
     51 H24        4.3778    2.5096   10.7962 H         1 RES1    0.0000
     52 H25        5.4114    1.3511   10.5809 H         1 RES1    0.0000
     53 C28        9.2237    6.8640   11.1806 C.3       1 RES1    0.0000
     54 H26        8.8794    7.3805   11.9391 H         1 RES1    0.0000
     55 C29        9.1236    7.7408    9.9346 C.3       1 RES1    0.0000
     56 H27        9.7184    8.4899   10.0227 H         1 RES1    0.0000
     57 H28        8.2229    8.0578    9.8366 H         1 RES1    0.0000
     58 H29        9.3679    7.2277    9.1613 H         1 RES1    0.0000
     59 C30       10.6777    6.5174   11.4747 C.3       1 RES1    0.0000
     60 H30       11.1711    7.3235   11.6445 H         1 RES1    0.0000
     61 H31       11.0576    6.0636   10.7196 H         1 RES1    0.0000
     62 H32       10.7213    5.9473   12.2465 H         1 RES1    0.0000
@<TRIPOS>BOND
     1    1    2 1
     2    3    1 1
     3    4    1 1
     4    5    4 1
     5    6    4 1
     6    7    4 1
     7    8    7 ar
     8    9    8 ar
     9   10    9 1
    10   11    9 ar
    11   12   11 1
    12   13   11 ar
    13   14   13 ar
    14   15   14 ar
    15   16   15 1
    16   17   15 ar
    17   18   17 1
    18   19   17 ar
    19   20   13 ar
    20   21    8 ar
    21   22   21 ar
    22   23   22 ar
    23   24   23 1
    24   25    7 ar
    25   26   25 1
    26   27   22 1
    27   28   27 1
    28   29   27 1
    29   30   27 1
    30   31   30 1
    31   32   30 1
    32   33   30 1
    33   34   33 ar
    34   35   34 1
    35   36   34 ar
    36   37   36 1
    37   38    1 1
    38   39   38 ar
    39   40   39 1
    40   41   33 ar
    41   42   41 1
    42   43   14 1
    43   44   43 1
    44   45   43 1
    45   46   45 1
    46   47   45 1
    47   48   45 1
    48   49   43 1
    49   50   49 1
    50   51   49 1
    51   52   49 1
    52   53   19 1
    53   54   53 1
    54   55   53 1
    55   56   55 1
    56   57   55 1
    57   58   55 1
    58   59   53 1
    59   60   59 1
    60   61   59 1
    61   62   59 1
    62   19   20 ar
    63   20   21 ar
    64   23   25 ar
    65   36   38 ar
    66   39   41 ar
@<TRIPOS>SUBSTRUCTURE
     1 RES1 1

@<TRIPOS>CRYSIN
  10.7790   11.4020   18.2450  90.0000  90.8500  90.0000 231 1

