# MOL2 file generated by ConQuest
# Please check atom types

@<TRIPOS>MOLECULE
WEXDOS
    42    51     1
SMALL
NO_CHARGES
****
Generated from CSD

@<TRIPOS>ATOM
      1 C1         0.3237    4.9698   17.3290 C.ar      1 RES1    0.0000
      2 C2         0.4982    4.0492   18.4051 C.ar      1 RES1    0.0000
      3 C3        -0.5994    3.8798   19.2913 C.ar      1 RES1    0.0000
      4 C4        -1.8368    4.5687   19.1445 C.ar      1 RES1    0.0000
      5 C5        -1.9354    5.4762   18.0532 C.ar      1 RES1    0.0000
      6 C6        -0.8671    5.6817   17.1113 C.ar      1 RES1    0.0000
      7 C7         1.5145    5.2197   16.4074 C.ar      1 RES1    0.0000
      8 C8         2.7186    5.5995   16.9796 C.ar      1 RES1    0.0000
      9 C9         3.8521    5.9710   16.1694 C.ar      1 RES1    0.0000
     10 C10        3.7056    5.9118   14.7540 C.ar      1 RES1    0.0000
     11 C11        2.4575    5.4614   12.8195 C.ar      1 RES1    0.0000
     12 C12        1.3800    5.0208   12.1055 C.ar      1 RES1    0.0000
     13 C13        0.2384    4.6098   12.8752 C.ar      1 RES1    0.0000
     14 C14        0.1625    4.6081   14.2957 C.ar      1 RES1    0.0000
     15 C15        4.5514    6.2045   13.5791 C.2       1 RES1    0.0000
     16 C16        3.8282    5.9546   12.4271 C.2       1 RES1    0.0000
     17 C17        2.4389    5.4647   14.2552 C.ar      1 RES1    0.0000
     18 C18        1.3280    5.1178   15.0046 C.ar      1 RES1    0.0000
     19 C19       -0.4968    2.9806   20.4535 C.ar      1 RES1    0.0000
     20 C20       -1.4838    1.9843   20.6611 C.ar      1 RES1    0.0000
     21 C21       -1.3493    0.9848   21.6790 C.ar      1 RES1    0.0000
     22 C22       -0.2118    0.9354   22.4487 C.ar      1 RES1    0.0000
     23 C23        1.8741    1.8084   23.1273 C.ar      1 RES1    0.0000
     24 C24        2.9357    2.7488   23.1020 C.ar      1 RES1    0.0000
     25 C25        2.8132    3.8733   22.1474 C.ar      1 RES1    0.0000
     26 C26        1.7542    4.0097   21.2663 C.ar      1 RES1    0.0000
     27 C27        0.3144    0.1348   23.5881 C.2       1 RES1    0.0000
     28 C28        1.5265    0.6379   23.9780 C.2       1 RES1    0.0000
     29 C29        0.7779    1.9514   22.2107 C.ar      1 RES1    0.0000
     30 C30        0.6713    3.0282   21.2764 C.ar      1 RES1    0.0000
     31 C31       -3.1755    6.3689   17.9443 C.ar      1 RES1    0.0000
     32 C32       -3.6936    6.9640   19.1495 C.ar      1 RES1    0.0000
     33 C33       -4.8378    7.8485   19.1293 C.ar      1 RES1    0.0000
     34 C34       -5.4279    8.0918   17.8810 C.ar      1 RES1    0.0000
     35 C35       -5.6184    7.8978   15.5591 C.ar      1 RES1    0.0000
     36 C36       -5.2374    7.3503   14.3311 C.ar      1 RES1    0.0000
     37 C37       -4.1598    6.4609   14.2729 C.ar      1 RES1    0.0000
     38 C38       -3.4246    6.0285   15.4022 C.ar      1 RES1    0.0000
     39 C39       -6.5601    8.9466   17.4252 C.2       1 RES1    0.0000
     40 C40       -6.6813    8.8513   16.0200 C.2       1 RES1    0.0000
     41 C41       -4.8765    7.4835   16.7061 C.ar      1 RES1    0.0000
     42 C42       -3.8015    6.5727   16.6859 C.ar      1 RES1    0.0000
@<TRIPOS>BOND
     1    1    2 ar
     2    2    3 ar
     3    3    4 ar
     4    4    5 ar
     5    5    6 ar
     6    6    1 ar
     7    7    1 1
     8    8    7 ar
     9    9    8 ar
    10   10    9 ar
    11   11   12 ar
    12   12   13 ar
    13   13   14 ar
    14   14   18 ar
    15   15   10 1
    16   16   11 1
    17   17   10 ar
    18   18    7 ar
    19   19    3 1
    20   20   19 ar
    21   21   20 ar
    22   22   21 ar
    23   23   24 ar
    24   24   25 ar
    25   25   26 ar
    26   26   30 ar
    27   27   22 1
    28   28   23 1
    29   29   22 ar
    30   30   19 ar
    31   31    5 1
    32   32   31 ar
    33   33   32 ar
    34   34   33 ar
    35   35   36 ar
    36   36   37 ar
    37   37   38 ar
    38   38   42 ar
    39   39   34 1
    40   40   35 1
    41   41   34 ar
    42   42   31 ar
    43   11   17 ar
    44   15   16 2
    45   17   18 ar
    46   23   29 ar
    47   27   28 2
    48   29   30 ar
    49   35   41 ar
    50   39   40 2
    51   41   42 ar
@<TRIPOS>SUBSTRUCTURE
     1 RES1 1

@<TRIPOS>CRYSIN
  13.3200   16.4400   25.3200  90.0000  90.0000  90.0000  61 3

