# MOL2 file generated by ConQuest
# Please check atom types

@<TRIPOS>MOLECULE
WILKOS
    33    36     1
SMALL
NO_CHARGES
****
Generated from CSD

@<TRIPOS>ATOM
      1 C1         1.5027    8.0346    8.0366 C.ar      1 RES1    0.0000
      2 C2         1.3620    9.1099    7.1861 C.ar      1 RES1    0.0000
      3 C3         2.4891    9.7317    6.6179 C.ar      1 RES1    0.0000
      4 C4         3.7536    9.2129    6.8302 C.ar      1 RES1    0.0000
      5 C5         5.1894    7.4423    7.7962 C.ar      1 RES1    0.0000
      6 C6         5.3337    6.2973    8.5256 C.ar      1 RES1    0.0000
      7 C7         4.4406    4.5489   10.0002 C.ar      1 RES1    0.0000
      8 C8         3.4219    3.9751   10.6993 C.ar      1 RES1    0.0000
      9 C9         1.1572    4.0978   11.6578 C.ar      1 RES1    0.0000
     10 C10        0.0015    4.7923   11.9326 C.ar      1 RES1    0.0000
     11 C11       -0.1455    6.1020   11.4323 C.ar      1 RES1    0.0000
     12 C12        0.8217    6.6553   10.6119 C.ar      1 RES1    0.0000
     13 C13        4.9316    9.8044    6.1074 C.3       1 RES1    0.0000
     14 C14        3.9133    8.0795    7.6837 C.ar      1 RES1    0.0000
     15 C15        2.7873    7.5278    8.3737 C.ar      1 RES1    0.0000
     16 C16        4.2436    5.7683    9.2828 C.ar      1 RES1    0.0000
     17 C17        2.9883    6.4213    9.2943 C.ar      1 RES1    0.0000
     18 C18        2.1701    4.6595   10.8398 C.ar      1 RES1    0.0000
     19 C19        1.9751    5.9231   10.2156 C.ar      1 RES1    0.0000
     20 H1         0.6125    7.5183    8.3741 H         1 RES1    0.0000
     21 H2         0.3772    9.4545    6.8957 H         1 RES1    0.0000
     22 H3         2.4184   10.5953    5.9682 H         1 RES1    0.0000
     23 H4         6.0324    7.8327    7.2397 H         1 RES1    0.0000
     24 H5         6.2787    5.7690    8.5537 H         1 RES1    0.0000
     25 H6         5.4111    4.0704    9.9565 H         1 RES1    0.0000
     26 H7         3.5386    3.0191   11.1946 H         1 RES1    0.0000
     27 H8         1.3122    3.1176   12.0915 H         1 RES1    0.0000
     28 H9        -0.7659    4.3565   12.5605 H         1 RES1    0.0000
     29 H10       -0.9692    6.7388   11.7305 H         1 RES1    0.0000
     30 H11        0.7290    7.6885   10.3007 H         1 RES1    0.0000
     31 H12        5.6864   10.1271    6.7764 H         1 RES1    0.0000
     32 H13        4.6122   10.6446    5.5477 H         1 RES1    0.0000
     33 H14        5.4086    9.1333    5.4414 H         1 RES1    0.0000
@<TRIPOS>BOND
     1    1    2 ar
     2    2    3 ar
     3    3    4 ar
     4    4   13 1
     5    5    6 ar
     6    6   16 ar
     7    7    8 ar
     8    8   18 ar
     9    9   10 ar
    10   10   11 ar
    11   11   12 ar
    12   12   19 ar
    13   13   31 1
    14   14    4 ar
    15   15    1 ar
    16   16    7 ar
    17   17   15 ar
    18   18    9 ar
    19   19   17 ar
    20   20    1 1
    21   21    2 1
    22   22    3 1
    23   23    5 1
    24   24    6 1
    25   25    7 1
    26   26    8 1
    27   27    9 1
    28   28   10 1
    29   29   11 1
    30   30   12 1
    31   32   13 1
    32   33   13 1
    33    5   14 ar
    34   14   15 ar
    35   16   17 ar
    36   18   19 ar
@<TRIPOS>SUBSTRUCTURE
     1 RES1 1

@<TRIPOS>CRYSIN
   7.5875   11.1085   14.9042  90.0000  92.7720  90.0000  14 1

