# MOL2 file generated by ConQuest
# Please check atom types

@<TRIPOS>MOLECULE
WIWZIM
   138   152     2
SMALL
NO_CHARGES
****
Generated from CSD

@<TRIPOS>ATOM
      1 C1         0.8414   10.4817    7.8650 C.ar      1 RES1    0.0000
      2 C2         1.1217   11.6269    8.8241 C.3       1 RES1    0.0000
      3 H1         1.3061   12.4475    8.3414 H         1 RES1    0.0000
      4 H2         0.3694   11.7734    9.4204 H         1 RES1    0.0000
      5 C3         2.3188   11.1727    9.5797 C.ar      1 RES1    0.0000
      6 C4         2.9455   11.8070   10.6440 C.ar      1 RES1    0.0000
      7 H3         2.6616   12.6465   10.9290 H         1 RES1    0.0000
      8 C5         3.9959   11.1714   11.2718 C.ar      1 RES1    0.0000
      9 H4         4.4315   11.5910   11.9789 H         1 RES1    0.0000
     10 C6         4.4034    9.9304   10.8667 C.ar      1 RES1    0.0000
     11 H5         5.0978    9.5071   11.3184 H         1 RES1    0.0000
     12 C7         3.8032    9.2939    9.8017 C.ar      1 RES1    0.0000
     13 H6         4.0869    8.4490    9.5351 H         1 RES1    0.0000
     14 C8         2.7625    9.9390    9.1278 C.ar      1 RES1    0.0000
     15 C9         1.9111    9.5362    7.9905 C.ar      1 RES1    0.0000
     16 C10        2.0066    8.4439    7.1522 C.ar      1 RES1    0.0000
     17 C11        0.9322    8.2049    6.2520 C.ar      1 RES1    0.0000
     18 C12        0.9705    7.0973    5.3011 C.ar      1 RES1    0.0000
     19 C13        2.1532    6.6408    4.6251 C.ar      1 RES1    0.0000
     20 C14        3.2790    7.4907    4.2679 C.ar      1 RES1    0.0000
     21 C15        3.2202    8.9011    4.2924 C.ar      1 RES1    0.0000
     22 H7         2.4494    9.3186    4.6038 H         1 RES1    0.0000
     23 C16        4.2692    9.6667    3.8701 C.ar      1 RES1    0.0000
     24 H8         4.1982   10.5947    3.8832 H         1 RES1    0.0000
     25 C17        5.4495    9.0667    3.4175 C.ar      1 RES1    0.0000
     26 H9         6.1749    9.5909    3.1644 H         1 RES1    0.0000
     27 C18        5.5250    7.7242    3.3509 C.ar      1 RES1    0.0000
     28 H10        6.3111    7.3312    3.0461 H         1 RES1    0.0000
     29 C19        4.4468    6.8943    3.7291 C.ar      1 RES1    0.0000
     30 C20        4.4737    5.4930    3.4954 C.ar      1 RES1    0.0000
     31 H11        5.2704    5.0862    3.2390 H         1 RES1    0.0000
     32 C21        3.3742    4.7524    3.6373 C.ar      1 RES1    0.0000
     33 H12        3.4002    3.8519    3.4082 H         1 RES1    0.0000
     34 C22        2.1590    5.3109    4.1316 C.ar      1 RES1    0.0000
     35 C23        0.9503    4.5713    4.0964 C.ar      1 RES1    0.0000
     36 H13        0.9634    3.6836    3.8213 H         1 RES1    0.0000
     37 C24       -0.2118    5.1352    4.4553 C.ar      1 RES1    0.0000
     38 H14       -1.0087    4.6794    4.3090 H         1 RES1    0.0000
     39 C25       -0.2402    6.4199    5.0563 C.ar      1 RES1    0.0000
     40 C26       -1.4419    7.0520    5.4095 C.ar      1 RES1    0.0000
     41 H15       -2.2447    6.6003    5.2807 H         1 RES1    0.0000
     42 C27       -1.4648    8.2991    5.9303 C.ar      1 RES1    0.0000
     43 H16       -2.2772    8.7481    5.9940 H         1 RES1    0.0000
     44 C28       -0.2674    8.9525    6.3909 C.ar      1 RES1    0.0000
     45 C29       -0.2726   10.2175    7.0851 C.ar      1 RES1    0.0000
     46 C30        3.0907    7.4336    7.3378 C.ar      1 RES1    0.0000
     47 C31        2.7472    6.1563    7.7673 C.ar      1 RES1    0.0000
     48 H17        1.8512    5.9317    7.8810 H         1 RES1    0.0000
     49 C32        3.7253    5.2201    8.0264 C.ar      1 RES1    0.0000
     50 H18        3.4840    4.3681    8.3104 H         1 RES1    0.0000
     51 C33        5.0471    5.5343    7.8705 C.ar      1 RES1    0.0000
     52 H19        5.7035    4.9001    8.0521 H         1 RES1    0.0000
     53 C34        5.4019    6.7949    7.4416 C.ar      1 RES1    0.0000
     54 H20        6.3004    7.0140    7.3387 H         1 RES1    0.0000
     55 C35        4.4337    7.7258    7.1657 C.ar      1 RES1    0.0000
     56 H21        4.6827    8.5669    6.8583 H         1 RES1    0.0000
     57 C36       -1.4975   11.1573    6.9646 C.3       1 RES1    0.0000
     58 C37       -2.6345   10.6929    7.8850 C.3       1 RES1    0.0000
     59 H22       -3.4092   11.2404    7.7373 H         1 RES1    0.0000
     60 H23       -2.3567   10.7706    8.7999 H         1 RES1    0.0000
     61 H24       -2.8485    9.7776    7.6918 H         1 RES1    0.0000
     62 C38       -1.9550   11.2478    5.4916 C.3       1 RES1    0.0000
     63 H25       -2.2536   10.3844    5.1970 H         1 RES1    0.0000
     64 H26       -1.2193   11.5350    4.9459 H         1 RES1    0.0000
     65 H27       -2.6741   11.8775    5.4172 H         1 RES1    0.0000
     66 C39       -1.2006   12.6204    7.3469 C.3       1 RES1    0.0000
     67 H28       -1.9434   13.1738    7.0949 H         1 RES1    0.0000
     68 H29       -0.4106   12.9164    6.8893 H         1 RES1    0.0000
     69 H30       -1.0636   12.6823    8.2959 H         1 RES1    0.0000
     70 C40        2.4174   10.8406    1.0707 C.ar      2 RES2    0.0000
     71 C41        3.4898   10.0547    0.3441 C.3       2 RES2    0.0000
     72 H31        3.8396    9.3432    0.9044 H         2 RES2    0.0000
     73 H32        3.1429    9.6684   -0.4749 H         2 RES2    0.0000
     74 C42        4.5464   11.0760    0.0517 C.ar      2 RES2    0.0000
     75 C43        5.6805   10.9234   -0.7106 C.ar      2 RES2    0.0000
     76 H33        5.9216   10.0857   -1.0354 H         2 RES2    0.0000
     77 C44        6.4564   12.0279   -0.9857 C.ar      2 RES2    0.0000
     78 H34        7.2341   11.9354   -1.4867 H         2 RES2    0.0000
     79 C45        6.0823   13.2670   -0.5217 C.ar      2 RES2    0.0000
     80 H35        6.5926   14.0102   -0.7497 H         2 RES2    0.0000
     81 C46        4.9653   13.4344    0.2780 C.ar      2 RES2    0.0000
     82 H36        4.7330   14.2754    0.6005 H         2 RES2    0.0000
     83 C47        4.1937   12.3151    0.5908 C.ar      2 RES2    0.0000
     84 C48        2.9220   12.1546    1.3242 C.ar      2 RES2    0.0000
     85 C49        2.2346   13.0563    2.1099 C.ar      2 RES2    0.0000
     86 C50        0.9106   12.7012    2.5086 C.ar      2 RES2    0.0000
     87 C51        0.1014   13.5712    3.3506 C.ar      2 RES2    0.0000
     88 C52        0.5968   14.3747    4.4360 C.ar      2 RES2    0.0000
     89 C53        1.7521   14.0254    5.2488 C.ar      2 RES2    0.0000
     90 C54        2.3402   12.7449    5.2534 C.ar      2 RES2    0.0000
     91 H37        2.0190   12.0968    4.6675 H         2 RES2    0.0000
     92 C55        3.3675   12.4296    6.0944 C.ar      2 RES2    0.0000
     93 H38        3.7301   11.5733    6.0813 H         2 RES2    0.0000
     94 C56        3.8769   13.3852    6.9719 C.ar      2 RES2    0.0000
     95 H39        4.6005   13.1809    7.5189 H         2 RES2    0.0000
     96 C57        3.3157   14.6076    7.0228 C.ar      2 RES2    0.0000
     97 H40        3.6582   15.2365    7.6153 H         2 RES2    0.0000
     98 C58        2.2278   14.9589    6.2093 C.ar      2 RES2    0.0000
     99 C59        1.5336   16.1926    6.3738 C.ar      2 RES2    0.0000
    100 H41        1.9002   16.8562    6.9129 H         2 RES2    0.0000
    101 C60        0.3551   16.4138    5.7618 C.ar      2 RES2    0.0000
    102 H42       -0.1151   17.1938    5.9467 H         2 RES2    0.0000
    103 C61       -0.1785   15.4811    4.8443 C.ar      2 RES2    0.0000
    104 C62       -1.5145   15.6127    4.3652 C.ar      2 RES2    0.0000
    105 H43       -2.0131   16.3628    4.5965 H         2 RES2    0.0000
    106 C63       -2.0640   14.6674    3.5835 C.ar      2 RES2    0.0000
    107 H44       -2.9719   14.7056    3.3864 H         2 RES2    0.0000
    108 C64       -1.2853   13.6235    3.0616 C.ar      2 RES2    0.0000
    109 C65       -1.8581   12.6066    2.2724 C.ar      2 RES2    0.0000
    110 H45       -2.7596   12.6541    2.0526 H         2 RES2    0.0000
    111 C66       -1.1290   11.5680    1.8311 C.ar      2 RES2    0.0000
    112 H46       -1.5645   10.8411    1.4485 H         2 RES2    0.0000
    113 C67        0.3030   11.5498    1.9330 C.ar      2 RES2    0.0000
    114 C68        1.1073   10.5072    1.3557 C.ar      2 RES2    0.0000
    115 C69        2.7547   14.4389    2.3386 C.ar      2 RES2    0.0000
    116 C70        2.1038   15.5127    1.7471 C.ar      2 RES2    0.0000
    117 H47        1.3338   15.3636    1.2465 H         2 RES2    0.0000
    118 C71        2.5833   16.7981    1.8901 C.ar      2 RES2    0.0000
    119 H48        2.1398   17.5071    1.4830 H         2 RES2    0.0000
    120 C72        3.7128   17.0329    2.6336 C.ar      2 RES2    0.0000
    121 H49        4.0339   17.9004    2.7331 H         2 RES2    0.0000
    122 C73        4.3652   15.9856    3.2296 C.ar      2 RES2    0.0000
    123 H50        5.1242   16.1462    3.7412 H         2 RES2    0.0000
    124 C74        3.9001   14.6905    3.0758 C.ar      2 RES2    0.0000
    125 H51        4.3608   13.9848    3.4701 H         2 RES2    0.0000
    126 C75        0.4722    9.1231    1.0454 C.3       2 RES2    0.0000
    127 C76       -0.3189    9.1895   -0.2757 C.3       2 RES2    0.0000
    128 H52        0.2673    9.4610   -0.9863 H         2 RES2    0.0000
    129 H53       -1.0327    9.8245   -0.1892 H         2 RES2    0.0000
    130 H54       -0.6818    8.3234   -0.4749 H         2 RES2    0.0000
    131 C77       -0.4190    8.6572    2.2191 C.3       2 RES2    0.0000
    132 H55       -0.7115    7.7563    2.0599 H         2 RES2    0.0000
    133 H56       -1.1826    9.2338    2.2891 H         2 RES2    0.0000
    134 H57        0.0838    8.6904    3.0352 H         2 RES2    0.0000
    135 C78        1.4944    7.9903    0.8909 C.3       2 RES2    0.0000
    136 H58        1.9744    8.1031    0.0673 H         2 RES2    0.0000
    137 H59        1.0371    7.1453    0.8825 H         2 RES2    0.0000
    138 H60        2.1104    8.0137    1.6268 H         2 RES2    0.0000
@<TRIPOS>BOND
     1    1    2 1
     2    2    3 1
     3    4    2 1
     4    5    2 1
     5    6    5 ar
     6    7    6 1
     7    8    6 ar
     8    9    8 1
     9   10    8 ar
    10   11   10 1
    11   12   10 ar
    12   13   12 1
    13   14    5 ar
    14   15    1 ar
    15   16   15 ar
    16   17   16 ar
    17   18   17 ar
    18   19   18 ar
    19   20   19 ar
    20   21   20 ar
    21   22   21 1
    22   23   21 ar
    23   24   23 1
    24   25   23 ar
    25   26   25 1
    26   27   25 ar
    27   28   27 1
    28   29   20 ar
    29   30   29 ar
    30   31   30 1
    31   32   30 ar
    32   33   32 1
    33   34   19 ar
    34   35   34 ar
    35   36   35 1
    36   37   35 ar
    37   38   37 1
    38   39   18 ar
    39   40   39 ar
    40   41   40 1
    41   42   40 ar
    42   43   42 1
    43   44   17 ar
    44   45    1 ar
    45   46   16 1
    46   47   46 ar
    47   48   47 1
    48   49   47 ar
    49   50   49 1
    50   51   49 ar
    51   52   51 1
    52   53   51 ar
    53   54   53 1
    54   55   46 ar
    55   56   55 1
    56   57   45 1
    57   58   57 1
    58   59   58 1
    59   60   58 1
    60   61   58 1
    61   62   57 1
    62   63   62 1
    63   64   62 1
    64   65   62 1
    65   66   57 1
    66   67   66 1
    67   68   66 1
    68   69   66 1
    69   70   71 1
    70   71   72 1
    71   73   71 1
    72   74   71 1
    73   75   74 ar
    74   76   75 1
    75   77   75 ar
    76   78   77 1
    77   79   77 ar
    78   80   79 1
    79   81   79 ar
    80   82   81 1
    81   83   74 ar
    82   84   70 ar
    83   85   84 ar
    84   86   85 ar
    85   87   86 ar
    86   88   87 ar
    87   89   88 ar
    88   90   89 ar
    89   91   90 1
    90   92   90 ar
    91   93   92 1
    92   94   92 ar
    93   95   94 1
    94   96   94 ar
    95   97   96 1
    96   98   89 ar
    97   99   98 ar
    98  100   99 1
    99  101   99 ar
   100  102  101 1
   101  103   88 ar
   102  104  103 ar
   103  105  104 1
   104  106  104 ar
   105  107  106 1
   106  108   87 ar
   107  109  108 ar
   108  110  109 1
   109  111  109 ar
   110  112  111 1
   111  113   86 ar
   112  114   70 ar
   113  115   85 1
   114  116  115 ar
   115  117  116 1
   116  118  116 ar
   117  119  118 1
   118  120  118 ar
   119  121  120 1
   120  122  120 ar
   121  123  122 1
   122  124  115 ar
   123  125  124 1
   124  126  114 1
   125  127  126 1
   126  128  127 1
   127  129  127 1
   128  130  127 1
   129  131  126 1
   130  132  131 1
   131  133  131 1
   132  134  131 1
   133  135  126 1
   134  136  135 1
   135  137  135 1
   136  138  135 1
   137   12   14 ar
   138   14   15 1
   139   27   29 ar
   140   32   34 ar
   141   37   39 ar
   142   42   44 ar
   143   44   45 ar
   144   53   55 ar
   145   81   83 ar
   146   83   84 1
   147   96   98 ar
   148  101  103 ar
   149  106  108 ar
   150  111  113 ar
   151  113  114 ar
   152  122  124 ar
@<TRIPOS>SUBSTRUCTURE
     1 RES1 1
     2 RES2 70

@<TRIPOS>CRYSIN
   9.9442   15.1244   18.6721  92.0100 102.1110 101.6480   2 1

