# MOL2 file generated by ConQuest
# Please check atom types

@<TRIPOS>MOLECULE
WIWZEI
    57    62     1
SMALL
NO_CHARGES
****
Generated from CSD

@<TRIPOS>ATOM
      1 C1         4.5514    5.7248    2.2550 C.ar      1 RES1    0.0000
      2 C2         3.1497    6.1563    2.0303 C.ar      1 RES1    0.0000
      3 C3         2.0804    5.6065    1.3123 C.ar      1 RES1    0.0000
      4 H1         2.1806    4.8041    0.8524 H         1 RES1    0.0000
      5 C4         0.8754    6.2763    1.2987 C.ar      1 RES1    0.0000
      6 H2         0.1669    5.9261    0.8081 H         1 RES1    0.0000
      7 C5         0.6945    7.4471    1.9926 C.ar      1 RES1    0.0000
      8 H3        -0.1303    7.8759    1.9703 H         1 RES1    0.0000
      9 C6         1.7266    7.9887    2.7210 C.ar      1 RES1    0.0000
     10 H4         1.6037    8.7750    3.2030 H         1 RES1    0.0000
     11 C7         2.9498    7.3451    2.7269 C.ar      1 RES1    0.0000
     12 C8         4.2107    7.7955    3.3774 C.3       1 RES1    0.0000
     13 H5         4.0871    7.9111    4.3324 H         1 RES1    0.0000
     14 H6         4.5198    8.6314    2.9948 H         1 RES1    0.0000
     15 C9         5.1910    6.6726    3.0899 C.ar      1 RES1    0.0000
     16 C10        6.4808    6.4740    3.5601 C.ar      1 RES1    0.0000
     17 C11        7.0769    5.1994    3.2508 C.ar      1 RES1    0.0000
     18 C12        8.1791    4.6822    4.0108 C.ar      1 RES1    0.0000
     19 H7         8.4731    5.1642    4.7504 H         1 RES1    0.0000
     20 C13        8.8004    3.5430    3.7059 C.ar      1 RES1    0.0000
     21 H8         9.4493    3.2063    4.2815 H         1 RES1    0.0000
     22 C14        8.4868    2.8362    2.5165 C.ar      1 RES1    0.0000
     23 C15        9.3035    1.7801    2.0662 C.ar      1 RES1    0.0000
     24 H9        10.0084    1.4885    2.5997 H         1 RES1    0.0000
     25 C16        9.0822    1.1789    0.8709 C.ar      1 RES1    0.0000
     26 H10        9.6232    0.4766    0.5901 H         1 RES1    0.0000
     27 C17        8.0331    1.6248    0.0674 C.ar      1 RES1    0.0000
     28 H11        7.8955    1.2376   -0.7671 H         1 RES1    0.0000
     29 C18        7.2023    2.6286    0.4937 C.ar      1 RES1    0.0000
     30 H12        6.5043    2.9030   -0.0557 H         1 RES1    0.0000
     31 C19        7.3784    3.2542    1.7470 C.ar      1 RES1    0.0000
     32 C20        6.5413    4.3581    2.2337 C.ar      1 RES1    0.0000
     33 C21        5.2228    4.6091    1.7652 C.ar      1 RES1    0.0000
     34 C22        7.2717    7.5455    4.3576 C.3       1 RES1    0.0000
     35 C23        6.7832    8.9817    4.1037 C.3       1 RES1    0.0000
     36 H13        5.9262    9.1062    4.5192 H         1 RES1    0.0000
     37 H14        6.7042    9.1306    3.1587 H         1 RES1    0.0000
     38 H15        7.4126    9.6045    4.4750 H         1 RES1    0.0000
     39 C24        7.1505    7.2864    5.8743 C.3       1 RES1    0.0000
     40 H16        6.2253    7.3054    6.1289 H         1 RES1    0.0000
     41 H17        7.6285    7.9680    6.3535 H         1 RES1    0.0000
     42 H18        7.5236    6.4271    6.0830 H         1 RES1    0.0000
     43 C25        8.7453    7.5970    3.8921 C.3       1 RES1    0.0000
     44 H19        9.1897    8.3326    4.3192 H         1 RES1    0.0000
     45 H20        8.7767    7.7134    2.9391 H         1 RES1    0.0000
     46 H21        9.1847    6.7773    4.1291 H         1 RES1    0.0000
     47 C26        4.4874    3.6694    0.8694 C.ar      1 RES1    0.0000
     48 C27        4.2473    3.9844   -0.4632 C.ar      1 RES1    0.0000
     49 H22        4.5624    4.7869   -0.8114 H         1 RES1    0.0000
     50 C28        3.5493    3.1188   -1.2699 C.ar      1 RES1    0.0000
     51 H23        3.4032    3.3354   -2.1621 H         1 RES1    0.0000
     52 C29        3.0659    1.9362   -0.7662 C.ar      1 RES1    0.0000
     53 H24        2.5884    1.3558   -1.3146 H         1 RES1    0.0000
     54 C30        3.2899    1.6095    0.5581 C.ar      1 RES1    0.0000
     55 H25        2.9616    0.8106    0.9032 H         1 RES1    0.0000
     56 C31        4.0025    2.4706    1.3669 C.ar      1 RES1    0.0000
     57 H26        4.1592    2.2441    2.2555 H         1 RES1    0.0000
@<TRIPOS>BOND
     1    1    2 1
     2    2    3 ar
     3    3    4 1
     4    5    3 ar
     5    6    5 1
     6    7    5 ar
     7    8    7 1
     8    9    7 ar
     9   10    9 1
    10   11    2 ar
    11   12   11 1
    12   13   12 1
    13   14   12 1
    14   15    1 ar
    15   16   15 ar
    16   17   16 ar
    17   18   17 ar
    18   19   18 1
    19   20   18 ar
    20   21   20 1
    21   22   20 ar
    22   23   22 ar
    23   24   23 1
    24   25   23 ar
    25   26   25 1
    26   27   25 ar
    27   28   27 1
    28   29   27 ar
    29   30   29 1
    30   31   22 ar
    31   32   17 ar
    32   33    1 ar
    33   34   16 1
    34   35   34 1
    35   36   35 1
    36   37   35 1
    37   38   35 1
    38   39   34 1
    39   40   39 1
    40   41   39 1
    41   42   39 1
    42   43   34 1
    43   44   43 1
    44   45   43 1
    45   46   43 1
    46   47   33 1
    47   48   47 ar
    48   49   48 1
    49   50   48 ar
    50   51   50 1
    51   52   50 ar
    52   53   52 1
    53   54   52 ar
    54   55   54 1
    55   56   47 ar
    56   57   56 1
    57    9   11 ar
    58   12   15 1
    59   29   31 ar
    60   31   32 ar
    61   32   33 ar
    62   54   56 ar
@<TRIPOS>SUBSTRUCTURE
     1 RES1 1

@<TRIPOS>CRYSIN
  14.8243    9.0268   16.5130  90.0000  96.9450  90.0000 231 1

