# MOL2 file generated by ConQuest
# Please check atom types

@<TRIPOS>MOLECULE
WIYSUU
    62    68     1
SMALL
NO_CHARGES
****
Generated from CSD

@<TRIPOS>ATOM
      1 C1         1.9326    3.0968    1.3420 C.ar      1 RES1    0.0000
      2 C2         0.8685    3.1331    0.4504 C.ar      1 RES1    0.0000
      3 C3         0.7331    2.1986   -0.7036 C.ar      1 RES1    0.0000
      4 C4         1.4097    0.9747   -0.7259 C.ar      1 RES1    0.0000
      5 C5         1.0522   -0.0273   -1.5989 C.ar      1 RES1    0.0000
      6 C6        -0.0428    0.1441   -2.4198 C.ar      1 RES1    0.0000
      7 C7        -0.7528    1.3303   -2.4365 C.ar      1 RES1    0.0000
      8 C8        -0.2954    2.4115   -1.6603 C.ar      1 RES1    0.0000
      9 C9        -0.9273    3.7418   -1.6901 C.ar      1 RES1    0.0000
     10 C10       -1.3587    4.3648   -2.8944 C.ar      1 RES1    0.0000
     11 C11       -2.0655    5.5576   -2.8274 C.ar      1 RES1    0.0000
     12 C12       -2.2530    6.1962   -1.6157 C.ar      1 RES1    0.0000
     13 C13       -1.6724    5.6965   -0.4691 C.ar      1 RES1    0.0000
     14 C14       -1.0236    4.4531   -0.4728 C.ar      1 RES1    0.0000
     15 C15       -0.2710    3.9729    0.7241 C.ar      1 RES1    0.0000
     16 C16       -0.4904    4.4297    2.0214 C.ar      1 RES1    0.0000
     17 C17        0.4914    4.1585    3.0303 C.ar      1 RES1    0.0000
     18 C18        0.2853    4.5323    4.3779 C.ar      1 RES1    0.0000
     19 C19        1.2806    4.4323    5.3086 C.ar      1 RES1    0.0000
     20 C20        2.5449    3.9625    4.9419 C.ar      1 RES1    0.0000
     21 C21        2.7661    3.5627    3.6594 C.ar      1 RES1    0.0000
     22 C22        1.7421    3.5939    2.6673 C.ar      1 RES1    0.0000
     23 C23        3.3000    2.6568    0.9009 C.ar      1 RES1    0.0000
     24 C24        4.0216    1.6457    1.5300 C.ar      1 RES1    0.0000
     25 C25        5.2809    1.2992    1.0889 C.ar      1 RES1    0.0000
     26 C26        5.8691    1.9832    0.0372 C.ar      1 RES1    0.0000
     27 C27        5.1811    3.0007   -0.5677 C.ar      1 RES1    0.0000
     28 C28        3.9101    3.3304   -0.1601 C.ar      1 RES1    0.0000
     29 C29       -2.0627    1.3472   -3.1885 C.3       1 RES1    0.0000
     30 C30       -0.9426    3.9184   -4.2774 C.3       1 RES1    0.0000
     31 C31       -1.6970    5.2163    2.3918 C.ar      1 RES1    0.0000
     32 C32       -2.9778    4.7062    2.1834 C.ar      1 RES1    0.0000
     33 C33       -4.0878    5.5031    2.4067 C.ar      1 RES1    0.0000
     34 C34       -3.9535    6.7945    2.8516 C.ar      1 RES1    0.0000
     35 C35       -2.6845    7.2955    3.0880 C.ar      1 RES1    0.0000
     36 C36       -1.5811    6.5077    2.8628 C.ar      1 RES1    0.0000
     37 H1         2.1390    0.8268   -0.1191 H         1 RES1    0.0000
     38 H2         1.5592   -0.8410   -1.6361 H         1 RES1    0.0000
     39 H3        -0.3175   -0.5776   -2.9893 H         1 RES1    0.0000
     40 H4        -2.4265    5.9431   -3.6278 H         1 RES1    0.0000
     41 H5        -2.7884    6.9918   -1.5710 H         1 RES1    0.0000
     42 H6        -1.7102    6.2040    0.3443 H         1 RES1    0.0000
     43 H7        -0.5736    4.8658    4.6478 H         1 RES1    0.0000
     44 H8         1.1112    4.6854    6.2188 H         1 RES1    0.0000
     45 H9         3.2517    3.9236    5.5896 H         1 RES1    0.0000
     46 H10        3.6383    3.2473    3.4156 H         1 RES1    0.0000
     47 H11        3.6386    1.1902    2.2820 H         1 RES1    0.0000
     48 H12        5.7523    0.5776    1.5114 H         1 RES1    0.0000
     49 H13        6.7486    1.7431   -0.2643 H         1 RES1    0.0000
     50 H14        5.5927    3.4939   -1.2806 H         1 RES1    0.0000
     51 H15        3.4330    4.0300   -0.6124 H         1 RES1    0.0000
     52 H16       -2.4508    2.2233   -3.1271 H         1 RES1    0.0000
     53 H17       -2.6621    0.7048   -2.8032 H         1 RES1    0.0000
     54 H18       -1.9085    1.1292   -4.1117 H         1 RES1    0.0000
     55 H19       -0.4631    3.0890   -4.2122 H         1 RES1    0.0000
     56 H20       -0.3768    4.5829   -4.6776 H         1 RES1    0.0000
     57 H21       -1.7240    3.7938   -4.8209 H         1 RES1    0.0000
     58 H22       -3.0921    3.7977    1.8930 H         1 RES1    0.0000
     59 H23       -4.9645    5.1501    2.2392 H         1 RES1    0.0000
     60 H24       -4.7296    7.3396    3.0024 H         1 RES1    0.0000
     61 H25       -2.5745    8.1936    3.4081 H         1 RES1    0.0000
     62 H26       -0.7072    6.8672    3.0340 H         1 RES1    0.0000
@<TRIPOS>BOND
     1    1    2 ar
     2    2    3 1
     3    3    4 ar
     4    4    5 ar
     5    5    6 ar
     6    6    7 ar
     7    7    8 ar
     8    8    3 ar
     9    9    8 1
    10   10    9 ar
    11   11   10 ar
    12   12   11 ar
    13   13   12 ar
    14   14    9 ar
    15   15    2 ar
    16   16   15 ar
    17   17   16 ar
    18   18   17 ar
    19   19   18 ar
    20   20   19 ar
    21   21   20 ar
    22   22    1 ar
    23   23    1 1
    24   24   23 ar
    25   25   24 ar
    26   26   25 ar
    27   27   26 ar
    28   28   23 ar
    29   29    7 1
    30   30   10 1
    31   31   16 1
    32   32   31 ar
    33   33   32 ar
    34   34   33 ar
    35   35   34 ar
    36   36   31 ar
    37   37    4 1
    38   38    5 1
    39   39    6 1
    40   40   11 1
    41   41   12 1
    42   42   13 1
    43   43   18 1
    44   44   19 1
    45   45   20 1
    46   46   21 1
    47   47   24 1
    48   48   25 1
    49   49   26 1
    50   50   27 1
    51   51   28 1
    52   52   29 1
    53   53   29 1
    54   54   29 1
    55   55   30 1
    56   56   30 1
    57   57   30 1
    58   58   32 1
    59   59   33 1
    60   60   34 1
    61   61   35 1
    62   62   36 1
    63   13   14 ar
    64   14   15 1
    65   17   22 ar
    66   21   22 ar
    67   27   28 ar
    68   35   36 ar
@<TRIPOS>SUBSTRUCTURE
     1 RES1 1

@<TRIPOS>CRYSIN
   9.9240   12.9790   19.0240  90.0000 101.9240  90.0000  14 1

