# MOL2 file generated by ConQuest
# Please check atom types

@<TRIPOS>MOLECULE
WONHEN
    62    67     1
SMALL
NO_CHARGES
****
Generated from CSD

@<TRIPOS>ATOM
      1 C1         6.3101    4.8378    3.9157 C.ar      1 RES1    0.0000
      2 C2         6.1900    6.1007    3.3086 C.ar      1 RES1    0.0000
      3 C3         5.6333    6.1995    2.0547 C.ar      1 RES1    0.0000
      4 H1         5.4848    7.0653    1.6919 H         1 RES1    0.0000
      5 C4         4.3362    6.4381   -0.6294 C.ar      1 RES1    0.0000
      6 H2         4.4213    7.2234   -0.1012 H         1 RES1    0.0000
      7 C5         3.8262    6.5604   -1.8955 C.ar      1 RES1    0.0000
      8 C6         3.6553    5.3981   -2.6780 C.ar      1 RES1    0.0000
      9 C7         4.0433    4.1895   -2.1325 C.ar      1 RES1    0.0000
     10 H3         3.9289    3.4055   -2.6582 H         1 RES1    0.0000
     11 C8         5.1656    1.6198   -1.1292 C.ar      1 RES1    0.0000
     12 H4         4.9569    1.6890   -2.0535 H         1 RES1    0.0000
     13 C9         5.6027    0.4070   -0.6368 C.ar      1 RES1    0.0000
     14 C10        5.8238    0.2571    0.7306 C.ar      1 RES1    0.0000
     15 C11        5.0711    0.0451    3.6837 C.ar      1 RES1    0.0000
     16 H5         4.9279   -0.7219    3.1407 H         1 RES1    0.0000
     17 C12        4.8561   -0.0646    5.0425 C.ar      1 RES1    0.0000
     18 C13        5.0539    1.0473    5.8557 C.ar      1 RES1    0.0000
     19 C14        5.4157    2.2282    5.2547 C.ar      1 RES1    0.0000
     20 H6         5.5164    2.9930    5.8076 H         1 RES1    0.0000
     21 C15        5.8439    3.6974    3.2321 C.ar      1 RES1    0.0000
     22 C16        5.4395    3.8134    1.8857 C.ar      1 RES1    0.0000
     23 C17        5.2726    5.0786    1.2834 C.ar      1 RES1    0.0000
     24 C18        4.7443    5.2028   -0.0666 C.ar      1 RES1    0.0000
     25 C19        4.5959    4.0492   -0.8527 C.ar      1 RES1    0.0000
     26 C20        5.0161    2.7537   -0.3209 C.ar      1 RES1    0.0000
     27 C21        5.2975    2.6254    1.0453 C.ar      1 RES1    0.0000
     28 C22        5.5692    1.3395    1.6006 C.ar      1 RES1    0.0000
     29 C23        5.4931    1.2373    3.0605 C.ar      1 RES1    0.0000
     30 C24        5.6475    2.3799    3.8725 C.ar      1 RES1    0.0000
     31 C25        7.0346    4.7974    5.2374 C.3       1 RES1    0.0000
     32 H7         7.7846    5.4267    5.2177 H         1 RES1    0.0000
     33 H8         7.3731    3.8913    5.3954 H         1 RES1    0.0000
     34 H9         6.4169    5.0463    5.9557 H         1 RES1    0.0000
     35 C26        6.6617    7.3483    4.0169 C.3       1 RES1    0.0000
     36 H10        7.6414    7.3655    4.0305 H         1 RES1    0.0000
     37 H11        6.3228    7.3495    4.9363 H         1 RES1    0.0000
     38 H12        6.3268    8.1378    3.5443 H         1 RES1    0.0000
     39 C27        3.4357    7.9144   -2.4361 C.3       1 RES1    0.0000
     40 H13        3.6652    8.6053   -1.7820 H         1 RES1    0.0000
     41 H14        2.4709    7.9316   -2.6064 H         1 RES1    0.0000
     42 H15        3.9185    8.0828   -3.2728 H         1 RES1    0.0000
     43 C28        3.0488    5.4918   -4.0428 C.3       1 RES1    0.0000
     44 H16        2.9707    4.5949   -4.4279 H         1 RES1    0.0000
     45 H17        3.6196    6.0455   -4.6167 H         1 RES1    0.0000
     46 H18        2.1592    5.8988   -3.9774 H         1 RES1    0.0000
     47 C29        5.8387   -0.7414   -1.5932 C.3       1 RES1    0.0000
     48 H19        5.4852   -0.5088   -2.4768 H         1 RES1    0.0000
     49 H20        5.3844   -1.5423   -1.2600 H         1 RES1    0.0000
     50 H21        6.8006   -0.9167   -1.6623 H         1 RES1    0.0000
     51 C30        6.4145   -1.0464    1.1934 C.3       1 RES1    0.0000
     52 H22        5.7079   -1.7234    1.2514 H         1 RES1    0.0000
     53 H23        6.8236   -0.9258    2.0757 H         1 RES1    0.0000
     54 H24        7.0973   -1.3406    0.5553 H         1 RES1    0.0000
     55 C31        4.3956   -1.3897    5.6262 C.3       1 RES1    0.0000
     56 H25        4.2809   -2.0419    4.9042 H         1 RES1    0.0000
     57 H26        3.5418   -1.2627    6.0902 H         1 RES1    0.0000
     58 H27        5.0667   -1.7188    6.2605 H         1 RES1    0.0000
     59 C32        4.8226    0.9731    7.3415 C.3       1 RES1    0.0000
     60 H28        5.0396    1.8379    7.7500 H         1 RES1    0.0000
     61 H29        5.3946    0.2773    7.7266 H         1 RES1    0.0000
     62 H30        3.8828    0.7563    7.5156 H         1 RES1    0.0000
@<TRIPOS>BOND
     1    1    2 ar
     2    2    3 ar
     3    3    4 1
     4    5    6 1
     5    7    5 ar
     6    8    7 ar
     7    9    8 ar
     8   10    9 1
     9   11   12 1
    10   13   11 ar
    11   14   13 ar
    12   15   16 1
    13   17   15 ar
    14   18   17 ar
    15   19   18 ar
    16   20   19 1
    17   21    1 ar
    18   22   21 ar
    19   23    3 ar
    20   24    5 ar
    21   25    9 ar
    22   26   11 ar
    23   27   22 ar
    24   28   14 ar
    25   29   15 ar
    26   30   19 ar
    27   31    1 1
    28   32   31 1
    29   33   31 1
    30   34   31 1
    31   35    2 1
    32   36   35 1
    33   37   35 1
    34   38   35 1
    35   39    7 1
    36   40   39 1
    37   41   39 1
    38   42   39 1
    39   43    8 1
    40   44   43 1
    41   45   43 1
    42   46   43 1
    43   47   13 1
    44   48   47 1
    45   49   47 1
    46   50   47 1
    47   51   14 1
    48   52   51 1
    49   53   51 1
    50   54   51 1
    51   55   17 1
    52   56   55 1
    53   57   55 1
    54   58   55 1
    55   59   18 1
    56   60   59 1
    57   61   59 1
    58   62   59 1
    59   21   30 ar
    60   22   23 ar
    61   23   24 ar
    62   24   25 ar
    63   25   26 ar
    64   26   27 ar
    65   27   28 ar
    66   28   29 ar
    67   29   30 ar
@<TRIPOS>SUBSTRUCTURE
     1 RES1 1

@<TRIPOS>CRYSIN
   7.7900   22.9170   12.5610  90.0000 100.7440  90.0000  14 1

