# MOL2 file generated by ConQuest
# Please check atom types

@<TRIPOS>MOLECULE
WOWVOV
    40    43     1
SMALL
NO_CHARGES
****
Generated from CSD

@<TRIPOS>ATOM
      1 C1         0.7040    7.3257    4.8875 C.ar      1 RES1    0.0000
      2 C2         0.9308    8.1649    5.9934 C.ar      1 RES1    0.0000
      3 H1         0.2042    8.4126    6.5531 H         1 RES1    0.0000
      4 C3         2.1913    8.6294    6.2705 C.ar      1 RES1    0.0000
      5 H2         2.3254    9.2050    7.0147 H         1 RES1    0.0000
      6 C4         3.2909    8.2633    5.4649 C.ar      1 RES1    0.0000
      7 C5         3.0917    7.4051    4.3583 C.ar      1 RES1    0.0000
      8 C6         1.7771    6.9601    4.0966 C.ar      1 RES1    0.0000
      9 H3         1.6255    6.3903    3.3517 H         1 RES1    0.0000
     10 C7         4.5974    8.7748    5.7425 C.ar      1 RES1    0.0000
     11 H4         4.7104    9.3605    6.4819 H         1 RES1    0.0000
     12 C8         5.6844    8.4551    4.9884 C.ar      1 RES1    0.0000
     13 C9         5.5376    7.5127    3.8950 C.ar      1 RES1    0.0000
     14 C10        4.2485    7.0100    3.5682 C.ar      1 RES1    0.0000
     15 C11        6.6586    7.0433    3.1715 C.ar      1 RES1    0.0000
     16 H5         7.5205    7.3662    3.4054 H         1 RES1    0.0000
     17 C12        6.5482    6.1352    2.1410 C.ar      1 RES1    0.0000
     18 C13        5.2619    5.6860    1.7903 C.ar      1 RES1    0.0000
     19 H6         5.1575    5.0838    1.0624 H         1 RES1    0.0000
     20 C14        4.1540    6.1070    2.4866 C.ar      1 RES1    0.0000
     21 H7         3.2986    5.7802    2.2323 H         1 RES1    0.0000
     22 C15       -0.6921    6.8342    4.6010 C.3       1 RES1    0.0000
     23 H8        -0.7254    6.4535    3.6992 H         1 RES1    0.0000
     24 H9        -1.3208    7.5837    4.6630 H         1 RES1    0.0000
     25 H10       -0.9366    6.1472    5.2550 H         1 RES1    0.0000
     26 C16        6.9914    9.0945    5.3004 C.ar      1 RES1    0.0000
     27 C17        7.5201    9.0271    6.5893 C.ar      1 RES1    0.0000
     28 H11        7.0603    8.5341    7.2581 H         1 RES1    0.0000
     29 C18        8.7097    9.6688    6.9096 C.ar      1 RES1    0.0000
     30 H12        9.0588    9.6060    7.7910 H         1 RES1    0.0000
     31 C19        9.3884   10.3999    5.9468 C.ar      1 RES1    0.0000
     32 H13       10.2012   10.8408    6.1650 H         1 RES1    0.0000
     33 C20        8.8712   10.4832    4.6600 C.ar      1 RES1    0.0000
     34 H14        9.3296   10.9879    3.9974 H         1 RES1    0.0000
     35 C21        7.6885    9.8331    4.3379 C.ar      1 RES1    0.0000
     36 H15        7.3483    9.8904    3.4525 H         1 RES1    0.0000
     37 C22        7.7688    5.6240    1.4205 C.3       1 RES1    0.0000
     38 H16        8.4544    6.3234    1.4023 H         1 RES1    0.0000
     39 H17        7.5275    5.3791    0.5032 H         1 RES1    0.0000
     40 H18        8.1186    4.8371    1.8880 H         1 RES1    0.0000
@<TRIPOS>BOND
     1    1    2 ar
     2    2    3 1
     3    4    2 ar
     4    5    4 1
     5    6    4 ar
     6    7    6 ar
     7    8    1 ar
     8    9    8 1
     9   10    6 ar
    10   11   10 1
    11   12   10 ar
    12   13   12 ar
    13   14    7 ar
    14   15   13 ar
    15   16   15 1
    16   17   15 ar
    17   18   17 ar
    18   19   18 1
    19   20   14 ar
    20   21   20 1
    21   22    1 1
    22   23   22 1
    23   24   22 1
    24   25   22 1
    25   26   12 1
    26   27   26 ar
    27   28   27 1
    28   29   27 ar
    29   30   29 1
    30   31   29 ar
    31   32   31 1
    32   33   31 ar
    33   34   33 1
    34   35   26 ar
    35   36   35 1
    36   37   17 1
    37   38   37 1
    38   39   37 1
    39   40   37 1
    40    7    8 ar
    41   13   14 ar
    42   18   20 ar
    43   33   35 ar
@<TRIPOS>SUBSTRUCTURE
     1 RES1 1

@<TRIPOS>CRYSIN
  11.2196   12.1534   11.8670  90.0000 112.4970  90.0000  14 1

