# MOL2 file generated by ConQuest
# Please check atom types

@<TRIPOS>MOLECULE
WUMWIL
    36    39     1
SMALL
NO_CHARGES
****
Generated from CSD

@<TRIPOS>ATOM
      1 C1         0.2602    6.0545    0.5889 C.ar      1 RES1    0.0000
      2 C2         0.4578    7.4671    0.6703 C.ar      1 RES1    0.0000
      3 H1         0.8152    7.8302    1.4716 H         1 RES1    0.0000
      4 C3         0.5789    5.1789    1.7089 C.ar      1 RES1    0.0000
      5 C4         0.3693    3.7776    1.5820 C.ar      1 RES1    0.0000
      6 C5         0.1566    8.3160   -0.3510 C.ar      1 RES1    0.0000
      7 C6         1.1773    3.4453    3.8512 C.ar      1 RES1    0.0000
      8 H2         1.3861    2.8651    4.5731 H         1 RES1    0.0000
      9 C7         0.6778    2.9339    2.6771 C.ar      1 RES1    0.0000
     10 H3         0.5368    1.9971    2.5990 H         1 RES1    0.0000
     11 C8         1.0827    5.6718    2.9380 C.ar      1 RES1    0.0000
     12 H4         1.2196    6.6063    3.0425 H         1 RES1    0.0000
     13 C9         1.3775    4.8315    3.9793 C.ar      1 RES1    0.0000
     14 H5         1.7183    5.1870    4.7920 H         1 RES1    0.0000
     15 C10        0.3682    9.8023   -0.1918 C.3       1 RES1    0.0000
     16 H6         0.6851    9.9915    0.7156 H         1 RES1    0.0000
     17 H7        -0.4782   10.2712   -0.3470 H         1 RES1    0.0000
     18 H8         1.0356   10.1082   -0.8409 H         1 RES1    0.0000
     19 C1D       -0.2602    5.5030   -0.5889 C.ar      1 RES1    0.0000
     20 C2D       -0.4578    4.0904   -0.6703 C.ar      1 RES1    0.0000
     21 H1D       -0.8152    3.7273   -1.4716 H         1 RES1    0.0000
     22 C3D       -0.5789    6.3786   -1.7089 C.ar      1 RES1    0.0000
     23 C4D       -0.3693    7.7799   -1.5820 C.ar      1 RES1    0.0000
     24 C5D       -0.1566    3.2415    0.3510 C.ar      1 RES1    0.0000
     25 C6D       -1.1773    8.1122   -3.8512 C.ar      1 RES1    0.0000
     26 H2D       -1.3861    8.6924   -4.5731 H         1 RES1    0.0000
     27 C7D       -0.6778    8.6236   -2.6771 C.ar      1 RES1    0.0000
     28 H3D       -0.5368    9.5604   -2.5990 H         1 RES1    0.0000
     29 C8D       -1.0827    5.8857   -2.9380 C.ar      1 RES1    0.0000
     30 H4D       -1.2196    4.9512   -3.0425 H         1 RES1    0.0000
     31 C9D       -1.3775    6.7260   -3.9793 C.ar      1 RES1    0.0000
     32 H5D       -1.7183    6.3705   -4.7920 H         1 RES1    0.0000
     33 C10D      -0.3682    1.7552    0.1918 C.3       1 RES1    0.0000
     34 H6D       -0.6851    1.5660   -0.7156 H         1 RES1    0.0000
     35 H7D        0.4782    1.2863    0.3470 H         1 RES1    0.0000
     36 H8D       -1.0356    1.4493    0.8409 H         1 RES1    0.0000
@<TRIPOS>BOND
     1    1    2 ar
     2    2    3 1
     3    4    1 ar
     4    5    4 ar
     5    6    2 ar
     6    7    8 1
     7    9    5 ar
     8   10    9 1
     9   11    4 ar
    10   12   11 1
    11   13    7 ar
    12   14   13 1
    13   15    6 1
    14   16   15 1
    15   17   15 1
    16   18   15 1
    17   19    1 ar
    18   20   19 ar
    19   21   20 1
    20   22   19 ar
    21   23    6 ar
    22   24    5 ar
    23   25   26 1
    24   27   23 ar
    25   28   27 1
    26   29   22 ar
    27   30   29 1
    28   31   25 ar
    29   32   31 1
    30   33   24 1
    31   34   33 1
    32   35   33 1
    33   36   33 1
    34    7    9 ar
    35   11   13 ar
    36   20   24 ar
    37   22   23 ar
    38   25   27 ar
    39   29   31 ar
@<TRIPOS>SUBSTRUCTURE
     1 RES1 1

@<TRIPOS>CRYSIN
   7.9296   11.5575   14.3990  90.0000  90.0000  90.0000  61 1

