# MOL2 file generated by ConQuest
# Please check atom types

@<TRIPOS>MOLECULE
WUPJOI
    74    80     1
SMALL
NO_CHARGES
****
Generated from CSD

@<TRIPOS>ATOM
      1 C1        11.8199   20.0643    4.5302 C.ar      1 RES1    0.0000
      2 C2        11.7277   21.4961    4.5347 C.ar      1 RES1    0.0000
      3 H1        10.8781   21.9117    4.4560 H         1 RES1    0.0000
      4 C3        12.8400   22.2610    4.6501 C.ar      1 RES1    0.0000
      5 H2        12.7590   23.2080    4.6455 H         1 RES1    0.0000
      6 C4        14.1216   21.6715    4.7778 C.ar      1 RES1    0.0000
      7 H3        14.8852   22.2270    4.8785 H         1 RES1    0.0000
      8 C5        14.2712   20.3231    4.7587 C.ar      1 RES1    0.0000
      9 H4        15.1392   19.9432    4.8410 H         1 RES1    0.0000
     10 C6        13.1284   19.4644    4.6149 C.ar      1 RES1    0.0000
     11 C7        13.2429   18.0838    4.5826 C.ar      1 RES1    0.0000
     12 H5        14.1079   17.6923    4.6178 H         1 RES1    0.0000
     13 C8        12.1109   17.2364    4.4983 C.ar      1 RES1    0.0000
     14 C9        10.7916   17.8359    4.4652 C.ar      1 RES1    0.0000
     15 C10       10.6977   19.2515    4.4668 C.ar      1 RES1    0.0000
     16 H6         9.8381   19.6564    4.4234 H         1 RES1    0.0000
     17 C11       12.2534   15.8315    4.4768 C.ar      1 RES1    0.0000
     18 C12       13.6224   15.2289    4.5358 C.ar      1 RES1    0.0000
     19 C13       14.4105   15.1394    3.3817 C.ar      1 RES1    0.0000
     20 C14       15.6802   14.5642    3.4792 C.ar      1 RES1    0.0000
     21 H7        16.2252   14.5195    2.7035 H         1 RES1    0.0000
     22 C15       16.1683   14.0571    4.6723 C.ar      1 RES1    0.0000
     23 C16       15.3835   14.1897    5.8135 C.ar      1 RES1    0.0000
     24 H8        15.7107   13.8626    6.6430 H         1 RES1    0.0000
     25 C17       14.1256   14.7939    5.7665 C.ar      1 RES1    0.0000
     26 C18       13.9213   15.6520    2.0513 C.3       1 RES1    0.0000
     27 H9        13.8714   16.6303    2.0759 H         1 RES1    0.0000
     28 H10       13.0327   15.2837    1.8671 H         1 RES1    0.0000
     29 H11       14.5414   15.3735    1.3457 H         1 RES1    0.0000
     30 C19       17.5127   13.3778    4.7469 C.3       1 RES1    0.0000
     31 H12       17.8784   13.4772    5.6509 H         1 RES1    0.0000
     32 H13       18.1237   13.7904    4.1000 H         1 RES1    0.0000
     33 H14       17.4098   12.4262    4.5393 H         1 RES1    0.0000
     34 C20       13.3561   15.0067    7.0380 C.3       1 RES1    0.0000
     35 H15       13.2605   15.9669    7.2054 H         1 RES1    0.0000
     36 H16       13.8363   14.5918    7.7836 H         1 RES1    0.0000
     37 H17       12.4678   14.6005    6.9544 H         1 RES1    0.0000
     38 C1E       10.0765   12.7803    4.5302 C.ar      1 RES1    0.0000
     39 C2E       10.1687   11.3485    4.5347 C.ar      1 RES1    0.0000
     40 H1E       11.0183   10.9329    4.4560 H         1 RES1    0.0000
     41 C3E        9.0564   10.5836    4.6501 C.ar      1 RES1    0.0000
     42 H2E        9.1374    9.6366    4.6455 H         1 RES1    0.0000
     43 C4E        7.7748   11.1731    4.7778 C.ar      1 RES1    0.0000
     44 H3E        7.0112   10.6176    4.8785 H         1 RES1    0.0000
     45 C5E        7.6252   12.5215    4.7587 C.ar      1 RES1    0.0000
     46 H4E        6.7572   12.9014    4.8410 H         1 RES1    0.0000
     47 C6E        8.7680   13.3802    4.6149 C.ar      1 RES1    0.0000
     48 C7E        8.6535   14.7608    4.5826 C.ar      1 RES1    0.0000
     49 H5E        7.7885   15.1523    4.6178 H         1 RES1    0.0000
     50 C8E        9.7855   15.6082    4.4983 C.ar      1 RES1    0.0000
     51 C9E       11.1048   15.0087    4.4652 C.ar      1 RES1    0.0000
     52 C10E      11.1987   13.5931    4.4668 C.ar      1 RES1    0.0000
     53 H6E       12.0583   13.1882    4.4234 H         1 RES1    0.0000
     54 C11E       9.6430   17.0131    4.4768 C.ar      1 RES1    0.0000
     55 C12E       8.2740   17.6157    4.5358 C.ar      1 RES1    0.0000
     56 C13E       7.4859   17.7052    3.3817 C.ar      1 RES1    0.0000
     57 C14E       6.2162   18.2804    3.4792 C.ar      1 RES1    0.0000
     58 H7E        5.6712   18.3251    2.7035 H         1 RES1    0.0000
     59 C15E       5.7281   18.7875    4.6723 C.ar      1 RES1    0.0000
     60 C16E       6.5129   18.6549    5.8135 C.ar      1 RES1    0.0000
     61 H8E        6.1857   18.9820    6.6430 H         1 RES1    0.0000
     62 C17E       7.7708   18.0507    5.7665 C.ar      1 RES1    0.0000
     63 C18E       7.9751   17.1926    2.0513 C.3       1 RES1    0.0000
     64 H9E        8.0250   16.2143    2.0759 H         1 RES1    0.0000
     65 H10E       8.8637   17.5609    1.8671 H         1 RES1    0.0000
     66 H11E       7.3550   17.4711    1.3457 H         1 RES1    0.0000
     67 C19E       4.3837   19.4668    4.7469 C.3       1 RES1    0.0000
     68 H12E       4.0180   19.3674    5.6509 H         1 RES1    0.0000
     69 H13E       3.7727   19.0542    4.1000 H         1 RES1    0.0000
     70 H14E       4.4866   20.4184    4.5393 H         1 RES1    0.0000
     71 C20E       8.5403   17.8379    7.0380 C.3       1 RES1    0.0000
     72 H15E       8.6359   16.8777    7.2054 H         1 RES1    0.0000
     73 H16E       8.0601   18.2528    7.7836 H         1 RES1    0.0000
     74 H17E       9.4286   18.2441    6.9544 H         1 RES1    0.0000
@<TRIPOS>BOND
     1    1    2 ar
     2    2    3 1
     3    4    2 ar
     4    5    4 1
     5    6    4 ar
     6    7    6 1
     7    8    6 ar
     8    9    8 1
     9   10    1 ar
    10   11   10 ar
    11   12   11 1
    12   13   11 ar
    13   14   13 ar
    14   15    1 ar
    15   16   15 1
    16   17   13 ar
    17   18   17 1
    18   19   18 ar
    19   20   19 ar
    20   21   20 1
    21   22   20 ar
    22   23   22 ar
    23   24   23 1
    24   25   18 ar
    25   26   19 1
    26   27   26 1
    27   28   26 1
    28   29   26 1
    29   30   22 1
    30   31   30 1
    31   32   30 1
    32   33   30 1
    33   34   25 1
    34   35   34 1
    35   36   34 1
    36   37   34 1
    37   38   39 ar
    38   39   40 1
    39   41   39 ar
    40   42   41 1
    41   43   41 ar
    42   44   43 1
    43   45   43 ar
    44   46   45 1
    45   47   38 ar
    46   48   47 ar
    47   49   48 1
    48   50   48 ar
    49   51   17 ar
    50   52   38 ar
    51   53   52 1
    52   54   14 ar
    53   55   54 1
    54   56   55 ar
    55   57   56 ar
    56   58   57 1
    57   59   57 ar
    58   60   59 ar
    59   61   60 1
    60   62   55 ar
    61   63   56 1
    62   64   63 1
    63   65   63 1
    64   66   63 1
    65   67   59 1
    66   68   67 1
    67   69   67 1
    68   70   67 1
    69   71   62 1
    70   72   71 1
    71   73   71 1
    72   74   71 1
    73    8   10 ar
    74   14   15 ar
    75   23   25 ar
    76   45   47 ar
    77   50   51 ar
    78   50   54 ar
    79   51   52 ar
    80   60   62 ar
@<TRIPOS>SUBSTRUCTURE
     1 RES1 1

@<TRIPOS>CRYSIN
  21.8964   21.8964   12.0694  90.0000  90.0000  90.0000  88 1

