# MOL2 file generated by ConQuest
# Please check atom types

@<TRIPOS>MOLECULE
WUSGUM
    32    36     1
SMALL
NO_CHARGES
****
Generated from CSD

@<TRIPOS>ATOM
      1 C1         2.5780    2.0227    4.7160 C.2       1 RES1    0.0000
      2 C2         2.8653    2.6325    5.9291 C.2       1 RES1    0.0000
      3 C3         2.1589    1.9570    6.9420 C.2       1 RES1    0.0000
      4 C4         2.1946    2.2651    8.2955 C.2       1 RES1    0.0000
      5 C5         1.5166    1.6603    9.3487 C.2       1 RES1    0.0000
      6 C6         0.6578    0.5972    9.3266 C.2       1 RES1    0.0000
      7 C7         0.2333   -0.1957    8.2604 C.2       1 RES1    0.0000
      8 C8         0.5637   -0.0821    6.9225 C.2       1 RES1    0.0000
      9 C9         1.3855    0.8485    6.2893 C.2       1 RES1    0.0000
     10 C10        1.6815    0.9343    4.9305 C.2       1 RES1    0.0000
     11 C11        1.4310    0.2715    3.6511 C.ar      1 RES1    0.0000
     12 C12        0.7098   -0.8005    3.2012 C.ar      1 RES1    0.0000
     13 C13        0.7658   -1.1427    1.8307 C.ar      1 RES1    0.0000
     14 C14        1.5191   -0.4495    0.9271 C.ar      1 RES1    0.0000
     15 C15        2.2795    0.6692    1.3471 C.ar      1 RES1    0.0000
     16 C16        3.1217    1.5075    0.5617 C.ar      1 RES1    0.0000
     17 C17        3.8016    2.5492    1.1312 C.ar      1 RES1    0.0000
     18 C18        3.7054    2.8598    2.4965 C.ar      1 RES1    0.0000
     19 C19        2.9119    2.0745    3.2987 C.ar      1 RES1    0.0000
     20 C20        2.2074    0.9924    2.6941 C.ar      1 RES1    0.0000
     21 H1         3.4404    3.3838    6.0721 H         1 RES1    0.0000
     22 H2         2.7742    3.0176    8.4776 H         1 RES1    0.0000
     23 H3         1.7015    2.0833   10.2589 H         1 RES1    0.0000
     24 H4         0.2962    0.3662   10.2199 H         1 RES1    0.0000
     25 H5        -0.3835   -1.0101    8.4906 H         1 RES1    0.0000
     26 H6         0.1873   -0.7954    6.3062 H         1 RES1    0.0000
     27 H7         0.1526   -1.3131    3.8487 H         1 RES1    0.0000
     28 H8         0.2102   -1.9065    1.5083 H         1 RES1    0.0000
     29 H9         1.5875   -0.7197    0.0130 H         1 RES1    0.0000
     30 H10        3.2507    1.2752   -0.3121 H         1 RES1    0.0000
     31 H11        4.4091    3.0934    0.5331 H         1 RES1    0.0000
     32 H12        4.1728    3.6489    2.9255 H         1 RES1    0.0000
@<TRIPOS>BOND
     1    1    2 1
     2    2    3 2
     3    3    4 1
     4    4    5 2
     5    5    6 1
     6    6    7 2
     7    7    8 1
     8    8    9 2
     9    9    3 1
    10   10    1 2
    11   11   10 1
    12   12   11 ar
    13   13   12 ar
    14   14   13 ar
    15   15   14 ar
    16   16   15 ar
    17   17   16 ar
    18   18   17 ar
    19   19    1 1
    20   20   11 ar
    21   21    2 1
    22   22    4 1
    23   23    5 1
    24   24    6 1
    25   25    7 1
    26   26    8 1
    27   27   12 1
    28   28   13 1
    29   29   14 1
    30   30   16 1
    31   31   17 1
    32   32   18 1
    33    9   10 1
    34   15   20 ar
    35   18   19 ar
    36   19   20 ar
@<TRIPOS>SUBSTRUCTURE
     1 RES1 1

@<TRIPOS>CRYSIN
   8.0700   12.6260   13.2030  90.0000 100.0000  90.0000  14 2

