# MOL2 file generated by ConQuest
# Please check atom types

@<TRIPOS>MOLECULE
WUXMUZ
   114   121     1
SMALL
NO_CHARGES
****
Generated from CSD

@<TRIPOS>ATOM
      1 C1         3.9402    0.0344    2.1505 C.ar      1 RES1    0.0000
      2 C2         5.6830   -0.2757    0.4553 C.ar      1 RES1    0.0000
      3 C3         4.3845   -3.6867    1.6069 C.ar      1 RES1    0.0000
      4 C4         4.5625   -2.2183    1.4357 C.ar      1 RES1    0.0000
      5 C5         5.4939   -1.6869    0.5163 C.ar      1 RES1    0.0000
      6 C6         3.1008    0.8986    3.0270 C.ar      1 RES1    0.0000
      7 C7         6.2134   -2.5152   -0.4124 C.ar      1 RES1    0.0000
      8 H1         6.0462   -3.4506   -0.4268 H         1 RES1    0.0000
      9 C8         2.2973    1.9175    2.5161 C.ar      1 RES1    0.0000
     10 H2         2.2599    2.0579    1.5772 H         1 RES1    0.0000
     11 C9         4.0259   -6.4478    2.1165 C.ar      1 RES1    0.0000
     12 C10        4.9169    0.5901    1.2905 C.ar      1 RES1    0.0000
     13 C11        1.5482    2.7336    3.3631 C.ar      1 RES1    0.0000
     14 H3         1.0048    3.4166    2.9897 H         1 RES1    0.0000
     15 C12        3.8016   -1.3486    2.2146 C.ar      1 RES1    0.0000
     16 H4         3.1624   -1.7157    2.8134 H         1 RES1    0.0000
     17 C13        0.8114    3.4735    5.7222 C.3       1 RES1    0.0000
     18 C14        2.9474   -5.6221    1.8110 C.ar      1 RES1    0.0000
     19 H5         2.0738   -5.9916    1.7743 H         1 RES1    0.0000
     20 C15        5.2975   -5.8680    2.1239 C.ar      1 RES1    0.0000
     21 H6         6.0561   -6.4124    2.2985 H         1 RES1    0.0000
     22 C16        5.2058    1.9919    1.2671 C.ar      1 RES1    0.0000
     23 H7         4.7480    2.5691    1.8671 H         1 RES1    0.0000
     24 C17        1.5795    2.5673    4.7504 C.ar      1 RES1    0.0000
     25 C18        3.1252   -4.2651    1.5577 C.ar      1 RES1    0.0000
     26 H8         2.3709   -3.7262    1.3476 H         1 RES1    0.0000
     27 C19        5.4749   -4.5165    1.8815 C.ar      1 RES1    0.0000
     28 H9         6.3508   -4.1485    1.9019 H         1 RES1    0.0000
     29 C20        2.3750    1.5318    5.2493 C.ar      1 RES1    0.0000
     30 H10        2.4128    1.3883    6.1882 H         1 RES1    0.0000
     31 C21        3.1112    0.7082    4.4110 C.ar      1 RES1    0.0000
     32 H11        3.6297    0.0044    4.7826 H         1 RES1    0.0000
     33 C22       -0.0166    2.6107    6.6931 C.3       1 RES1    0.0000
     34 H12       -0.6103    2.0224    6.1812 H         1 RES1    0.0000
     35 H13       -0.5523    3.1928    7.2713 H         1 RES1    0.0000
     36 H14        0.5856    2.0683    7.2435 H         1 RES1    0.0000
     37 C23        3.8683   -7.9354    2.4261 C.3       1 RES1    0.0000
     38 C24       -0.1419    4.4386    5.0078 C.3       1 RES1    0.0000
     39 H15        0.3699    5.0137    4.4022 H         1 RES1    0.0000
     40 H16       -0.6041    4.9930    5.6709 H         1 RES1    0.0000
     41 H17       -0.8014    3.9262    4.4950 H         1 RES1    0.0000
     42 C25        4.6352   -8.2764    3.7101 C.3       1 RES1    0.0000
     43 H18        5.5925   -8.1266    3.5672 H         1 RES1    0.0000
     44 H19        4.4817   -9.2156    3.9430 H         1 RES1    0.0000
     45 H20        4.3202   -7.7043    4.4417 H         1 RES1    0.0000
     46 C26        1.8314    4.3049    6.5198 C.3       1 RES1    0.0000
     47 H21        2.4264    3.7040    7.0162 H         1 RES1    0.0000
     48 H22        1.3574    4.8878    7.1484 H         1 RES1    0.0000
     49 H23        2.3598    4.8522    5.9029 H         1 RES1    0.0000
     50 C27        2.4081   -8.3221    2.6583 C.3       1 RES1    0.0000
     51 H24        2.0368   -7.7769    3.3840 H         1 RES1    0.0000
     52 H25        2.3561   -9.2704    2.9039 H         1 RES1    0.0000
     53 H26        1.8950   -8.1681    1.8370 H         1 RES1    0.0000
     54 C28        4.4294   -8.7497    1.2478 C.3       1 RES1    0.0000
     55 H27        3.9441   -8.5162    0.4291 H         1 RES1    0.0000
     56 H28        4.3202   -9.7060    1.4311 H         1 RES1    0.0000
     57 H29        5.3817   -8.5459    1.1342 H         1 RES1    0.0000
     58 C1D        8.3890   -0.0344   -2.1505 C.ar      1 RES1    0.0000
     59 C2D        6.6462    0.2757   -0.4553 C.ar      1 RES1    0.0000
     60 C3D        7.9447    3.6867   -1.6069 C.ar      1 RES1    0.0000
     61 C4D        7.7667    2.2183   -1.4357 C.ar      1 RES1    0.0000
     62 C5D        6.8353    1.6869   -0.5163 C.ar      1 RES1    0.0000
     63 C6D        9.2284   -0.8986   -3.0270 C.ar      1 RES1    0.0000
     64 C7D        6.1158    2.5152    0.4124 C.ar      1 RES1    0.0000
     65 H1D        6.2830    3.4506    0.4268 H         1 RES1    0.0000
     66 C8D       10.0319   -1.9175   -2.5161 C.ar      1 RES1    0.0000
     67 H2D       10.0693   -2.0579   -1.5772 H         1 RES1    0.0000
     68 C9D        8.3033    6.4478   -2.1165 C.ar      1 RES1    0.0000
     69 C10D       7.4123   -0.5901   -1.2905 C.ar      1 RES1    0.0000
     70 C11D      10.7810   -2.7336   -3.3631 C.ar      1 RES1    0.0000
     71 H3D       11.3244   -3.4166   -2.9897 H         1 RES1    0.0000
     72 C12D       8.5276    1.3486   -2.2146 C.ar      1 RES1    0.0000
     73 H4D        9.1668    1.7157   -2.8134 H         1 RES1    0.0000
     74 C13D      11.5178   -3.4735   -5.7222 C.3       1 RES1    0.0000
     75 C14D       9.3818    5.6221   -1.8110 C.ar      1 RES1    0.0000
     76 H5D       10.2554    5.9916   -1.7743 H         1 RES1    0.0000
     77 C15D       7.0317    5.8680   -2.1239 C.ar      1 RES1    0.0000
     78 H6D        6.2731    6.4124   -2.2985 H         1 RES1    0.0000
     79 C16D       7.1234   -1.9919   -1.2671 C.ar      1 RES1    0.0000
     80 H7D        7.5812   -2.5691   -1.8671 H         1 RES1    0.0000
     81 C17D      10.7497   -2.5673   -4.7504 C.ar      1 RES1    0.0000
     82 C18D       9.2040    4.2651   -1.5577 C.ar      1 RES1    0.0000
     83 H8D        9.9583    3.7262   -1.3476 H         1 RES1    0.0000
     84 C19D       6.8543    4.5165   -1.8815 C.ar      1 RES1    0.0000
     85 H9D        5.9784    4.1485   -1.9019 H         1 RES1    0.0000
     86 C20D       9.9542   -1.5318   -5.2493 C.ar      1 RES1    0.0000
     87 H10D       9.9164   -1.3883   -6.1882 H         1 RES1    0.0000
     88 C21D       9.2180   -0.7082   -4.4110 C.ar      1 RES1    0.0000
     89 H11D       8.6995   -0.0044   -4.7826 H         1 RES1    0.0000
     90 C22D      12.3458   -2.6107   -6.6931 C.3       1 RES1    0.0000
     91 H12D      12.9395   -2.0224   -6.1812 H         1 RES1    0.0000
     92 H13D      12.8815   -3.1928   -7.2713 H         1 RES1    0.0000
     93 H14D      11.7436   -2.0683   -7.2435 H         1 RES1    0.0000
     94 C23D       8.4609    7.9354   -2.4261 C.3       1 RES1    0.0000
     95 C24D      12.4711   -4.4386   -5.0078 C.3       1 RES1    0.0000
     96 H15D      11.9593   -5.0137   -4.4022 H         1 RES1    0.0000
     97 H16D      12.9333   -4.9930   -5.6709 H         1 RES1    0.0000
     98 H17D      13.1306   -3.9262   -4.4950 H         1 RES1    0.0000
     99 C25D       7.6940    8.2764   -3.7101 C.3       1 RES1    0.0000
    100 H18D       6.7367    8.1266   -3.5672 H         1 RES1    0.0000
    101 H19D       7.8475    9.2156   -3.9430 H         1 RES1    0.0000
    102 H20D       8.0090    7.7043   -4.4417 H         1 RES1    0.0000
    103 C26D      10.4978   -4.3049   -6.5198 C.3       1 RES1    0.0000
    104 H21D       9.9028   -3.7040   -7.0162 H         1 RES1    0.0000
    105 H22D      10.9718   -4.8878   -7.1484 H         1 RES1    0.0000
    106 H23D       9.9694   -4.8522   -5.9029 H         1 RES1    0.0000
    107 C27D       9.9211    8.3221   -2.6583 C.3       1 RES1    0.0000
    108 H24D      10.2924    7.7769   -3.3840 H         1 RES1    0.0000
    109 H25D       9.9731    9.2704   -2.9039 H         1 RES1    0.0000
    110 H26D      10.4342    8.1681   -1.8370 H         1 RES1    0.0000
    111 C28D       7.8998    8.7497   -1.2478 C.3       1 RES1    0.0000
    112 H27D       8.3851    8.5162   -0.4291 H         1 RES1    0.0000
    113 H28D       8.0090    9.7060   -1.4311 H         1 RES1    0.0000
    114 H29D       6.9475    8.5459   -1.1342 H         1 RES1    0.0000
@<TRIPOS>BOND
     1    1    6 1
     2    2    5 ar
     3    3    4 1
     4    4    5 ar
     5    5    7 ar
     6    6    9 ar
     7    7    8 1
     8    9   10 1
     9   11   18 ar
    10   12    1 ar
    11   13    9 ar
    12   14   13 1
    13   15    1 ar
    14   16   15 1
    15   17   24 1
    16   18   19 1
    17   20   11 ar
    18   21   20 1
    19   22   12 ar
    20   23   22 1
    21   24   13 ar
    22   25    3 ar
    23   26   25 1
    24   27    3 ar
    25   28   27 1
    26   29   24 ar
    27   30   29 1
    28   31    6 ar
    29   32   31 1
    30   33   17 1
    31   34   33 1
    32   35   33 1
    33   36   33 1
    34   37   11 1
    35   38   17 1
    36   39   38 1
    37   40   38 1
    38   41   38 1
    39   42   37 1
    40   43   42 1
    41   44   42 1
    42   45   42 1
    43   46   17 1
    44   47   46 1
    45   48   46 1
    46   49   46 1
    47   50   37 1
    48   51   50 1
    49   52   50 1
    50   53   50 1
    51   54   37 1
    52   55   54 1
    53   56   54 1
    54   57   54 1
    55   58   63 1
    56   59    2 ar
    57   60   61 1
    58   61   62 ar
    59   62   59 ar
    60   63   66 ar
    61   64   22 ar
    62   65   64 1
    63   66   67 1
    64   68   75 ar
    65   69   58 ar
    66   70   66 ar
    67   71   70 1
    68   72   58 ar
    69   73   72 1
    70   74   81 1
    71   75   76 1
    72   77   68 ar
    73   78   77 1
    74   79    7 ar
    75   80   79 1
    76   81   70 ar
    77   82   60 ar
    78   83   82 1
    79   84   60 ar
    80   85   84 1
    81   86   81 ar
    82   87   86 1
    83   88   63 ar
    84   89   88 1
    85   90   74 1
    86   91   90 1
    87   92   90 1
    88   93   90 1
    89   94   68 1
    90   95   74 1
    91   96   95 1
    92   97   95 1
    93   98   95 1
    94   99   94 1
    95  100   99 1
    96  101   99 1
    97  102   99 1
    98  103   74 1
    99  104  103 1
   100  105  103 1
   101  106  103 1
   102  107   94 1
   103  108  107 1
   104  109  107 1
   105  110  107 1
   106  111   94 1
   107  112  111 1
   108  113  111 1
   109  114  111 1
   110    2   12 ar
   111    4   15 ar
   112   18   25 ar
   113   20   27 ar
   114   29   31 ar
   115   59   69 ar
   116   61   72 ar
   117   62   64 ar
   118   69   79 ar
   119   75   82 ar
   120   77   84 ar
   121   86   88 ar
@<TRIPOS>SUBSTRUCTURE
     1 RES1 1

@<TRIPOS>CRYSIN
  12.3292   14.8160   23.1940  90.0000  90.0000  90.0000  61 3

