# MOL2 file generated by ConQuest
# Please check atom types

@<TRIPOS>MOLECULE
XAHTAB
    72    80     1
SMALL
NO_CHARGES
****
Generated from CSD

@<TRIPOS>ATOM
      1 C1        13.4857    5.2407    7.4325 C.ar      1 RES1    0.0000
      2 C2        13.9769    6.4026    8.0036 C.ar      1 RES1    0.0000
      3 C3        14.8311    6.3763    9.1191 C.ar      1 RES1    0.0000
      4 C4        15.1965    5.2035    9.6690 C.ar      1 RES1    0.0000
      5 C5        15.0852    2.7639    9.7727 C.ar      1 RES1    0.0000
      6 C6        14.6520    1.5607    9.3179 C.ar      1 RES1    0.0000
      7 C7        13.7494    1.5274    8.2463 C.ar      1 RES1    0.0000
      8 C8        13.2897    2.6639    7.6289 C.ar      1 RES1    0.0000
      9 C9        13.7971    3.9570    8.0287 C.ar      1 RES1    0.0000
     10 C10       14.6980    3.9791    9.1537 C.ar      1 RES1    0.0000
     11 C11       12.6242    5.4332    6.2250 C.ar      1 RES1    0.0000
     12 C12       11.4966    6.2460    6.3185 C.ar      1 RES1    0.0000
     13 C13       10.5916    6.3329    5.2823 C.ar      1 RES1    0.0000
     14 C14       10.7924    5.6444    4.0811 C.ar      1 RES1    0.0000
     15 C15       11.9975    4.9592    3.9342 C.ar      1 RES1    0.0000
     16 C16       12.8928    4.8504    4.9854 C.ar      1 RES1    0.0000
     17 C17        9.7349    5.5862    3.0481 C.ar      1 RES1    0.0000
     18 C18        8.3944    5.5320    3.4024 C.ar      1 RES1    0.0000
     19 C19        7.3974    5.3447    2.4620 C.ar      1 RES1    0.0000
     20 C20        7.7095    5.2110    1.1116 C.ar      1 RES1    0.0000
     21 C21        9.0380    5.3407    0.7479 C.ar      1 RES1    0.0000
     22 C22       10.0350    5.5098    1.6890 C.ar      1 RES1    0.0000
     23 C23        6.6908    4.9974    0.0338 C.ar      1 RES1    0.0000
     24 C24        6.4174    6.1026   -0.7400 C.ar      1 RES1    0.0000
     25 C25        5.5244    6.0641   -1.8328 C.ar      1 RES1    0.0000
     26 C26        4.8953    4.9034   -2.1344 C.ar      1 RES1    0.0000
     27 C27        4.4888    2.5214   -1.7550 C.ar      1 RES1    0.0000
     28 C28        4.7114    1.3577   -1.0880 C.ar      1 RES1    0.0000
     29 C29        5.6067    1.3577   -0.0055 C.ar      1 RES1    0.0000
     30 C30        6.2698    2.4811    0.4124 C.ar      1 RES1    0.0000
     31 C31        6.0563    3.7348   -0.2710 C.ar      1 RES1    0.0000
     32 C32        5.1397    3.7191   -1.3803 C.ar      1 RES1    0.0000
     33 C33        7.2304    2.2902    1.5445 C.ar      1 RES1    0.0000
     34 C34        8.5662    2.0741    1.2774 C.ar      1 RES1    0.0000
     35 C35        9.5002    1.9562    2.2876 C.ar      1 RES1    0.0000
     36 C36        9.1324    2.0293    3.6318 C.ar      1 RES1    0.0000
     37 C37        7.7700    2.1368    3.9005 C.ar      1 RES1    0.0000
     38 C38        6.8408    2.2693    2.8808 C.ar      1 RES1    0.0000
     39 C39       10.1584    2.0908    4.6970 C.ar      1 RES1    0.0000
     40 C40       11.4143    1.5125    4.5305 C.ar      1 RES1    0.0000
     41 C41       12.4282    1.6813    5.4622 C.ar      1 RES1    0.0000
     42 C42       12.2201    2.4572    6.5997 C.ar      1 RES1    0.0000
     43 C43       10.9545    2.9899    6.7961 C.ar      1 RES1    0.0000
     44 C44        9.9527    2.8139    5.8605 C.ar      1 RES1    0.0000
     45 H1        13.7180    7.2673    7.6006 H         1 RES1    0.0000
     46 H2        15.1408    7.2188    9.5151 H         1 RES1    0.0000
     47 H3        15.8571    5.1762   10.4106 H         1 RES1    0.0000
     48 H4        15.6974    2.8063   10.5607 H         1 RES1    0.0000
     49 H5        14.9690    0.7516    9.7342 H         1 RES1    0.0000
     50 H6        13.4276    0.6516    7.9227 H         1 RES1    0.0000
     51 H7        11.3369    6.7612    7.1253 H         1 RES1    0.0000
     52 H8         9.7858    6.8672    5.3884 H         1 RES1    0.0000
     53 H9        12.1669    4.5186    3.0897 H         1 RES1    0.0000
     54 H10       13.7301    4.3579    4.8471 H         1 RES1    0.0000
     55 H11        8.1548    5.6217    4.3372 H         1 RES1    0.0000
     56 H12        6.4585    5.3338    2.7315 H         1 RES1    0.0000
     57 H13        9.2728    5.2883   -0.1901 H         1 RES1    0.0000
     58 H14       10.9594    5.6005    1.4101 H         1 RES1    0.0000
     59 H15        6.8457    6.9521   -0.5036 H         1 RES1    0.0000
     60 H16        5.3817    6.8824   -2.3544 H         1 RES1    0.0000
     61 H17        4.2347    4.8943   -2.8619 H         1 RES1    0.0000
     62 H18        3.8185    2.5396   -2.4848 H         1 RES1    0.0000
     63 H19        4.2686    0.5485   -1.3842 H         1 RES1    0.0000
     64 H20        5.7737    0.5152    0.4541 H         1 RES1    0.0000
     65 H21        8.8590    1.9850    0.3496 H         1 RES1    0.0000
     66 H22       10.4367    1.8274    2.0732 H         1 RES1    0.0000
     67 H23        7.4724    2.1214    4.8282 H         1 RES1    0.0000
     68 H24        5.8947    2.3335    3.0921 H         1 RES1    0.0000
     69 H25       11.5595    0.9577    3.7449 H         1 RES1    0.0000
     70 H26       13.2921    1.2486    5.2996 H         1 RES1    0.0000
     71 H27       10.7634    3.5003    7.6069 H         1 RES1    0.0000
     72 H28        9.0816    3.2275    5.9925 H         1 RES1    0.0000
@<TRIPOS>BOND
     1    1    2 ar
     2    2    3 ar
     3    3    4 ar
     4    4   10 ar
     5    5    6 ar
     6    6    7 ar
     7    7    8 ar
     8    8    9 ar
     9    9    1 ar
    10   10    5 ar
    11   11    1 1
    12   12   11 ar
    13   13   12 ar
    14   14   13 ar
    15   15   14 ar
    16   16   11 ar
    17   17   14 1
    18   18   17 ar
    19   19   18 ar
    20   20   19 ar
    21   21   20 ar
    22   22   17 ar
    23   23   20 1
    24   24   23 ar
    25   25   24 ar
    26   26   25 ar
    27   27   28 ar
    28   28   29 ar
    29   29   30 ar
    30   30   31 ar
    31   31   23 ar
    32   32   26 ar
    33   33   30 1
    34   34   33 ar
    35   35   34 ar
    36   36   35 ar
    37   37   36 ar
    38   38   33 ar
    39   39   36 1
    40   40   39 ar
    41   41   40 ar
    42   42    8 1
    43   43   42 ar
    44   44   39 ar
    45   45    2 1
    46   46    3 1
    47   47    4 1
    48   48    5 1
    49   49    6 1
    50   50    7 1
    51   51   12 1
    52   52   13 1
    53   53   15 1
    54   54   16 1
    55   55   18 1
    56   56   19 1
    57   57   21 1
    58   58   22 1
    59   59   24 1
    60   60   25 1
    61   61   26 1
    62   62   27 1
    63   63   28 1
    64   64   29 1
    65   65   34 1
    66   66   35 1
    67   67   37 1
    68   68   38 1
    69   69   40 1
    70   70   41 1
    71   71   43 1
    72   72   44 1
    73    9   10 ar
    74   15   16 ar
    75   21   22 ar
    76   27   32 ar
    77   31   32 ar
    78   37   38 ar
    79   41   42 ar
    80   43   44 ar
@<TRIPOS>SUBSTRUCTURE
     1 RES1 1

@<TRIPOS>CRYSIN
  24.1982   30.3055    7.8559  90.0000  90.0000  90.0000  61 1

