# MOL2 file generated by ConQuest
# Please check atom types

@<TRIPOS>MOLECULE
XASBIF
    68    74     1
SMALL
NO_CHARGES
****
Generated from CSD

@<TRIPOS>ATOM
      1 C1         3.2866    0.9830   -2.6095 C.ar      1 RES1    0.0000
      2 H1         3.8854    0.5336   -3.1933 H         1 RES1    0.0000
      3 C2         1.9731    1.1914   -3.0014 C.ar      1 RES1    0.0000
      4 H2         1.6771    0.8859   -3.8509 H         1 RES1    0.0000
      5 C3         1.0897    1.8461   -2.1544 C.ar      1 RES1    0.0000
      6 H3         0.1848    1.9743   -2.4153 H         1 RES1    0.0000
      7 C4         1.5332    2.3108   -0.9308 C.ar      1 RES1    0.0000
      8 H4         0.9310    2.7728   -0.3589 H         1 RES1    0.0000
      9 C5         2.8473    2.1127   -0.5240 C.ar      1 RES1    0.0000
     10 H5         3.1389    2.4402    0.3182 H         1 RES1    0.0000
     11 C6         3.7388    1.4301   -1.3576 C.ar      1 RES1    0.0000
     12 C7         5.0814    1.1470   -0.9165 C.1       1 RES1    0.0000
     13 C8         6.1886    0.8532   -0.5607 C.1       1 RES1    0.0000
     14 C9         7.5343    0.4412   -0.2598 C.ar      1 RES1    0.0000
     15 C10        8.1315    0.7082    0.9960 C.ar      1 RES1    0.0000
     16 C11        7.4497    1.4198    2.0316 C.ar      1 RES1    0.0000
     17 H6         6.5577    1.7140    1.8896 H         1 RES1    0.0000
     18 C12        8.0636    1.6829    3.2229 C.ar      1 RES1    0.0000
     19 H7         7.5832    2.1481    3.8975 H         1 RES1    0.0000
     20 C13        9.4087    1.2783    3.4837 C.ar      1 RES1    0.0000
     21 C14       10.0681    0.5737    2.5113 C.ar      1 RES1    0.0000
     22 H8        10.9532    0.2752    2.6811 H         1 RES1    0.0000
     23 C15        9.4701    0.2733    1.2544 C.ar      1 RES1    0.0000
     24 C16       10.1186    1.6306    4.7447 C.ar      1 RES1    0.0000
     25 C17       11.5099    1.8091    4.7490 C.ar      1 RES1    0.0000
     26 H9        11.9911    1.7124    3.9363 H         1 RES1    0.0000
     27 C18       12.2013    2.1221    5.9073 C.ar      1 RES1    0.0000
     28 H10       13.1462    2.2255    5.8841 H         1 RES1    0.0000
     29 C19       11.5116    2.2849    7.1026 C.ar      1 RES1    0.0000
     30 H11       11.9787    2.4945    7.9017 H         1 RES1    0.0000
     31 C20       10.1336    2.1378    7.1135 C.ar      1 RES1    0.0000
     32 H12        9.6563    2.2621    7.9250 H         1 RES1    0.0000
     33 C21        9.4429    1.8107    5.9557 C.ar      1 RES1    0.0000
     34 H13        8.5000    1.7081    5.9849 H         1 RES1    0.0000
     35 C1B       14.4404   -0.9830    2.6095 C.ar      1 RES1    0.0000
     36 H1B       13.8416   -0.5336    3.1933 H         1 RES1    0.0000
     37 C2B       15.7539   -1.1914    3.0014 C.ar      1 RES1    0.0000
     38 H2B       16.0499   -0.8859    3.8509 H         1 RES1    0.0000
     39 C3B       16.6373   -1.8461    2.1544 C.ar      1 RES1    0.0000
     40 H3B       17.5422   -1.9743    2.4153 H         1 RES1    0.0000
     41 C4B       16.1938   -2.3108    0.9308 C.ar      1 RES1    0.0000
     42 H4B       16.7960   -2.7728    0.3589 H         1 RES1    0.0000
     43 C5B       14.8797   -2.1127    0.5240 C.ar      1 RES1    0.0000
     44 H5B       14.5881   -2.4402   -0.3182 H         1 RES1    0.0000
     45 C6B       13.9882   -1.4301    1.3576 C.ar      1 RES1    0.0000
     46 C7B       12.6456   -1.1470    0.9165 C.1       1 RES1    0.0000
     47 C8B       11.5384   -0.8532    0.5607 C.1       1 RES1    0.0000
     48 C9B       10.1927   -0.4412    0.2598 C.ar      1 RES1    0.0000
     49 C10B       9.5955   -0.7082   -0.9960 C.ar      1 RES1    0.0000
     50 C11B      10.2773   -1.4198   -2.0316 C.ar      1 RES1    0.0000
     51 H6B       11.1693   -1.7140   -1.8896 H         1 RES1    0.0000
     52 C12B       9.6634   -1.6829   -3.2229 C.ar      1 RES1    0.0000
     53 H7B       10.1438   -2.1481   -3.8975 H         1 RES1    0.0000
     54 C13B       8.3183   -1.2783   -3.4837 C.ar      1 RES1    0.0000
     55 C14B       7.6589   -0.5737   -2.5113 C.ar      1 RES1    0.0000
     56 H8B        6.7738   -0.2752   -2.6811 H         1 RES1    0.0000
     57 C15B       8.2569   -0.2733   -1.2544 C.ar      1 RES1    0.0000
     58 C16B       7.6084   -1.6306   -4.7447 C.ar      1 RES1    0.0000
     59 C17B       6.2171   -1.8091   -4.7490 C.ar      1 RES1    0.0000
     60 H9B        5.7359   -1.7124   -3.9363 H         1 RES1    0.0000
     61 C18B       5.5257   -2.1221   -5.9073 C.ar      1 RES1    0.0000
     62 H10B       4.5808   -2.2255   -5.8841 H         1 RES1    0.0000
     63 C19B       6.2154   -2.2849   -7.1026 C.ar      1 RES1    0.0000
     64 H11B       5.7483   -2.4945   -7.9017 H         1 RES1    0.0000
     65 C20B       7.5934   -2.1378   -7.1135 C.ar      1 RES1    0.0000
     66 H12B       8.0707   -2.2621   -7.9250 H         1 RES1    0.0000
     67 C21B       8.2841   -1.8107   -5.9557 C.ar      1 RES1    0.0000
     68 H13B       9.2270   -1.7081   -5.9849 H         1 RES1    0.0000
@<TRIPOS>BOND
     1    1    2 1
     2    3    1 ar
     3    4    3 1
     4    5    3 ar
     5    6    5 1
     6    7    5 ar
     7    8    7 1
     8    9    7 ar
     9   10    9 1
    10   11    1 ar
    11   12   11 1
    12   13   12 3
    13   14   13 1
    14   15   14 ar
    15   16   15 ar
    16   17   16 1
    17   18   16 ar
    18   19   18 1
    19   20   18 ar
    20   21   20 ar
    21   22   21 1
    22   23   15 ar
    23   24   20 1
    24   25   24 ar
    25   26   25 1
    26   27   25 ar
    27   28   27 1
    28   29   27 ar
    29   30   29 1
    30   31   29 ar
    31   32   31 1
    32   33   24 ar
    33   34   33 1
    34   35   36 1
    35   37   35 ar
    36   38   37 1
    37   39   37 ar
    38   40   39 1
    39   41   39 ar
    40   42   41 1
    41   43   41 ar
    42   44   43 1
    43   45   35 ar
    44   46   45 1
    45   47   46 3
    46   48   23 ar
    47   49   48 ar
    48   50   49 ar
    49   51   50 1
    50   52   50 ar
    51   53   52 1
    52   54   52 ar
    53   55   54 ar
    54   56   55 1
    55   57   14 ar
    56   58   54 1
    57   59   58 ar
    58   60   59 1
    59   61   59 ar
    60   62   61 1
    61   63   61 ar
    62   64   63 1
    63   65   63 ar
    64   66   65 1
    65   67   58 ar
    66   68   67 1
    67    9   11 ar
    68   21   23 ar
    69   31   33 ar
    70   43   45 ar
    71   47   48 1
    72   49   57 ar
    73   55   57 ar
    74   65   67 ar
@<TRIPOS>SUBSTRUCTURE
     1 RES1 1

@<TRIPOS>CRYSIN
  17.7270    3.9320   20.7970  90.0000 111.1190  90.0000  14 1

