# MOL2 file generated by ConQuest
# Please check atom types

@<TRIPOS>MOLECULE
XATKOV
    40    44     1
SMALL
NO_CHARGES
****
Generated from CSD

@<TRIPOS>ATOM
      1 C1        -6.9189   -3.0021  -24.6915 C.ar      1 RES1    0.0000
      2 H1        -7.6654   -3.2559  -25.1888 H         1 RES1    0.0000
      3 C2        -5.7859   -2.8643  -25.3023 C.ar      1 RES1    0.0000
      4 H2        -5.6690   -3.1036  -26.1934 H         1 RES1    0.0000
      5 C3        -4.6262   -2.2842  -24.4479 C.ar      1 RES1    0.0000
      6 H3        -3.7609   -2.2001  -24.7816 H         1 RES1    0.0000
      7 C4        -4.9410   -1.9216  -23.2213 C.ar      1 RES1    0.0000
      8 H4        -4.2704   -1.5475  -22.6956 H         1 RES1    0.0000
      9 C5        -6.2564   -2.0522  -22.6372 C.ar      1 RES1    0.0000
     10 C6        -7.0455   -2.8208  -23.5717 C.ar      1 RES1    0.0000
     11 H5        -7.7902   -3.2342  -23.1963 H         1 RES1    0.0000
     12 C7        -6.5440   -1.8491  -21.3038 C.ar      1 RES1    0.0000
     13 C8        -5.6711   -2.0812  -20.2074 C.ar      1 RES1    0.0000
     14 H6        -4.8217   -2.4089  -20.4077 H         1 RES1    0.0000
     15 C9        -5.9574   -1.8854  -18.8891 C.ar      1 RES1    0.0000
     16 C10       -7.3311   -1.2545  -18.5420 C.ar      1 RES1    0.0000
     17 C11       -8.1218   -1.0515  -19.5950 C.ar      1 RES1    0.0000
     18 H7        -8.9589   -0.6838  -19.4214 H         1 RES1    0.0000
     19 C12       -7.8416   -1.3053  -20.8466 C.ar      1 RES1    0.0000
     20 H8        -8.5002   -1.1428  -21.4841 H         1 RES1    0.0000
     21 C13       -5.0964   -2.1319  -17.8645 C.ar      1 RES1    0.0000
     22 H9        -4.2638   -2.4967  -18.0630 H         1 RES1    0.0000
     23 C14       -5.3977   -1.8564  -16.5161 C.ar      1 RES1    0.0000
     24 C15       -6.7230   -1.2835  -16.1606 C.ar      1 RES1    0.0000
     25 C16       -7.5479   -0.9790  -17.2437 C.ar      1 RES1    0.0000
     26 H10       -8.3411   -0.5323  -17.0451 H         1 RES1    0.0000
     27 C17       -4.5224   -2.0884  -15.4464 C.ar      1 RES1    0.0000
     28 H11       -3.6746   -2.4278  -15.6349 H         1 RES1    0.0000
     29 C18       -4.8543   -1.8346  -14.0997 C.ar      1 RES1    0.0000
     30 C19       -6.1255   -1.2473  -13.7976 C.ar      1 RES1    0.0000
     31 C20       -6.9591   -1.0152  -14.8523 C.ar      1 RES1    0.0000
     32 H12       -7.7794   -0.6207  -14.6537 H         1 RES1    0.0000
     33 C21       -3.8630   -2.1827  -13.0867 C.ar      1 RES1    0.0000
     34 H13       -3.0387   -2.5431  -13.3220 H         1 RES1    0.0000
     35 C22       -4.1657   -1.9724  -11.8585 C.ar      1 RES1    0.0000
     36 H14       -3.5517   -2.1813  -11.1909 H         1 RES1    0.0000
     37 C23       -5.4925   -1.3923  -11.4863 C.ar      1 RES1    0.0000
     38 H15       -5.7118   -1.2516  -10.5918 H         1 RES1    0.0000
     39 C24       -6.3700   -1.0660  -12.4642 C.ar      1 RES1    0.0000
     40 H16       -7.1880   -0.6954  -12.2173 H         1 RES1    0.0000
@<TRIPOS>BOND
     1    1    2 1
     2    3    1 ar
     3    4    3 1
     4    5    3 ar
     5    6    5 1
     6    7    5 ar
     7    8    7 1
     8    9    7 ar
     9   10    1 ar
    10   11   10 1
    11   12    9 1
    12   13   12 ar
    13   14   13 1
    14   15   13 ar
    15   16   15 ar
    16   17   16 ar
    17   18   17 1
    18   19   12 ar
    19   20   19 1
    20   21   15 ar
    21   22   21 1
    22   23   21 ar
    23   24   23 ar
    24   25   16 ar
    25   26   25 1
    26   27   23 ar
    27   28   27 1
    28   29   27 ar
    29   30   29 ar
    30   31   24 ar
    31   32   31 1
    32   33   29 ar
    33   34   33 1
    34   35   33 ar
    35   36   35 1
    36   37   35 ar
    37   38   37 1
    38   39   30 ar
    39   40   39 1
    40    9   10 ar
    41   17   19 ar
    42   24   25 ar
    43   30   31 ar
    44   37   39 ar
@<TRIPOS>SUBSTRUCTURE
     1 RES1 1

@<TRIPOS>CRYSIN
   6.1567    7.2515   16.7570  90.0000  95.2030  90.0000   4 1

