# MOL2 file generated by ConQuest
# Please check atom types

@<TRIPOS>MOLECULE
XAYFOS01
    28    30     1
SMALL
NO_CHARGES
****
Generated from CSD

@<TRIPOS>ATOM
      1 C1        -0.0802   11.5939    0.4124 C.ar      1 RES1    0.0000
      2 C2         0.4078   12.5141    1.3693 C.ar      1 RES1    0.0000
      3 C3        -0.5165   13.3597    2.0766 C.ar      1 RES1    0.0000
      4 C4        -1.8816   13.2761    1.8012 C.ar      1 RES1    0.0000
      5 H1        -2.5057   13.8699    2.2947 H         1 RES1    0.0000
      6 C5        -2.3732   12.4007    0.8375 C.ar      1 RES1    0.0000
      7 C6        -1.4641   11.5508    0.1204 C.ar      1 RES1    0.0000
      8 C7         0.8308   10.6597   -0.2931 C.2       1 RES1    0.0000
      9 H2         0.7925   10.6689   -1.2874 H         1 RES1    0.0000
     10 C8         1.6421    9.8006    0.3098 C.2       1 RES1    0.0000
     11 H3         1.6712    9.7523    1.2950 H         1 RES1    0.0000
     12 H4         2.2067    9.1791   -0.1988 H         1 RES1    0.0000
     13 C9         1.8054   12.6760    1.6549 C.ar      1 RES1    0.0000
     14 H5         2.4531   12.1490    1.1558 H         1 RES1    0.0000
     15 C10        2.2382   13.5690    2.5874 C.ar      1 RES1    0.0000
     16 H6         3.2063   13.7003    2.7460 H         1 RES1    0.0000
     17 C11        1.3135   14.3753    3.3063 C.ar      1 RES1    0.0000
     18 H7         1.6461   15.0177    3.9663 H         1 RES1    0.0000
     19 C12       -0.0187   14.2768    3.0544 C.ar      1 RES1    0.0000
     20 H8        -0.6691   14.8467    3.5226 H         1 RES1    0.0000
     21 C13       -2.0118   10.6717   -0.8648 C.ar      1 RES1    0.0000
     22 H9        -1.4104   10.0889   -1.3579 H         1 RES1    0.0000
     23 C14       -3.3514   10.6484   -1.1272 C.ar      1 RES1    0.0000
     24 H10       -3.7064   10.0656   -1.8267 H         1 RES1    0.0000
     25 C15       -4.2465   11.4812   -0.4076 C.ar      1 RES1    0.0000
     26 H11       -5.2003   11.4404   -0.6014 H         1 RES1    0.0000
     27 C16       -3.7732   12.3245    0.5482 C.ar      1 RES1    0.0000
     28 H12       -4.3810   12.9014    1.0442 H         1 RES1    0.0000
@<TRIPOS>BOND
     1    1    2 ar
     2    2    3 ar
     3    3    4 ar
     4    4    5 1
     5    6    4 ar
     6    7    1 ar
     7    8    1 1
     8    9    8 1
     9   10    8 2
    10   11   10 1
    11   12   10 1
    12   13    2 ar
    13   14   13 1
    14   15   13 ar
    15   16   15 1
    16   17   15 ar
    17   18   17 1
    18   19    3 ar
    19   20   19 1
    20   21    7 ar
    21   22   21 1
    22   23   21 ar
    23   24   23 1
    24   25   23 ar
    25   26   25 1
    26   27    6 ar
    27   28   27 1
    28    6    7 ar
    29   17   19 ar
    30   25   27 ar
@<TRIPOS>SUBSTRUCTURE
     1 RES1 1

@<TRIPOS>CRYSIN
   9.3213   13.6798    8.8957  90.0000 109.4670  90.0000  14 1

