# MOL2 file generated by ConQuest
# Please check atom types

@<TRIPOS>MOLECULE
XAYFOS
    28    30     1
SMALL
NO_CHARGES
****
Generated from CSD

@<TRIPOS>ATOM
      1 C1        -0.0954   11.8463    0.4417 C.ar      1 RES1    0.0000
      2 C2         0.3867   12.7787    1.3867 C.ar      1 RES1    0.0000
      3 C3        -0.5470   13.6301    2.0826 C.ar      1 RES1    0.0000
      4 C4        -1.8980   13.5394    1.8038 C.ar      1 RES1    0.0000
      5 H1        -2.5036   14.1391    2.2797 H         1 RES1    0.0000
      6 C5        -2.3894   12.6548    0.8502 C.ar      1 RES1    0.0000
      7 C6        -1.4747   11.7947    0.1487 C.ar      1 RES1    0.0000
      8 C7         0.8207   10.9077   -0.2562 C.2       1 RES1    0.0000
      9 H2         0.7947   10.9555   -1.2580 H         1 RES1    0.0000
     10 C8         1.6040   10.0349    0.3276 C.2       1 RES1    0.0000
     11 H3         1.6281   10.0065    1.3509 H         1 RES1    0.0000
     12 H4         2.1581    9.4223   -0.1773 H         1 RES1    0.0000
     13 C9         1.7748   12.9506    1.6719 C.ar      1 RES1    0.0000
     14 H5         2.4273   12.3824    1.1905 H         1 RES1    0.0000
     15 C10        2.1980   13.8533    2.5917 C.ar      1 RES1    0.0000
     16 H6         3.1593   13.9938    2.7356 H         1 RES1    0.0000
     17 C11        1.2717   14.6597    3.2954 C.ar      1 RES1    0.0000
     18 H7         1.6042   15.2781    3.9092 H         1 RES1    0.0000
     19 C12       -0.0457   14.5587    3.0471 C.ar      1 RES1    0.0000
     20 H8        -0.6979   15.1300    3.5040 H         1 RES1    0.0000
     21 C13       -2.0197   10.9081   -0.8232 C.ar      1 RES1    0.0000
     22 H9        -1.4024   10.3028   -1.2749 H         1 RES1    0.0000
     23 C14       -3.3499   10.8834   -1.0858 C.ar      1 RES1    0.0000
     24 H10       -3.6862   10.3000   -1.7815 H         1 RES1    0.0000
     25 C15       -4.2429   11.7232   -0.3859 C.ar      1 RES1    0.0000
     26 H11       -5.1850   11.6780   -0.6079 H         1 RES1    0.0000
     27 C16       -3.7797   12.5729    0.5547 C.ar      1 RES1    0.0000
     28 H12       -4.3814   13.1860    1.0470 H         1 RES1    0.0000
@<TRIPOS>BOND
     1    1    2 ar
     2    2    3 ar
     3    3    4 ar
     4    4    5 1
     5    6    4 ar
     6    7    1 ar
     7    8    1 1
     8    9    8 1
     9   10    8 2
    10   11   10 1
    11   12   10 1
    12   13    2 ar
    13   14   13 1
    14   15   13 ar
    15   16   15 1
    16   17   15 ar
    17   18   17 1
    18   19    3 ar
    19   20   19 1
    20   21    7 ar
    21   22   21 1
    22   23   21 ar
    23   24   23 1
    24   25   23 ar
    25   26   25 1
    26   27    6 ar
    27   28   27 1
    28    6    7 ar
    29   17   19 ar
    30   25   27 ar
@<TRIPOS>SUBSTRUCTURE
     1 RES1 1

@<TRIPOS>CRYSIN
   9.3873   13.9756    8.9889  90.0000 110.0660  90.0000  14 1

