# MOL2 file generated by ConQuest
# Please check atom types

@<TRIPOS>MOLECULE
XECJIZ
    50    55     1
SMALL
NO_CHARGES
****
Generated from CSD

@<TRIPOS>ATOM
      1 C1        -0.1670    2.1543    4.1311 C.ar      1 RES1    0.0000
      2 C2        -0.7362    1.6966    5.2706 C.ar      1 RES1    0.0000
      3 C3        -0.7419    0.3016    5.5622 C.ar      1 RES1    0.0000
      4 C4        -0.1208   -0.5735    4.7343 C.ar      1 RES1    0.0000
      5 C5         0.5158   -0.1394    3.5279 C.ar      1 RES1    0.0000
      6 C6         1.1881   -1.0316    2.6820 C.ar      1 RES1    0.0000
      7 C7         1.7328   -0.5795    1.4618 C.ar      1 RES1    0.0000
      8 C8         2.4020   -1.4670    0.5746 C.ar      1 RES1    0.0000
      9 C9         2.8819   -1.0412   -0.6742 C.ar      1 RES1    0.0000
     10 C10        3.5112   -1.9348   -1.5848 C.ar      1 RES1    0.0000
     11 C11        3.9431   -1.5108   -2.7986 C.ar      1 RES1    0.0000
     12 C12        3.7813   -0.1497   -3.1866 C.ar      1 RES1    0.0000
     13 C13        3.1903    0.7335   -2.3449 C.ar      1 RES1    0.0000
     14 C14        2.7116    0.3296   -1.0632 C.ar      1 RES1    0.0000
     15 C15        2.0962    1.2343   -0.1813 C.ar      1 RES1    0.0000
     16 C16        1.6060    0.8150    1.0929 C.ar      1 RES1    0.0000
     17 C17        0.9978    1.7223    1.9866 C.ar      1 RES1    0.0000
     18 C18        0.4532    1.2625    3.1950 C.ar      1 RES1    0.0000
     19 C19        0.9399    3.1853    1.6675 C.ar      1 RES1    0.0000
     20 C20        2.0583    3.9768    1.8042 C.ar      1 RES1    0.0000
     21 C21        1.9947    5.3395    1.5753 C.ar      1 RES1    0.0000
     22 C22        0.8155    5.9324    1.1968 C.ar      1 RES1    0.0000
     23 C23       -0.2974    5.1610    1.0526 C.ar      1 RES1    0.0000
     24 C24       -0.2404    3.7872    1.2837 C.ar      1 RES1    0.0000
     25 C25        1.3136   -2.4751    3.0774 C.ar      1 RES1    0.0000
     26 C26        0.3769   -3.4070    2.6650 C.ar      1 RES1    0.0000
     27 C27        0.4672   -4.7324    3.0848 C.ar      1 RES1    0.0000
     28 C28        1.4914   -5.1334    3.9074 C.ar      1 RES1    0.0000
     29 C29        2.4413   -4.2259    4.3049 C.ar      1 RES1    0.0000
     30 C30        2.3533   -2.9011    3.8904 C.ar      1 RES1    0.0000
     31 H1        -0.1655    3.1258    3.9456 H         1 RES1    0.0000
     32 H2        -1.1977    2.2864    5.9883 H         1 RES1    0.0000
     33 H3        -1.2659    0.0448    6.3530 H         1 RES1    0.0000
     34 H4        -0.2357   -1.5208    5.0268 H         1 RES1    0.0000
     35 H5         2.5830   -2.4948    0.8194 H         1 RES1    0.0000
     36 H6         3.7492   -2.8509   -1.2265 H         1 RES1    0.0000
     37 H7         4.2914   -2.1210   -3.4452 H         1 RES1    0.0000
     38 H8         4.1341    0.1403   -4.0887 H         1 RES1    0.0000
     39 H9         2.9463    1.6853   -2.5961 H         1 RES1    0.0000
     40 H10        1.9041    2.2725   -0.6265 H         1 RES1    0.0000
     41 H11        2.8474    3.6342    2.0883 H         1 RES1    0.0000
     42 H12        2.9130    5.8381    1.5011 H         1 RES1    0.0000
     43 H13        0.7690    6.8454    1.1470 H         1 RES1    0.0000
     44 H14       -1.0739    5.5920    0.8110 H         1 RES1    0.0000
     45 H15       -1.1675    3.3563    1.4099 H         1 RES1    0.0000
     46 H16       -0.2997   -3.1937    2.0247 H         1 RES1    0.0000
     47 H17       -0.1724   -5.3700    2.7148 H         1 RES1    0.0000
     48 H18        1.6141   -6.0752    4.1173 H         1 RES1    0.0000
     49 H19        3.1067   -4.4506    4.9420 H         1 RES1    0.0000
     50 H20        2.9493   -2.3465    4.2466 H         1 RES1    0.0000
@<TRIPOS>BOND
     1    1    2 ar
     2    2    3 ar
     3    3    4 ar
     4    4    5 ar
     5    5    6 ar
     6    6    7 ar
     7    7    8 ar
     8    8    9 ar
     9    9   10 ar
    10   10   11 ar
    11   11   12 ar
    12   12   13 ar
    13   13   14 ar
    14   14    9 ar
    15   15   14 ar
    16   16    7 ar
    17   17   16 ar
    18   18    1 ar
    19   19   17 1
    20   20   19 ar
    21   21   20 ar
    22   22   21 ar
    23   23   22 ar
    24   24   19 ar
    25   25    6 1
    26   26   25 ar
    27   27   26 ar
    28   28   27 ar
    29   29   28 ar
    30   30   25 ar
    31   31    1 1
    32   32    2 1
    33   33    3 1
    34   34    4 1
    35   35    8 1
    36   36   10 1
    37   37   11 1
    38   38   12 1
    39   39   13 1
    40   40   15 1
    41   41   20 1
    42   42   21 1
    43   43   22 1
    44   44   23 1
    45   45   24 1
    46   46   26 1
    47   47   27 1
    48   48   28 1
    49   49   29 1
    50   50   30 1
    51    5   18 ar
    52   15   16 ar
    53   17   18 ar
    54   23   24 ar
    55   29   30 ar
@<TRIPOS>SUBSTRUCTURE
     1 RES1 1

@<TRIPOS>CRYSIN
   8.9360   11.5270   11.6430 112.8400 107.2400  64.4100   2 1

