# MOL2 file generated by ConQuest
# Please check atom types

@<TRIPOS>MOLECULE
XEHLEE
    42    45     1
SMALL
NO_CHARGES
****
Generated from CSD

@<TRIPOS>ATOM
      1 C1         4.3565    3.2836    9.5737 C.2       1 RES1    0.0000
      2 H1         3.6578    2.6674    9.9269 H         1 RES1    0.0000
      3 C2         4.1850    3.8859    8.3742 C.2       1 RES1    0.0000
      4 H2         4.9101    4.5086    8.0607 H         1 RES1    0.0000
      5 C3         3.0276    3.6627    7.5423 C.2       1 RES1    0.0000
      6 H3         2.3627    3.0589    7.9227 H         1 RES1    0.0000
      7 C4         2.8932    4.1889    6.3016 C.2       1 RES1    0.0000
      8 H4         3.6106    4.7115    5.9269 H         1 RES1    0.0000
      9 C5         5.3661    3.0676   11.8020 C.ar      1 RES1    0.0000
     10 H5         4.5700    2.5950   12.1078 H         1 RES1    0.0000
     11 C6         5.4816    3.4604   10.4773 C.ar      1 RES1    0.0000
     12 C7         6.7098    4.0650   10.0514 C.ar      1 RES1    0.0000
     13 H6         6.8023    4.3201    9.1040 H         1 RES1    0.0000
     14 C8         7.7277    4.2853   10.9362 C.ar      1 RES1    0.0000
     15 H7         8.5646    4.6535   10.6522 H         1 RES1    0.0000
     16 C9         8.6226    4.2295   13.2489 C.ar      1 RES1    0.0000
     17 H8         9.4355    4.6173   12.9660 H         1 RES1    0.0000
     18 C10        8.4519    3.9098   14.5804 C.ar      1 RES1    0.0000
     19 H9         9.2178    4.1461   15.2883 H         1 RES1    0.0000
     20 C11        7.2634    3.2778   15.0152 C.ar      1 RES1    0.0000
     21 H10        7.1612    3.0444   15.9968 H         1 RES1    0.0000
     22 C12        6.2611    2.9828   14.1191 C.ar      1 RES1    0.0000
     23 H11        5.4630    2.5007   14.4536 H         1 RES1    0.0000
     24 C13        6.3959    3.3147   12.7454 C.ar      1 RES1    0.0000
     25 C14        7.6051    3.9432   12.3050 C.ar      1 RES1    0.0000
     26 C15        1.9502    4.2165    4.0298 C.ar      1 RES1    0.0000
     27 H12        2.7473    4.5883    3.7712 H         1 RES1    0.0000
     28 C16        1.7964    3.9156    5.3771 C.ar      1 RES1    0.0000
     29 C17        0.5748    3.3147    5.8018 C.ar      1 RES1    0.0000
     30 H13        0.4314    3.1169    6.8255 H         1 RES1    0.0000
     31 C18       -0.4258    3.0248    4.9027 C.ar      1 RES1    0.0000
     32 H14       -1.2350    2.5950    5.2319 H         1 RES1    0.0000
     33 C19       -1.2655    2.9719    2.5710 C.ar      1 RES1    0.0000
     34 H15       -2.0788    2.5370    2.8524 H         1 RES1    0.0000
     35 C20       -1.0672    3.2307    1.2362 C.ar      1 RES1    0.0000
     36 H16       -1.8101    3.0009    0.5368 H         1 RES1    0.0000
     37 C21        0.1327    3.8345    0.7919 C.ar      1 RES1    0.0000
     38 H17        0.2961    3.9432   -0.1531 H         1 RES1    0.0000
     39 C22        1.1199    4.1606    1.6899 C.ar      1 RES1    0.0000
     40 H18        1.9418    4.5448    1.3967 H         1 RES1    0.0000
     41 C23        0.9512    3.9040    3.0772 C.ar      1 RES1    0.0000
     42 C24       -0.2612    3.2973    3.5169 C.ar      1 RES1    0.0000
@<TRIPOS>BOND
     1    1    2 1
     2    3    1 2
     3    4    3 1
     4    5    3 1
     5    6    5 1
     6    7    5 2
     7    8    7 1
     8    9   10 1
     9   11    1 1
    10   12   11 ar
    11   13   12 1
    12   14   12 ar
    13   15   14 1
    14   16   17 1
    15   18   16 ar
    16   19   18 1
    17   20   18 ar
    18   21   20 1
    19   22   20 ar
    20   23   22 1
    21   24    9 ar
    22   25   14 ar
    23   26   27 1
    24   28    7 1
    25   29   28 ar
    26   30   29 1
    27   31   29 ar
    28   32   31 1
    29   33   34 1
    30   35   33 ar
    31   36   35 1
    32   37   35 ar
    33   38   37 1
    34   39   37 ar
    35   40   39 1
    36   41   26 ar
    37   42   31 ar
    38    9   11 ar
    39   16   25 ar
    40   22   24 ar
    41   24   25 ar
    42   26   28 ar
    43   33   42 ar
    44   39   41 ar
    45   41   42 ar
@<TRIPOS>SUBSTRUCTURE
     1 RES1 1

@<TRIPOS>CRYSIN
   6.4734    7.2485   16.9410  90.0000  96.6190  90.0000   4 1

