# MOL2 file generated by ConQuest
# Please check atom types

@<TRIPOS>MOLECULE
XEJBUK
    44    48     1
SMALL
NO_CHARGES
****
Generated from CSD

@<TRIPOS>ATOM
      1 C1         7.3016    2.7330    5.6316 C.ar      1 RES1    0.0000
      2 H1         8.0967    2.2533    5.6974 H         1 RES1    0.0000
      3 C2         6.1156    2.0700    5.7992 C.ar      1 RES1    0.0000
      4 H2         6.1102    1.1536    5.9469 H         1 RES1    0.0000
      5 C3         4.9108    2.7762    5.7483 C.ar      1 RES1    0.0000
      6 H3         4.1049    2.3314    5.8701 H         1 RES1    0.0000
      7 C4         4.9189    4.1292    5.5188 C.ar      1 RES1    0.0000
      8 H4         4.1130    4.5928    5.4939 H         1 RES1    0.0000
      9 C5         6.1210    4.8300    5.3193 C.ar      1 RES1    0.0000
     10 C6         6.1507    6.2800    5.0798 C.ar      1 RES1    0.0000
     11 C7         7.3177    6.9404    4.9142 C.ar      1 RES1    0.0000
     12 C8         8.5711    6.2181    4.9670 C.ar      1 RES1    0.0000
     13 C9         9.7893    6.9215    4.8094 C.ar      1 RES1    0.0000
     14 H5         9.7759    7.8406    4.6587 H         1 RES1    0.0000
     15 C10       10.9887    6.2585    4.8762 C.ar      1 RES1    0.0000
     16 H6        11.7865    6.7329    4.7974 H         1 RES1    0.0000
     17 C11       11.0184    4.8812    5.0608 C.ar      1 RES1    0.0000
     18 H7        11.8324    4.4311    5.0878 H         1 RES1    0.0000
     19 C12        9.8567    4.1939    5.2005 C.ar      1 RES1    0.0000
     20 H8         9.8918    3.2721    5.3253 H         1 RES1    0.0000
     21 C13        8.6088    4.8246    5.1646 C.ar      1 RES1    0.0000
     22 C14        7.3663    4.1319    5.3612 C.ar      1 RES1    0.0000
     23 C15        4.8219    6.9916    5.0419 C.ar      1 RES1    0.0000
     24 C16        4.2181    7.3690    6.2313 C.ar      1 RES1    0.0000
     25 H9         4.6359    7.1830    7.0415 H         1 RES1    0.0000
     26 C17        2.9918    8.0212    6.2193 C.ar      1 RES1    0.0000
     27 H10        2.5983    8.2961    7.0145 H         1 RES1    0.0000
     28 C18        2.3746    8.2557    5.0169 C.ar      1 RES1    0.0000
     29 H11        1.5282    8.6438    5.0090 H         1 RES1    0.0000
     30 C19        2.9621    7.9323    3.8435 C.ar      1 RES1    0.0000
     31 H12        2.5605    8.1479    3.0323 H         1 RES1    0.0000
     32 C20        4.1885    7.2692    3.8844 C.ar      1 RES1    0.0000
     33 H13        4.5820    7.0105    3.0832 H         1 RES1    0.0000
     34 C21        7.3420    8.4336    4.6867 C.ar      1 RES1    0.0000
     35 C22        7.0617    8.9376    3.4464 C.ar      1 RES1    0.0000
     36 H14        6.8595    8.3608    2.7449 H         1 RES1    0.0000
     37 C23        7.0779   10.3122    3.2299 C.ar      1 RES1    0.0000
     38 H15        6.8892   10.6545    2.3857 H         1 RES1    0.0000
     39 C24        7.3716   11.1532    4.2626 C.ar      1 RES1    0.0000
     40 H16        7.3770   12.0722    4.1169 H         1 RES1    0.0000
     41 C25        7.6600   10.6707    5.5019 C.ar      1 RES1    0.0000
     42 H17        7.8784   11.2475    6.1953 H         1 RES1    0.0000
     43 C26        7.6169    9.2772    5.7154 C.ar      1 RES1    0.0000
     44 H18        7.7786    8.9349    6.5645 H         1 RES1    0.0000
@<TRIPOS>BOND
     1    1    2 1
     2    3    1 ar
     3    4    3 1
     4    5    3 ar
     5    6    5 1
     6    7    5 ar
     7    8    7 1
     8    9    7 ar
     9   10    9 ar
    10   11   10 ar
    11   12   11 ar
    12   13   12 ar
    13   14   13 1
    14   15   13 ar
    15   16   15 1
    16   17   15 ar
    17   18   17 1
    18   19   17 ar
    19   20   19 1
    20   21   12 ar
    21   22    1 ar
    22   23   10 1
    23   24   23 ar
    24   25   24 1
    25   26   24 ar
    26   27   26 1
    27   28   26 ar
    28   29   28 1
    29   30   28 ar
    30   31   30 1
    31   32   23 ar
    32   33   32 1
    33   34   11 1
    34   35   34 ar
    35   36   35 1
    36   37   35 ar
    37   38   37 1
    38   39   37 ar
    39   40   39 1
    40   41   39 ar
    41   42   41 1
    42   43   34 ar
    43   44   43 1
    44    9   22 ar
    45   19   21 ar
    46   21   22 ar
    47   30   32 ar
    48   41   43 ar
@<TRIPOS>SUBSTRUCTURE
     1 RES1 1

@<TRIPOS>CRYSIN
  26.9530   26.9530    9.9780  90.0000  90.0000  90.0000  88 1

