# MOL2 file generated by ConQuest
# Please check atom types

@<TRIPOS>MOLECULE
XEJBUK01
    44    48     1
SMALL
NO_CHARGES
****
Generated from CSD

@<TRIPOS>ATOM
      1 C1         7.3034    4.1032    0.4391 C.ar      1 RES1    0.0000
      2 C2         7.2485    2.7237    0.7309 C.ar      1 RES1    0.0000
      3 H1         8.0488    2.2353    0.7925 H         1 RES1    0.0000
      4 C3         6.0512    2.0801    0.9257 C.ar      1 RES1    0.0000
      5 H2         6.0413    1.1606    1.1157 H         1 RES1    0.0000
      6 C4         4.8577    2.7813    0.8442 C.ar      1 RES1    0.0000
      7 H3         4.0418    2.3345    0.9755 H         1 RES1    0.0000
      8 C5         4.8698    4.1260    0.5718 C.ar      1 RES1    0.0000
      9 H4         4.0552    4.5913    0.5151 H         1 RES1    0.0000
     10 C6         6.0807    4.8266    0.3747 C.ar      1 RES1    0.0000
     11 C7         6.0960    6.2461    0.1016 C.ar      1 RES1    0.0000
     12 C8         7.2785    6.9145   -0.0783 C.ar      1 RES1    0.0000
     13 C9         8.5409    6.2067   -0.0087 C.ar      1 RES1    0.0000
     14 C10        9.7671    6.8829   -0.1710 C.ar      1 RES1    0.0000
     15 H5         9.7642    7.8076   -0.3331 H         1 RES1    0.0000
     16 C11       10.9641    6.2179   -0.0984 C.ar      1 RES1    0.0000
     17 H6        11.7717    6.6899   -0.1929 H         1 RES1    0.0000
     18 C12       10.9845    4.8408    0.1163 C.ar      1 RES1    0.0000
     19 H7        11.8039    4.3849    0.1541 H         1 RES1    0.0000
     20 C13        9.8122    4.1541    0.2705 C.ar      1 RES1    0.0000
     21 H8         9.8392    3.2244    0.4047 H         1 RES1    0.0000
     22 C14        8.5624    4.8089    0.2312 C.ar      1 RES1    0.0000
     23 C15        7.2946    8.3839   -0.3399 C.ar      1 RES1    0.0000
     24 C16        7.0384    8.8883   -1.6089 C.ar      1 RES1    0.0000
     25 H9         6.8427    8.2954   -2.3119 H         1 RES1    0.0000
     26 C17        7.0676   10.2523   -1.8515 C.ar      1 RES1    0.0000
     27 H10        6.8856   10.5790   -2.7136 H         1 RES1    0.0000
     28 C18        7.3629   11.1263   -0.8323 C.ar      1 RES1    0.0000
     29 H11        7.3788   12.0504   -0.9963 H         1 RES1    0.0000
     30 C19        7.6331   10.6463    0.4256 C.ar      1 RES1    0.0000
     31 H12        7.8478   11.2437    1.1196 H         1 RES1    0.0000
     32 C20        7.5897    9.2876    0.6742 C.ar      1 RES1    0.0000
     33 H13        7.7620    8.9708    1.5413 H         1 RES1    0.0000
     34 C21        4.7845    6.9714    0.0524 C.ar      1 RES1    0.0000
     35 C22        4.1198    7.3214    1.2211 C.ar      1 RES1    0.0000
     36 H14        4.5109    7.1268    2.0534 H         1 RES1    0.0000
     37 C23        2.8874    7.9545    1.1753 C.ar      1 RES1    0.0000
     38 H15        2.4444    8.1721    1.9748 H         1 RES1    0.0000
     39 C24        2.3120    8.2657   -0.0318 C.ar      1 RES1    0.0000
     40 H16        1.4795    8.7028   -0.0607 H         1 RES1    0.0000
     41 C25        2.9577    7.9338   -1.1962 C.ar      1 RES1    0.0000
     42 H17        2.5704    8.1507   -2.0255 H         1 RES1    0.0000
     43 C26        4.1753    7.2841   -1.1554 C.ar      1 RES1    0.0000
     44 H18        4.5993    7.0491   -1.9599 H         1 RES1    0.0000
@<TRIPOS>BOND
     1    1    2 ar
     2    2    3 1
     3    4    2 ar
     4    5    4 1
     5    6    4 ar
     6    7    6 1
     7    8    6 ar
     8    9    8 1
     9   10    1 ar
    10   11   10 ar
    11   12   11 ar
    12   13   12 ar
    13   14   13 ar
    14   15   14 1
    15   16   14 ar
    16   17   16 1
    17   18   16 ar
    18   19   18 1
    19   20   18 ar
    20   21   20 1
    21   22    1 ar
    22   23   12 1
    23   24   23 ar
    24   25   24 1
    25   26   24 ar
    26   27   26 1
    27   28   26 ar
    28   29   28 1
    29   30   28 ar
    30   31   30 1
    31   32   23 ar
    32   33   32 1
    33   34   11 1
    34   35   34 ar
    35   36   35 1
    36   37   35 ar
    37   38   37 1
    38   39   37 ar
    39   40   39 1
    40   41   39 ar
    41   42   41 1
    42   43   34 ar
    43   44   43 1
    44    8   10 ar
    45   13   22 ar
    46   20   22 ar
    47   30   32 ar
    48   41   43 ar
@<TRIPOS>SUBSTRUCTURE
     1 RES1 1

@<TRIPOS>CRYSIN
  26.8026   26.8026    9.9436  90.0000  90.0000  90.0000  88 1

