# MOL2 file generated by ConQuest
# Please check atom types

@<TRIPOS>MOLECULE
XESREV
    66    73     1
SMALL
NO_CHARGES
****
Generated from CSD

@<TRIPOS>ATOM
      1 C1        -0.1227    5.0885    3.9445 C.ar      1 RES1    0.0000
      2 C2         0.8109    4.1619    4.4943 C.ar      1 RES1    0.0000
      3 C3         1.2446    4.2886    5.8527 C.ar      1 RES1    0.0000
      4 C4        -0.5912    6.1366    4.8086 C.ar      1 RES1    0.0000
      5 H1        -1.2036    6.7518    4.4752 H         1 RES1    0.0000
      6 C5        -2.8710    6.8803    0.1977 C.ar      1 RES1    0.0000
      7 C6        -7.6769   12.6997   -4.4116 C.ar      1 RES1    0.0000
      8 C7        -0.5393    4.9409    2.5971 C.ar      1 RES1    0.0000
      9 C8        -7.2843   10.7100   -3.0153 C.ar      1 RES1    0.0000
     10 C9         1.3154    3.0981    3.7072 C.ar      1 RES1    0.0000
     11 C10       -8.9168   12.8606   -3.8108 C.ar      1 RES1    0.0000
     12 H2        -9.4453   13.5847   -4.0593 H         1 RES1    0.0000
     13 C11       -1.4907    5.8866    2.0003 C.2       1 RES1    0.0000
     14 H3        -1.8280    6.5383    2.5718 H         1 RES1    0.0000
     15 C12       -9.3938   11.9838   -2.8568 C.ar      1 RES1    0.0000
     16 C13       -6.8443   11.6036   -4.0152 C.ar      1 RES1    0.0000
     17 C14       -1.9247    5.9288    0.7649 C.2       1 RES1    0.0000
     18 H4        -1.5918    5.2806    0.1863 H         1 RES1    0.0000
     19 C15       -0.1724    6.2593    6.0867 C.ar      1 RES1    0.0000
     20 H5        -0.5062    6.9532    6.6082 H         1 RES1    0.0000
     21 C16       -8.5666   10.8778   -2.4478 C.ar      1 RES1    0.0000
     22 C17        0.7663    5.3558    6.6566 C.ar      1 RES1    0.0000
     23 C18       -6.3618    9.6502   -2.5455 C.2       1 RES1    0.0000
     24 H6        -6.2311    8.9222   -3.1102 H         1 RES1    0.0000
     25 C19        2.6563    2.3110    5.5616 C.ar      1 RES1    0.0000
     26 H7         3.2552    1.6911    5.9116 H         1 RES1    0.0000
     27 C20        2.1694    3.3591    6.3974 C.ar      1 RES1    0.0000
     28 C21       -0.0300    3.8719    1.8643 C.ar      1 RES1    0.0000
     29 H8        -0.3120    3.7567    0.9848 H         1 RES1    0.0000
     30 C22       -4.7490    8.6901   -0.9172 C.ar      1 RES1    0.0000
     31 C23       -7.1811   13.5899   -5.4087 C.ar      1 RES1    0.0000
     32 H9        -7.7040   14.3139   -5.6692 H         1 RES1    0.0000
     33 C24       -4.3672    7.5459   -1.5921 C.ar      1 RES1    0.0000
     34 H10       -4.7346    7.3630   -2.4264 H         1 RES1    0.0000
     35 C25      -10.6860   12.1262   -2.2766 C.ar      1 RES1    0.0000
     36 H11      -11.2148   12.8525   -2.5157 H         1 RES1    0.0000
     37 C26        2.5732    3.5113    7.7208 C.ar      1 RES1    0.0000
     38 H12        3.1683    2.8984    8.0880 H         1 RES1    0.0000
     39 C27       -3.2479    8.0390    0.8583 C.ar      1 RES1    0.0000
     40 H13       -2.8697    8.2317    1.6865 H         1 RES1    0.0000
     41 C28       -3.4481    6.6696   -1.0461 C.ar      1 RES1    0.0000
     42 H14       -3.2106    5.9120   -1.5283 H         1 RES1    0.0000
     43 C29        0.8735    2.9829    2.3902 C.ar      1 RES1    0.0000
     44 H15        1.1973    2.2919    1.8574 H         1 RES1    0.0000
     45 C30       -4.1668    8.9117    0.3235 C.ar      1 RES1    0.0000
     46 H16       -4.4044    9.6705    0.8062 H         1 RES1    0.0000
     47 C31       -5.1671   12.3212   -5.6052 C.ar      1 RES1    0.0000
     48 H17       -4.3384   12.2008   -6.0086 H         1 RES1    0.0000
     49 C32        2.2714    2.1999    4.2861 C.ar      1 RES1    0.0000
     50 H18        2.6332    1.5227    3.7608 H         1 RES1    0.0000
     51 C33       -5.5868   11.4554   -4.6650 C.ar      1 RES1    0.0000
     52 H19       -5.0402   10.7400   -4.4344 H         1 RES1    0.0000
     53 C34        1.2218    5.4664    7.9711 C.ar      1 RES1    0.0000
     54 H20        0.9205    6.1673    8.5039 H         1 RES1    0.0000
     55 C35        2.1134    4.5456    8.4908 C.ar      1 RES1    0.0000
     56 H21        2.4038    4.6295    9.3713 H         1 RES1    0.0000
     57 C36       -9.1138    9.9668   -1.5033 C.ar      1 RES1    0.0000
     58 H22       -8.5998    9.2434   -1.2247 H         1 RES1    0.0000
     59 C37       -5.7342    9.6462   -1.4451 C.2       1 RES1    0.0000
     60 H23       -5.9278   10.3604   -0.8828 H         1 RES1    0.0000
     61 C38       -5.9827   13.4133   -5.9831 C.ar      1 RES1    0.0000
     62 H24       -5.6854   14.0106   -6.6311 H         1 RES1    0.0000
     63 C39      -11.1590   11.2239   -1.3844 C.ar      1 RES1    0.0000
     64 H25      -12.0112   11.3281   -1.0257 H         1 RES1    0.0000
     65 C40      -10.3591   10.1237   -1.0002 C.ar      1 RES1    0.0000
     66 H26      -10.6927    9.5015   -0.3955 H         1 RES1    0.0000
@<TRIPOS>BOND
     1    1    2 ar
     2    2    3 ar
     3    3   22 ar
     4    4    1 ar
     5    5    4 1
     6    6   17 1
     7    7   11 ar
     8    8    1 ar
     9    9   16 ar
    10   10    2 ar
    11   11   12 1
    12   13    8 1
    13   14   13 1
    14   15   11 ar
    15   16    7 ar
    16   17   13 2
    17   18   17 1
    18   19    4 ar
    19   20   19 1
    20   21    9 ar
    21   22   19 ar
    22   23    9 1
    23   24   23 1
    24   25   26 1
    25   27    3 ar
    26   28    8 ar
    27   29   28 1
    28   30   33 ar
    29   31    7 ar
    30   32   31 1
    31   33   34 1
    32   35   15 ar
    33   36   35 1
    34   37   27 ar
    35   38   37 1
    36   39    6 ar
    37   40   39 1
    38   41    6 ar
    39   42   41 1
    40   43   10 ar
    41   44   43 1
    42   45   30 ar
    43   46   45 1
    44   47   48 1
    45   49   10 ar
    46   50   49 1
    47   51   16 ar
    48   52   51 1
    49   53   22 ar
    50   54   53 1
    51   55   37 ar
    52   56   55 1
    53   57   21 ar
    54   58   57 1
    55   59   23 2
    56   60   59 1
    57   61   31 ar
    58   62   61 1
    59   63   35 ar
    60   64   63 1
    61   65   57 ar
    62   66   65 1
    63   15   21 ar
    64   25   27 ar
    65   25   49 ar
    66   28   43 ar
    67   30   59 1
    68   33   41 ar
    69   39   45 ar
    70   47   51 ar
    71   47   61 ar
    72   53   55 ar
    73   63   65 ar
@<TRIPOS>SUBSTRUCTURE
     1 RES1 1

@<TRIPOS>CRYSIN
  17.9548    5.7876   26.0111  90.0000 101.2180  90.0000  14 1

