# MOL2 file generated by ConQuest
# Please check atom types

@<TRIPOS>MOLECULE
XEXXAC
    52    58     1
SMALL
NO_CHARGES
****
Generated from CSD

@<TRIPOS>ATOM
      1 C1         6.8309   26.1827   -0.7372 C.2       1 RES1    0.0000
      2 H1         7.5510   25.7932   -1.1778 H         1 RES1    0.0000
      3 C2         5.8681   25.2243   -0.1481 C.ar      1 RES1    0.0000
      4 C3         5.4566   25.2744    1.2315 C.ar      1 RES1    0.0000
      5 C4         6.0700   26.1903    2.2129 C.2       1 RES1    0.0000
      6 H2         6.5141   25.7860    2.9225 H         1 RES1    0.0000
      7 C5         5.4288   24.1813   -0.9301 C.ar      1 RES1    0.0000
      8 H3         5.7556   24.1068   -1.7976 H         1 RES1    0.0000
      9 C6         4.4941   23.2092   -0.4676 C.ar      1 RES1    0.0000
     10 C7         4.0190   23.3231    0.8833 C.ar      1 RES1    0.0000
     11 C8         4.5688   24.3467    1.6987 C.ar      1 RES1    0.0000
     12 H4         4.3133   24.3861    2.5917 H         1 RES1    0.0000
     13 C9         4.0302   22.1519   -1.2596 C.ar      1 RES1    0.0000
     14 H5         4.3424   22.0660   -2.1311 H         1 RES1    0.0000
     15 C10        3.1064   21.2228   -0.7684 C.ar      1 RES1    0.0000
     16 C11        2.6168   21.3596    0.5761 C.ar      1 RES1    0.0000
     17 C12        3.0861   22.4058    1.3672 C.ar      1 RES1    0.0000
     18 H6         2.7707   22.4957    2.2374 H         1 RES1    0.0000
     19 C13        2.6294   20.1294   -1.5556 C.ar      1 RES1    0.0000
     20 H7         2.9309   20.0288   -2.4293 H         1 RES1    0.0000
     21 C14        1.7384   19.2336   -1.0433 C.ar      1 RES1    0.0000
     22 H8         1.4449   18.5250   -1.5680 H         1 RES1    0.0000
     23 C15        1.2551   19.3743    0.2825 C.ar      1 RES1    0.0000
     24 H9         0.6470   18.7577    0.6192 H         1 RES1    0.0000
     25 C16        1.6712   20.4036    1.0655 C.ar      1 RES1    0.0000
     26 H10        1.3378   20.4870    1.9294 H         1 RES1    0.0000
     27 C1G        6.8309   27.5233   -0.7372 C.2       1 RES1    0.0000
     28 H1G        7.5510   27.9128   -1.1778 H         1 RES1    0.0000
     29 C2G        5.8681   28.4817   -0.1481 C.ar      1 RES1    0.0000
     30 C3G        5.4566   28.4316    1.2315 C.ar      1 RES1    0.0000
     31 C4G        6.0700   27.5157    2.2129 C.2       1 RES1    0.0000
     32 H2G        6.5141   27.9200    2.9225 H         1 RES1    0.0000
     33 C5G        5.4288   29.5247   -0.9301 C.ar      1 RES1    0.0000
     34 H3G        5.7556   29.5992   -1.7976 H         1 RES1    0.0000
     35 C6G        4.4941   30.4968   -0.4676 C.ar      1 RES1    0.0000
     36 C7G        4.0190   30.3829    0.8833 C.ar      1 RES1    0.0000
     37 C8G        4.5688   29.3593    1.6987 C.ar      1 RES1    0.0000
     38 H4G        4.3133   29.3199    2.5917 H         1 RES1    0.0000
     39 C9G        4.0302   31.5541   -1.2596 C.ar      1 RES1    0.0000
     40 H5G        4.3424   31.6400   -2.1311 H         1 RES1    0.0000
     41 C10G       3.1064   32.4832   -0.7684 C.ar      1 RES1    0.0000
     42 C11G       2.6168   32.3464    0.5761 C.ar      1 RES1    0.0000
     43 C12G       3.0861   31.3002    1.3672 C.ar      1 RES1    0.0000
     44 H6G        2.7707   31.2103    2.2374 H         1 RES1    0.0000
     45 C13G       2.6294   33.5766   -1.5556 C.ar      1 RES1    0.0000
     46 H7G        2.9309   33.6772   -2.4293 H         1 RES1    0.0000
     47 C14G       1.7384   34.4724   -1.0433 C.ar      1 RES1    0.0000
     48 H8G        1.4449   35.1810   -1.5680 H         1 RES1    0.0000
     49 C15G       1.2551   34.3317    0.2825 C.ar      1 RES1    0.0000
     50 H9G        0.6470   34.9483    0.6192 H         1 RES1    0.0000
     51 C16G       1.6712   33.3024    1.0655 C.ar      1 RES1    0.0000
     52 H10G       1.3378   33.2190    1.9294 H         1 RES1    0.0000
@<TRIPOS>BOND
     1    1    2 1
     2    3    1 1
     3    4    3 ar
     4    5    4 1
     5    6    5 1
     6    7    3 ar
     7    8    7 1
     8    9    7 ar
     9   10    9 ar
    10   11    4 ar
    11   12   11 1
    12   13    9 ar
    13   14   13 1
    14   15   13 ar
    15   16   15 ar
    16   17   10 ar
    17   18   17 1
    18   19   15 ar
    19   20   19 1
    20   21   19 ar
    21   22   21 1
    22   23   21 ar
    23   24   23 1
    24   25   16 ar
    25   26   25 1
    26   27    1 2
    27   28   27 1
    28   29   27 1
    29   30   29 ar
    30   31    5 2
    31   32   31 1
    32   33   29 ar
    33   34   33 1
    34   35   33 ar
    35   36   35 ar
    36   37   30 ar
    37   38   37 1
    38   39   35 ar
    39   40   39 1
    40   41   39 ar
    41   42   41 ar
    42   43   36 ar
    43   44   43 1
    44   45   41 ar
    45   46   45 1
    46   47   45 ar
    47   48   47 1
    48   49   47 ar
    49   50   49 1
    50   51   42 ar
    51   52   51 1
    52   10   11 ar
    53   16   17 ar
    54   23   25 ar
    55   30   31 1
    56   36   37 ar
    57   42   43 ar
    58   49   51 ar
@<TRIPOS>SUBSTRUCTURE
     1 RES1 1

@<TRIPOS>CRYSIN
   8.5700   35.8040    6.5250  90.0000  90.0000  90.0000  62 1

