# MOL2 file generated by ConQuest
# Please check atom types

@<TRIPOS>MOLECULE
XIDLIH
    64    68     1
SMALL
NO_CHARGES
****
Generated from CSD

@<TRIPOS>ATOM
      1 C1         2.5628   -1.2773    5.2551 C.3       1 RES1    0.0000
      2 H1         2.0018   -1.4111    6.0214 H         1 RES1    0.0000
      3 H2         3.3907   -0.8761    5.5290 H         1 RES1    0.0000
      4 H3         2.7401   -2.1225    4.8367 H         1 RES1    0.0000
      5 C2         1.8609   -0.3627    4.2690 C.3       1 RES1    0.0000
      6 H4         1.6721    0.4854    4.6991 H         1 RES1    0.0000
      7 H5         1.0150   -0.7606    4.0115 H         1 RES1    0.0000
      8 C3         2.7006   -0.1150    3.0184 C.3       1 RES1    0.0000
      9 H6         3.5065    0.3600    3.2746 H         1 RES1    0.0000
     10 H7         2.9692   -0.9708    2.6505 H         1 RES1    0.0000
     11 C4         2.0034    0.6634    1.9582 C.2       1 RES1    0.0000
     12 C5         0.9830    0.1242    1.0373 C.ar      1 RES1    0.0000
     13 C6         0.5806    1.1803    0.1959 C.ar      1 RES1    0.0000
     14 C7        -0.3724    1.1293   -0.8402 C.ar      1 RES1    0.0000
     15 C8        -0.5741    2.3633   -1.5468 C.ar      1 RES1    0.0000
     16 H8        -1.2052    2.4078   -2.2285 H         1 RES1    0.0000
     17 C9         0.1526    3.4677   -1.2247 C.ar      1 RES1    0.0000
     18 H9         0.0117    4.2492   -1.7090 H         1 RES1    0.0000
     19 C10        1.1137    3.4830   -0.1845 C.ar      1 RES1    0.0000
     20 H10        1.5968    4.2541    0.0012 H         1 RES1    0.0000
     21 C11        1.3175    2.3410    0.5407 C.ar      1 RES1    0.0000
     22 C12        2.1984    1.9899    1.6608 C.2       1 RES1    0.0000
     23 C13        3.0672    2.9809    2.3637 C.3       1 RES1    0.0000
     24 H11        3.4241    3.6070    1.7137 H         1 RES1    0.0000
     25 H12        3.8142    2.5156    2.7715 H         1 RES1    0.0000
     26 C14        2.3091    3.7529    3.4391 C.3       1 RES1    0.0000
     27 H13        1.4880    4.0976    3.0560 H         1 RES1    0.0000
     28 H14        2.0664    3.1386    4.1502 H         1 RES1    0.0000
     29 C15        3.0791    4.8897    4.0280 C.3       1 RES1    0.0000
     30 H15        2.5437    5.3276    4.6944 H         1 RES1    0.0000
     31 H16        3.3043    5.5168    3.3369 H         1 RES1    0.0000
     32 H17        3.8834    4.5569    4.4323 H         1 RES1    0.0000
     33 C1A       -2.5628    1.2773   -5.2551 C.3       1 RES1    0.0000
     34 H1A       -2.0018    1.4111   -6.0214 H         1 RES1    0.0000
     35 H2A       -3.3907    0.8761   -5.5290 H         1 RES1    0.0000
     36 H3A       -2.7401    2.1225   -4.8367 H         1 RES1    0.0000
     37 C2A       -1.8609    0.3627   -4.2690 C.3       1 RES1    0.0000
     38 H4A       -1.6721   -0.4854   -4.6991 H         1 RES1    0.0000
     39 H5A       -1.0150    0.7606   -4.0115 H         1 RES1    0.0000
     40 C3A       -2.7006    0.1150   -3.0184 C.3       1 RES1    0.0000
     41 H6A       -3.5065   -0.3600   -3.2746 H         1 RES1    0.0000
     42 H7A       -2.9692    0.9708   -2.6505 H         1 RES1    0.0000
     43 C4A       -2.0034   -0.6634   -1.9582 C.2       1 RES1    0.0000
     44 C5A       -0.9830   -0.1242   -1.0373 C.ar      1 RES1    0.0000
     45 C6A       -0.5806   -1.1803   -0.1959 C.ar      1 RES1    0.0000
     46 C7A        0.3724   -1.1293    0.8402 C.ar      1 RES1    0.0000
     47 C8A        0.5741   -2.3633    1.5468 C.ar      1 RES1    0.0000
     48 H8A        1.2052   -2.4078    2.2285 H         1 RES1    0.0000
     49 C9A       -0.1526   -3.4677    1.2247 C.ar      1 RES1    0.0000
     50 H9A       -0.0117   -4.2492    1.7090 H         1 RES1    0.0000
     51 C10A      -1.1137   -3.4830    0.1845 C.ar      1 RES1    0.0000
     52 H10A      -1.5968   -4.2541   -0.0012 H         1 RES1    0.0000
     53 C11A      -1.3175   -2.3410   -0.5407 C.ar      1 RES1    0.0000
     54 C12A      -2.1984   -1.9899   -1.6608 C.2       1 RES1    0.0000
     55 C13A      -3.0672   -2.9809   -2.3637 C.3       1 RES1    0.0000
     56 H11A      -3.4241   -3.6070   -1.7137 H         1 RES1    0.0000
     57 H12A      -3.8142   -2.5156   -2.7715 H         1 RES1    0.0000
     58 C14A      -2.3091   -3.7529   -3.4391 C.3       1 RES1    0.0000
     59 H13A      -1.4880   -4.0976   -3.0560 H         1 RES1    0.0000
     60 H14A      -2.0664   -3.1386   -4.1502 H         1 RES1    0.0000
     61 C15A      -3.0791   -4.8897   -4.0280 C.3       1 RES1    0.0000
     62 H15A      -2.5437   -5.3276   -4.6944 H         1 RES1    0.0000
     63 H16A      -3.3043   -5.5168   -3.3369 H         1 RES1    0.0000
     64 H17A      -3.8834   -4.5569   -4.4323 H         1 RES1    0.0000
@<TRIPOS>BOND
     1    1    2 1
     2    3    1 1
     3    4    1 1
     4    5    1 1
     5    6    5 1
     6    7    5 1
     7    8    5 1
     8    9    8 1
     9   10    8 1
    10   11    8 1
    11   12   11 1
    12   13   12 ar
    13   14   13 ar
    14   15   14 ar
    15   16   15 1
    16   17   15 ar
    17   18   17 1
    18   19   17 ar
    19   20   19 1
    20   21   13 ar
    21   22   11 2
    22   23   22 1
    23   24   23 1
    24   25   23 1
    25   26   23 1
    26   27   26 1
    27   28   26 1
    28   29   26 1
    29   30   29 1
    30   31   29 1
    31   32   29 1
    32   33   34 1
    33   35   33 1
    34   36   33 1
    35   37   33 1
    36   38   37 1
    37   39   37 1
    38   40   37 1
    39   41   40 1
    40   42   40 1
    41   43   40 1
    42   44   14 ar
    43   45   44 ar
    44   46   12 ar
    45   47   46 ar
    46   48   47 1
    47   49   47 ar
    48   50   49 1
    49   51   49 ar
    50   52   51 1
    51   53   45 ar
    52   54   43 2
    53   55   54 1
    54   56   55 1
    55   57   55 1
    56   58   55 1
    57   59   58 1
    58   60   58 1
    59   61   58 1
    60   62   61 1
    61   63   61 1
    62   64   61 1
    63   19   21 ar
    64   21   22 1
    65   43   44 1
    66   45   46 ar
    67   51   53 ar
    68   53   54 1
@<TRIPOS>SUBSTRUCTURE
     1 RES1 1

@<TRIPOS>CRYSIN
   4.8931   10.3024   11.9639  85.2540  80.1290  86.9580   2 1

