# MOL2 file generated by ConQuest
# Please check atom types

@<TRIPOS>MOLECULE
XIGCEY
    40    46     1
SMALL
NO_CHARGES
****
Generated from CSD

@<TRIPOS>ATOM
      1 C1        10.6180    3.3986    2.0005 C.ar      1 RES1    0.0000
      2 C2        11.6601    4.2327    2.5115 C.ar      1 RES1    0.0000
      3 C3        12.1660    2.4400    0.3504 C.ar      1 RES1    0.0000
      4 C4        10.8715    2.5055    0.9188 C.ar      1 RES1    0.0000
      5 C5        12.9620    4.1485    1.9546 C.ar      1 RES1    0.0000
      6 C6         9.3132    3.4573    2.5846 C.ar      1 RES1    0.0000
      7 C7        13.2108    3.2521    0.8738 C.ar      1 RES1    0.0000
      8 C8        14.5265    3.1454    0.3283 C.ar      1 RES1    0.0000
      9 C9         8.2638    2.6361    2.0937 C.ar      1 RES1    0.0000
     10 C10        9.0487    4.3468    3.6632 C.ar      1 RES1    0.0000
     11 C11        9.7740    1.6990    0.4447 C.ar      1 RES1    0.0000
     12 H1         9.9216    1.1063   -0.2833 H         1 RES1    0.0000
     13 C12       15.6008    3.9115    0.8702 C.ar      1 RES1    0.0000
     14 C13       13.7164    1.4786   -1.2549 C.ar      1 RES1    0.0000
     15 H2        13.8758    0.8895   -1.9832 H         1 RES1    0.0000
     16 C14       11.3356    5.1338    3.5796 C.ar      1 RES1    0.0000
     17 H3        12.0089    5.7139    3.9137 H         1 RES1    0.0000
     18 C15       14.7993    2.2440   -0.7372 C.ar      1 RES1    0.0000
     19 C16       14.0610    4.9296    2.4503 C.ar      1 RES1    0.0000
     20 H4        13.9047    5.5448    3.1568 H         1 RES1    0.0000
     21 C17        7.7734    4.3891    4.2255 C.ar      1 RES1    0.0000
     22 H5         7.6016    4.9746    4.9539 H         1 RES1    0.0000
     23 C18       10.1044    5.1805    4.1234 C.ar      1 RES1    0.0000
     24 H6         9.9364    5.7876    4.8345 H         1 RES1    0.0000
     25 C19        6.9937    2.7216    2.6810 C.ar      1 RES1    0.0000
     26 H7         6.2868    2.1783    2.3527 H         1 RES1    0.0000
     27 C20       15.3083    4.8172    1.9471 C.ar      1 RES1    0.0000
     28 H8        16.0067    5.3478    2.3124 H         1 RES1    0.0000
     29 C21       16.0985    2.1343   -1.2298 C.ar      1 RES1    0.0000
     30 H9        16.2769    1.5389   -1.9471 H         1 RES1    0.0000
     31 C22        8.5504    1.7574    0.9972 C.ar      1 RES1    0.0000
     32 H10        7.8585    1.2043    0.6527 H         1 RES1    0.0000
     33 C23       12.4775    1.5632   -0.7447 C.ar      1 RES1    0.0000
     34 H11       11.7868    1.0289   -1.1180 H         1 RES1    0.0000
     35 C24       16.8806    3.7613    0.3510 C.ar      1 RES1    0.0000
     36 H12       17.5970    4.2695    0.7139 H         1 RES1    0.0000
     37 C25        6.7564    3.5904    3.7384 C.ar      1 RES1    0.0000
     38 H13        5.8908    3.6363    4.1276 H         1 RES1    0.0000
     39 C26       17.1274    2.8763   -0.6926 C.ar      1 RES1    0.0000
     40 H14       18.0082    2.7827   -1.0361 H         1 RES1    0.0000
@<TRIPOS>BOND
     1    1    2 ar
     2    2    5 ar
     3    3    4 ar
     4    4    1 ar
     5    5    7 ar
     6    6    1 ar
     7    7    3 ar
     8    8    7 ar
     9    9    6 ar
    10   10    6 ar
    11   11    4 ar
    12   12   11 1
    13   13    8 ar
    14   14   15 1
    15   16    2 ar
    16   17   16 1
    17   18    8 ar
    18   19    5 ar
    19   20   19 1
    20   21   10 ar
    21   22   21 1
    22   23   10 ar
    23   24   23 1
    24   25    9 ar
    25   26   25 1
    26   27   13 ar
    27   28   27 1
    28   29   18 ar
    29   30   29 1
    30   31    9 ar
    31   32   31 1
    32   33    3 ar
    33   34   33 1
    34   35   13 ar
    35   36   35 1
    36   37   21 ar
    37   38   37 1
    38   39   29 ar
    39   40   39 1
    40   11   31 ar
    41   14   18 ar
    42   14   33 ar
    43   16   23 ar
    44   19   27 ar
    45   25   37 ar
    46   35   39 ar
@<TRIPOS>SUBSTRUCTURE
     1 RES1 1

@<TRIPOS>CRYSIN
  12.3770    8.9940   13.8970  90.0000  92.0360  90.0000  14 1

