# MOL2 file generated by ConQuest
# Please check atom types

@<TRIPOS>MOLECULE
XIHGEC
   118   128     1
SMALL
NO_CHARGES
****
Generated from CSD

@<TRIPOS>ATOM
      1 C1         9.7313   -0.1394    0.0837 C.ar      1 RES1    0.0000
      2 H1        10.6748   -0.2299    0.1477 H         1 RES1    0.0000
      3 C2         8.9954    0.4457    1.1172 C.ar      1 RES1    0.0000
      4 C3         7.6009    0.5838    1.0365 C.ar      1 RES1    0.0000
      5 C4         7.0411    1.2652    2.2839 C.3       1 RES1    0.0000
      6 C5         8.3247    1.5426    3.0665 C.ar      1 RES1    0.0000
      7 C6         9.4413    1.0523    2.3722 C.ar      1 RES1    0.0000
      8 C7         8.5047    2.1961    4.2610 C.ar      1 RES1    0.0000
      9 H2         7.7476    2.5034    4.7457 H         1 RES1    0.0000
     10 C8         9.7993    2.4189    4.7829 C.ar      1 RES1    0.0000
     11 C9        10.0094    3.1649    6.0297 C.ar      1 RES1    0.0000
     12 C10        8.9331    3.6455    6.7957 C.ar      1 RES1    0.0000
     13 H3         8.0473    3.4319    6.5276 H         1 RES1    0.0000
     14 C11        9.1194    4.4138    7.9202 C.ar      1 RES1    0.0000
     15 H4         8.3720    4.7319    8.4111 H         1 RES1    0.0000
     16 C12       10.4109    4.7203    8.3308 C.ar      1 RES1    0.0000
     17 H5        10.5499    5.2591    9.1005 H         1 RES1    0.0000
     18 C13       11.4852    4.2447    7.6242 C.ar      1 RES1    0.0000
     19 H6        12.3631    4.4488    7.9248 H         1 RES1    0.0000
     20 C14       11.3230    3.4612    6.4645 C.ar      1 RES1    0.0000
     21 C15       12.4800    2.9700    5.7120 C.ar      1 RES1    0.0000
     22 C16       13.8043    3.2221    6.1223 C.ar      1 RES1    0.0000
     23 H7        13.9550    3.7434    6.9031 H         1 RES1    0.0000
     24 C17       14.8774    2.7365    5.4298 C.ar      1 RES1    0.0000
     25 H8        15.7599    2.9164    5.7336 H         1 RES1    0.0000
     26 C18       14.6801    1.9812    4.2831 C.ar      1 RES1    0.0000
     27 H9        15.4235    1.6431    3.7978 H         1 RES1    0.0000
     28 C19       13.4038    1.7264    3.8556 C.ar      1 RES1    0.0000
     29 H10       13.2756    1.2084    3.0684 H         1 RES1    0.0000
     30 C20       12.2792    2.2064    4.5441 C.ar      1 RES1    0.0000
     31 C21       10.9219    1.9382    4.0634 C.ar      1 RES1    0.0000
     32 C22       10.7111    1.2341    2.8649 C.ar      1 RES1    0.0000
     33 H11       11.4540    0.8803    2.3913 H         1 RES1    0.0000
     34 C23        6.0612    0.3447    3.0453 C.3       1 RES1    0.0000
     35 H12        5.6546    0.8686    3.7793 H         1 RES1    0.0000
     36 H13        5.3316    0.0916    2.4252 H         1 RES1    0.0000
     37 C24        6.6436   -0.9303    3.6368 C.3       1 RES1    0.0000
     38 H14        7.1049   -1.4374    2.9237 H         1 RES1    0.0000
     39 H15        7.3163   -0.6920    4.3240 H         1 RES1    0.0000
     40 C25        5.5811   -1.8130    4.2665 C.3       1 RES1    0.0000
     41 H16        5.0385   -1.2683    4.8903 H         1 RES1    0.0000
     42 H17        4.9786   -2.1486    3.5546 H         1 RES1    0.0000
     43 C26        6.1618   -2.9930    5.0193 C.3       1 RES1    0.0000
     44 H18        5.4381   -3.5918    5.2966 H         1 RES1    0.0000
     45 H19        6.6403   -2.6708    5.8105 H         1 RES1    0.0000
     46 H20        6.7835   -3.4777    4.4379 H         1 RES1    0.0000
     47 C27        6.2761    2.5627    1.9269 C.3       1 RES1    0.0000
     48 H21        5.5081    2.3218    1.3511 H         1 RES1    0.0000
     49 H22        5.9110    2.9481    2.7637 H         1 RES1    0.0000
     50 C28        7.0830    3.6370    1.2203 C.3       1 RES1    0.0000
     51 H23        7.5661    3.2279    0.4586 H         1 RES1    0.0000
     52 H24        7.7576    3.9974    1.8496 H         1 RES1    0.0000
     53 C29        6.2244    4.7860    0.7023 C.3       1 RES1    0.0000
     54 H25        5.6030    5.0700    1.4188 H         1 RES1    0.0000
     55 H26        6.8118    5.5539    0.4893 H         1 RES1    0.0000
     56 C30        5.4298    4.4279   -0.5161 C.3       1 RES1    0.0000
     57 H27        4.8603    5.1841   -0.7694 H         1 RES1    0.0000
     58 H28        4.8703    3.6468   -0.3231 H         1 RES1    0.0000
     59 H29        6.0392    4.2189   -1.2526 H         1 RES1    0.0000
     60 C1D        6.9194    0.1394   -0.0837 C.ar      1 RES1    0.0000
     61 H1D        5.9759    0.2299   -0.1477 H         1 RES1    0.0000
     62 C2D        7.6553   -0.4457   -1.1172 C.ar      1 RES1    0.0000
     63 C3D        9.0498   -0.5838   -1.0365 C.ar      1 RES1    0.0000
     64 C4D        9.6096   -1.2652   -2.2839 C.3       1 RES1    0.0000
     65 C5D        8.3260   -1.5426   -3.0665 C.ar      1 RES1    0.0000
     66 C6D        7.2094   -1.0523   -2.3722 C.ar      1 RES1    0.0000
     67 C7D        8.1460   -2.1961   -4.2610 C.ar      1 RES1    0.0000
     68 H2D        8.9031   -2.5034   -4.7457 H         1 RES1    0.0000
     69 C8D        6.8514   -2.4189   -4.7829 C.ar      1 RES1    0.0000
     70 C9D        6.6413   -3.1649   -6.0297 C.ar      1 RES1    0.0000
     71 C10D       7.7176   -3.6455   -6.7957 C.ar      1 RES1    0.0000
     72 H3D        8.6034   -3.4319   -6.5276 H         1 RES1    0.0000
     73 C11D       7.5313   -4.4138   -7.9202 C.ar      1 RES1    0.0000
     74 H4D        8.2787   -4.7319   -8.4111 H         1 RES1    0.0000
     75 C12D       6.2398   -4.7203   -8.3308 C.ar      1 RES1    0.0000
     76 H5D        6.1008   -5.2591   -9.1005 H         1 RES1    0.0000
     77 C13D       5.1655   -4.2447   -7.6242 C.ar      1 RES1    0.0000
     78 H6D        4.2876   -4.4488   -7.9248 H         1 RES1    0.0000
     79 C14D       5.3277   -3.4612   -6.4645 C.ar      1 RES1    0.0000
     80 C15D       4.1707   -2.9700   -5.7120 C.ar      1 RES1    0.0000
     81 C16D       2.8464   -3.2221   -6.1223 C.ar      1 RES1    0.0000
     82 H7D        2.6957   -3.7434   -6.9031 H         1 RES1    0.0000
     83 C17D       1.7733   -2.7365   -5.4298 C.ar      1 RES1    0.0000
     84 H8D        0.8908   -2.9164   -5.7336 H         1 RES1    0.0000
     85 C18D       1.9706   -1.9812   -4.2831 C.ar      1 RES1    0.0000
     86 H9D        1.2272   -1.6431   -3.7978 H         1 RES1    0.0000
     87 C19D       3.2469   -1.7264   -3.8556 C.ar      1 RES1    0.0000
     88 H10D       3.3751   -1.2084   -3.0684 H         1 RES1    0.0000
     89 C20D       4.3715   -2.2064   -4.5441 C.ar      1 RES1    0.0000
     90 C21D       5.7288   -1.9382   -4.0634 C.ar      1 RES1    0.0000
     91 C22D       5.9396   -1.2341   -2.8649 C.ar      1 RES1    0.0000
     92 H11D       5.1967   -0.8803   -2.3913 H         1 RES1    0.0000
     93 C23D      10.5895   -0.3447   -3.0453 C.3       1 RES1    0.0000
     94 H12D      10.9961   -0.8686   -3.7793 H         1 RES1    0.0000
     95 H13D      11.3191   -0.0916   -2.4252 H         1 RES1    0.0000
     96 C24D      10.0071    0.9303   -3.6368 C.3       1 RES1    0.0000
     97 H14D       9.5458    1.4374   -2.9237 H         1 RES1    0.0000
     98 H15D       9.3344    0.6920   -4.3240 H         1 RES1    0.0000
     99 C25D      11.0696    1.8130   -4.2665 C.3       1 RES1    0.0000
    100 H16D      11.6122    1.2683   -4.8903 H         1 RES1    0.0000
    101 H17D      11.6721    2.1486   -3.5546 H         1 RES1    0.0000
    102 C26D      10.4889    2.9930   -5.0193 C.3       1 RES1    0.0000
    103 H18D      11.2126    3.5918   -5.2966 H         1 RES1    0.0000
    104 H19D      10.0104    2.6708   -5.8105 H         1 RES1    0.0000
    105 H20D       9.8672    3.4777   -4.4379 H         1 RES1    0.0000
    106 C27D      10.3746   -2.5627   -1.9269 C.3       1 RES1    0.0000
    107 H21D      11.1426   -2.3218   -1.3511 H         1 RES1    0.0000
    108 H22D      10.7397   -2.9481   -2.7637 H         1 RES1    0.0000
    109 C28D       9.5677   -3.6370   -1.2203 C.3       1 RES1    0.0000
    110 H23D       9.0846   -3.2279   -0.4586 H         1 RES1    0.0000
    111 H24D       8.8931   -3.9974   -1.8496 H         1 RES1    0.0000
    112 C29D      10.4263   -4.7860   -0.7023 C.3       1 RES1    0.0000
    113 H25D      11.0477   -5.0700   -1.4188 H         1 RES1    0.0000
    114 H26D       9.8389   -5.5539   -0.4893 H         1 RES1    0.0000
    115 C30D      11.2209   -4.4279    0.5161 C.3       1 RES1    0.0000
    116 H27D      11.7904   -5.1841    0.7694 H         1 RES1    0.0000
    117 H28D      11.7804   -3.6468    0.3231 H         1 RES1    0.0000
    118 H29D      10.6115   -4.2189    1.2526 H         1 RES1    0.0000
@<TRIPOS>BOND
     1    1    2 1
     2    3    1 ar
     3    4    3 ar
     4    5    4 1
     5    6    5 1
     6    7    3 1
     7    8    6 ar
     8    9    8 1
     9   10    8 ar
    10   11   10 ar
    11   12   11 ar
    12   13   12 1
    13   14   12 ar
    14   15   14 1
    15   16   14 ar
    16   17   16 1
    17   18   16 ar
    18   19   18 1
    19   20   11 ar
    20   21   20 ar
    21   22   21 ar
    22   23   22 1
    23   24   22 ar
    24   25   24 1
    25   26   24 ar
    26   27   26 1
    27   28   26 ar
    28   29   28 1
    29   30   21 ar
    30   31   10 ar
    31   32    7 ar
    32   33   32 1
    33   34    5 1
    34   35   34 1
    35   36   34 1
    36   37   34 1
    37   38   37 1
    38   39   37 1
    39   40   37 1
    40   41   40 1
    41   42   40 1
    42   43   40 1
    43   44   43 1
    44   45   43 1
    45   46   43 1
    46   47    5 1
    47   48   47 1
    48   49   47 1
    49   50   47 1
    50   51   50 1
    51   52   50 1
    52   53   50 1
    53   54   53 1
    54   55   53 1
    55   56   53 1
    56   57   56 1
    57   58   56 1
    58   59   56 1
    59   60    4 ar
    60   61   60 1
    61   62   60 ar
    62   63    1 ar
    63   64   63 1
    64   65   64 1
    65   66   62 1
    66   67   65 ar
    67   68   67 1
    68   69   67 ar
    69   70   69 ar
    70   71   70 ar
    71   72   71 1
    72   73   71 ar
    73   74   73 1
    74   75   73 ar
    75   76   75 1
    76   77   75 ar
    77   78   77 1
    78   79   70 ar
    79   80   79 ar
    80   81   80 ar
    81   82   81 1
    82   83   81 ar
    83   84   83 1
    84   85   83 ar
    85   86   85 1
    86   87   85 ar
    87   88   87 1
    88   89   80 ar
    89   90   69 ar
    90   91   66 ar
    91   92   91 1
    92   93   64 1
    93   94   93 1
    94   95   93 1
    95   96   93 1
    96   97   96 1
    97   98   96 1
    98   99   96 1
    99  100   99 1
   100  101   99 1
   101  102   99 1
   102  103  102 1
   103  104  102 1
   104  105  102 1
   105  106   64 1
   106  107  106 1
   107  108  106 1
   108  109  106 1
   109  110  109 1
   110  111  109 1
   111  112  109 1
   112  113  112 1
   113  114  112 1
   114  115  112 1
   115  116  115 1
   116  117  115 1
   117  118  115 1
   118    6    7 ar
   119   18   20 ar
   120   28   30 ar
   121   30   31 ar
   122   31   32 ar
   123   62   63 ar
   124   65   66 ar
   125   77   79 ar
   126   87   89 ar
   127   89   90 ar
   128   90   91 ar
@<TRIPOS>SUBSTRUCTURE
     1 RES1 1

@<TRIPOS>CRYSIN
  16.6507    8.3279   30.7761  90.0000  90.0000  90.0000  61 1

