# MOL2 file generated by ConQuest
# Please check atom types

@<TRIPOS>MOLECULE
XIRQUK
    80    88     2
SMALL
NO_CHARGES
****
Generated from CSD

@<TRIPOS>ATOM
      1 C1         5.8435    4.3668   11.7237 C.ar      1 RES1    0.0000
      2 C2         4.7985    5.2742   11.7265 C.ar      1 RES1    0.0000
      3 C3         3.8580    5.2765   10.7170 C.ar      1 RES1    0.0000
      4 C4         3.9203    4.3639    9.6991 C.ar      1 RES1    0.0000
      5 C5         4.9941    3.4375    9.6312 C.ar      1 RES1    0.0000
      6 C6         5.0288    2.4317    8.5510 C.ar      1 RES1    0.0000
      7 C7         4.0861    2.4294    7.5132 C.ar      1 RES1    0.0000
      8 C8         4.0516    1.4305    6.5631 C.ar      1 RES1    0.0000
      9 C9         4.9835    0.3936    6.6197 C.ar      1 RES1    0.0000
     10 C10        5.9438    0.3936    7.6037 C.ar      1 RES1    0.0000
     11 C11        5.9977    1.4057    8.5878 C.ar      1 RES1    0.0000
     12 C12        7.0956    1.4817    9.5605 C.ar      1 RES1    0.0000
     13 C13        8.1411    0.5501    9.5322 C.ar      1 RES1    0.0000
     14 C14        9.2791    0.7267   10.2703 C.ar      1 RES1    0.0000
     15 C15        9.4328    1.8822   11.0422 C.ar      1 RES1    0.0000
     16 C16        8.3852    2.7741   11.1355 C.ar      1 RES1    0.0000
     17 C17        7.1628    2.5715   10.4569 C.ar      1 RES1    0.0000
     18 C18        6.0003    3.4732   10.6209 C.ar      1 RES1    0.0000
     19 C19        6.6921    4.3685   12.9679 C.ar      1 RES1    0.0000
     20 C20        6.6667    3.2965   13.8671 C.ar      1 RES1    0.0000
     21 C21        7.3797    3.3374   15.0350 C.ar      1 RES1    0.0000
     22 C22        8.1578    4.4399   15.3460 C.ar      1 RES1    0.0000
     23 C23        8.1903    5.5142   14.4723 C.ar      1 RES1    0.0000
     24 C24        7.4554    5.4877   13.3129 C.ar      1 RES1    0.0000
     25 H1         4.7258    5.9043   12.4363 H         1 RES1    0.0000
     26 H2         3.1593    5.9198   10.7312 H         1 RES1    0.0000
     27 H3         3.2392    4.3495    9.0374 H         1 RES1    0.0000
     28 H4         3.4545    3.1366    7.4623 H         1 RES1    0.0000
     29 H5         3.3961    1.4477    5.8760 H         1 RES1    0.0000
     30 H6         4.9528   -0.3096    5.9806 H         1 RES1    0.0000
     31 H7         6.5884   -0.3038    7.6207 H         1 RES1    0.0000
     32 H8         8.0590   -0.2238    8.9865 H         1 RES1    0.0000
     33 H9         9.9625    0.0679   10.2561 H         1 RES1    0.0000
     34 H10       10.2481    2.0502   11.4975 H         1 RES1    0.0000
     35 H11        8.4892    3.5503   11.6728 H         1 RES1    0.0000
     36 H12        6.1480    2.5278   13.6635 H         1 RES1    0.0000
     37 H13        7.3401    2.6037   15.6373 H         1 RES1    0.0000
     38 H14        8.6647    4.4589   16.1491 H         1 RES1    0.0000
     39 H15        8.7234    6.2737   14.6787 H         1 RES1    0.0000
     40 H16        7.4647    6.2426   12.7389 H         1 RES1    0.0000
     41 C25       -0.6247    7.2444    2.5025 C.ar      2 RES2    0.0000
     42 C26       -1.3591    8.2704    1.9285 C.ar      2 RES2    0.0000
     43 C27       -2.7098    8.4390    2.1887 C.ar      2 RES2    0.0000
     44 C28       -3.3714    7.5454    2.9748 C.ar      2 RES2    0.0000
     45 C29       -2.6763    6.4849    3.6110 C.ar      2 RES2    0.0000
     46 C30       -3.4114    5.4980    4.4169 C.ar      2 RES2    0.0000
     47 C31       -4.8209    5.4946    4.4706 C.ar      2 RES2    0.0000
     48 C32       -5.4922    4.5239    5.1691 C.ar      2 RES2    0.0000
     49 C33       -4.8185    3.5313    5.8534 C.ar      2 RES2    0.0000
     50 C34       -3.4519    3.5094    5.8138 C.ar      2 RES2    0.0000
     51 C35       -2.7149    4.4640    5.0842 C.ar      2 RES2    0.0000
     52 C36       -1.2450    4.4479    5.0446 C.ar      2 RES2    0.0000
     53 C37       -0.5175    3.4697    5.7572 C.ar      2 RES2    0.0000
     54 C38        0.8434    3.4778    5.7883 C.ar      2 RES2    0.0000
     55 C39        1.5432    4.5020    5.1549 C.ar      2 RES2    0.0000
     56 C40        0.8681    5.4468    4.4339 C.ar      2 RES2    0.0000
     57 C41       -0.5390    5.4106    4.2925 C.ar      2 RES2    0.0000
     58 C42       -1.2776    6.3819    3.4555 C.ar      2 RES2    0.0000
     59 C43        0.7539    7.0292    1.9455 C.ar      2 RES2    0.0000
     60 C44        1.0478    5.8525    1.2612 C.ar      2 RES2    0.0000
     61 C45        2.2697    5.6810    0.6391 C.ar      2 RES2    0.0000
     62 C46        3.2238    6.6684    0.7098 C.ar      2 RES2    0.0000
     63 C47        2.9499    7.8262    1.3856 C.ar      2 RES2    0.0000
     64 C48        1.7354    8.0252    1.9907 C.ar      2 RES2    0.0000
     65 H17       -0.9255    8.8763    1.3375 H         2 RES2    0.0000
     66 H18       -3.1751    9.1789    1.8154 H         2 RES2    0.0000
     67 H19       -4.3097    7.6334    3.0963 H         2 RES2    0.0000
     68 H20       -5.3101    6.1718    4.0182 H         2 RES2    0.0000
     69 H21       -6.4414    4.5348    5.1832 H         2 RES2    0.0000
     70 H22       -5.2973    2.8736    6.3426 H         2 RES2    0.0000
     71 H23       -2.9853    2.8322    6.2888 H         2 RES2    0.0000
     72 H24       -0.9898    2.7902    6.2266 H         2 RES2    0.0000
     73 H25        1.3135    2.7867    6.2408 H         2 RES2    0.0000
     74 H26        2.4896    4.5446    5.2256 H         2 RES2    0.0000
     75 H27        1.3564    6.1460    4.0154 H         2 RES2    0.0000
     76 H28        0.4000    5.1591    1.2187 H         2 RES2    0.0000
     77 H29        2.4495    4.8795    0.1640 H         2 RES2    0.0000
     78 H30        4.0686    6.5476    0.2884 H         2 RES2    0.0000
     79 H31        3.6140    8.5040    1.4365 H         2 RES2    0.0000
     80 H32        1.5582    8.8429    2.4403 H         2 RES2    0.0000
@<TRIPOS>BOND
     1    1    2 ar
     2    2    3 ar
     3    3    4 ar
     4    4    5 ar
     5    5    6 ar
     6    6    7 ar
     7    7    8 ar
     8    8    9 ar
     9    9   10 ar
    10   10   11 ar
    11   11    6 ar
    12   12   11 ar
    13   13   12 ar
    14   14   13 ar
    15   15   14 ar
    16   16   15 ar
    17   17   12 ar
    18   18    1 ar
    19   19    1 1
    20   20   19 ar
    21   21   20 ar
    22   22   21 ar
    23   23   22 ar
    24   24   19 ar
    25   25    2 1
    26   26    3 1
    27   27    4 1
    28   28    7 1
    29   29    8 1
    30   30    9 1
    31   31   10 1
    32   32   13 1
    33   33   14 1
    34   34   15 1
    35   35   16 1
    36   36   20 1
    37   37   21 1
    38   38   22 1
    39   39   23 1
    40   40   24 1
    41   41   42 ar
    42   42   43 ar
    43   43   44 ar
    44   44   45 ar
    45   45   46 ar
    46   46   47 ar
    47   47   48 ar
    48   48   49 ar
    49   49   50 ar
    50   50   51 ar
    51   51   46 ar
    52   52   51 ar
    53   53   52 ar
    54   54   53 ar
    55   55   54 ar
    56   56   55 ar
    57   57   52 ar
    58   58   41 ar
    59   59   41 1
    60   60   59 ar
    61   61   60 ar
    62   62   61 ar
    63   63   62 ar
    64   64   59 ar
    65   65   42 1
    66   66   43 1
    67   67   44 1
    68   68   47 1
    69   69   48 1
    70   70   49 1
    71   71   50 1
    72   72   53 1
    73   73   54 1
    74   74   55 1
    75   75   56 1
    76   76   60 1
    77   77   61 1
    78   78   62 1
    79   79   63 1
    80   80   64 1
    81    5   18 ar
    82   16   17 ar
    83   17   18 ar
    84   23   24 ar
    85   45   58 ar
    86   56   57 ar
    87   57   58 ar
    88   63   64 ar
@<TRIPOS>SUBSTRUCTURE
     1 RES1 1
     2 RES2 41

@<TRIPOS>CRYSIN
  19.1209    5.7541   29.7420  90.0000 108.0570  90.0000  14 1

