# MOL2 file generated by ConQuest
# Please check atom types

@<TRIPOS>MOLECULE
XIRQUK01
    80    88     2
SMALL
NO_CHARGES
****
Generated from CSD

@<TRIPOS>ATOM
      1 C1         5.5970    1.3808   11.6083 C.ar      1 RES1    0.0000
      2 C2         6.3174    0.3591   12.1926 C.ar      1 RES1    0.0000
      3 H1         5.8824   -0.2314   12.7812 H         1 RES1    0.0000
      4 C3         7.6660    0.1836   11.9350 C.ar      1 RES1    0.0000
      5 H2         8.1257   -0.5497   12.3016 H         1 RES1    0.0000
      6 C4         8.3238    1.0826   11.1442 C.ar      1 RES1    0.0000
      7 H3         9.2511    0.9951   11.0206 H         1 RES1    0.0000
      8 C5         7.6442    2.1336   10.5113 C.ar      1 RES1    0.0000
      9 C6         8.3748    3.1264    9.7132 C.ar      1 RES1    0.0000
     10 C7         9.7883    3.1322    9.6542 C.ar      1 RES1    0.0000
     11 H4        10.2697    2.4582   10.0980 H         1 RES1    0.0000
     12 C8        10.4716    4.1003    8.9621 C.ar      1 RES1    0.0000
     13 H5        11.4113    4.0928    8.9497 H         1 RES1    0.0000
     14 C9         9.7830    5.0839    8.2832 C.ar      1 RES1    0.0000
     15 H6        10.2532    5.7360    7.7957 H         1 RES1    0.0000
     16 C10        8.4170    5.1110    8.3174 C.ar      1 RES1    0.0000
     17 H7         7.9572    5.7844    7.8493 H         1 RES1    0.0000
     18 C11        7.6850    4.1515    9.0405 C.ar      1 RES1    0.0000
     19 C12        6.2231    4.1814    9.0803 C.ar      1 RES1    0.0000
     20 C13        5.4937    5.1455    8.3642 C.ar      1 RES1    0.0000
     21 H8         5.9585    5.8201    7.9057 H         1 RES1    0.0000
     22 C14        4.1306    5.1328    8.3154 C.ar      1 RES1    0.0000
     23 H9         3.6686    5.8080    7.8521 H         1 RES1    0.0000
     24 C15        3.4309    4.1187    8.9514 C.ar      1 RES1    0.0000
     25 H10        2.4948    4.0773    8.8819 H         1 RES1    0.0000
     26 C16        4.1074    3.1788    9.6779 C.ar      1 RES1    0.0000
     27 H11        3.6231    2.4887   10.0924 H         1 RES1    0.0000
     28 C17        5.5113    3.2134    9.8243 C.ar      1 RES1    0.0000
     29 C18        6.2401    2.2326   10.6614 C.ar      1 RES1    0.0000
     30 C19        4.2248    1.5960   12.1489 C.ar      1 RES1    0.0000
     31 C20        3.2434    0.6061   12.1015 C.ar      1 RES1    0.0000
     32 H12        3.4210   -0.2032   11.6554 H         1 RES1    0.0000
     33 C21        2.0133    0.8006   12.7025 C.ar      1 RES1    0.0000
     34 H13        1.3567    0.1312   12.6430 H         1 RES1    0.0000
     35 C22        1.7406    1.9621   13.3836 C.ar      1 RES1    0.0000
     36 H14        0.9053    2.0847   13.7969 H         1 RES1    0.0000
     37 C23        2.7028    2.9446   13.4567 C.ar      1 RES1    0.0000
     38 H15        2.5282    3.7365   13.9324 H         1 RES1    0.0000
     39 C24        3.9237    2.7690   12.8351 C.ar      1 RES1    0.0000
     40 H16        4.5628    3.4557   12.8771 H         1 RES1    0.0000
     41 C25       -0.8981   -1.4999    2.4056 C.ar      2 RES2    0.0000
     42 C26        0.1511   -2.4001    2.3980 C.ar      2 RES2    0.0000
     43 H17        0.2278   -3.0125    1.6872 H         2 RES2    0.0000
     44 C27        1.0951   -2.4202    3.4142 C.ar      2 RES2    0.0000
     45 H18        1.7808   -3.0637    3.4083 H         2 RES2    0.0000
     46 C28        1.0264   -1.5039    4.4215 C.ar      2 RES2    0.0000
     47 H19        1.6987   -1.4901    5.0786 H         2 RES2    0.0000
     48 C29       -0.0318   -0.5779    4.4968 C.ar      2 RES2    0.0000
     49 C30       -0.0688    0.4265    5.5659 C.ar      2 RES2    0.0000
     50 C31        0.8828    0.4299    6.6112 C.ar      2 RES2    0.0000
     51 H20        1.5065   -0.2705    6.6643 H         2 RES2    0.0000
     52 C32        0.9172    1.4280    7.5460 C.ar      2 RES2    0.0000
     53 H21        1.5701    1.4147    8.2217 H         2 RES2    0.0000
     54 C33       -0.0042    2.4542    7.4972 C.ar      2 RES2    0.0000
     55 H22        0.0290    3.1483    8.1286 H         2 RES2    0.0000
     56 C34       -0.9683    2.4571    6.5224 C.ar      2 RES2    0.0000
     57 H23       -1.6048    3.1489    6.5091 H         2 RES2    0.0000
     58 C35       -1.0293    1.4481    5.5422 C.ar      2 RES2    0.0000
     59 C36       -2.1307    1.3785    4.5778 C.ar      2 RES2    0.0000
     60 C37       -3.1824    2.3103    4.6108 C.ar      2 RES2    0.0000
     61 H24       -3.0993    3.0764    5.1492 H         2 RES2    0.0000
     62 C38       -4.3294    2.1284    3.8772 C.ar      2 RES2    0.0000
     63 H25       -5.0100    2.7771    3.8936 H         2 RES2    0.0000
     64 C39       -4.4767    0.9790    3.1129 C.ar      2 RES2    0.0000
     65 H26       -5.2869    0.8092    2.6691 H         2 RES2    0.0000
     66 C40       -3.4325    0.0898    3.0068 C.ar      2 RES2    0.0000
     67 H27       -3.5395   -0.6769    2.4744 H         2 RES2    0.0000
     68 C41       -2.2071    0.2947    3.6747 C.ar      2 RES2    0.0000
     69 C42       -1.0522   -0.6061    3.5079 C.ar      2 RES2    0.0000
     70 C43       -1.7482   -1.5011    1.1785 C.ar      2 RES2    0.0000
     71 C44       -2.5084   -2.6142    0.8371 C.ar      2 RES2    0.0000
     72 H28       -2.5191   -3.3601    1.4107 H         2 RES2    0.0000
     73 C45       -3.2496   -2.6441   -0.3307 C.ar      2 RES2    0.0000
     74 H29       -3.7751   -3.3964   -0.5361 H         2 RES2    0.0000
     75 C46       -3.2180   -1.5730   -1.1915 C.ar      2 RES2    0.0000
     76 H30       -3.7253   -1.5897   -1.9835 H         2 RES2    0.0000
     77 C47       -2.4388   -0.4708   -0.8924 C.ar      2 RES2    0.0000
     78 H31       -2.3976    0.2521   -1.4926 H         2 RES2    0.0000
     79 C48       -1.7204   -0.4294    0.2836 C.ar      2 RES2    0.0000
     80 H32       -1.2052    0.3298    0.4853 H         2 RES2    0.0000
@<TRIPOS>BOND
     1    1    2 ar
     2    2    3 1
     3    4    2 ar
     4    5    4 1
     5    6    4 ar
     6    7    6 1
     7    8    6 ar
     8    9    8 ar
     9   10    9 ar
    10   11   10 1
    11   12   10 ar
    12   13   12 1
    13   14   12 ar
    14   15   14 1
    15   16   14 ar
    16   17   16 1
    17   18    9 ar
    18   19   18 ar
    19   20   19 ar
    20   21   20 1
    21   22   20 ar
    22   23   22 1
    23   24   22 ar
    24   25   24 1
    25   26   24 ar
    26   27   26 1
    27   28   19 ar
    28   29    1 ar
    29   30    1 1
    30   31   30 ar
    31   32   31 1
    32   33   31 ar
    33   34   33 1
    34   35   33 ar
    35   36   35 1
    36   37   35 ar
    37   38   37 1
    38   39   30 ar
    39   40   39 1
    40   41   42 ar
    41   42   43 1
    42   44   42 ar
    43   45   44 1
    44   46   44 ar
    45   47   46 1
    46   48   46 ar
    47   49   48 ar
    48   50   49 ar
    49   51   50 1
    50   52   50 ar
    51   53   52 1
    52   54   52 ar
    53   55   54 1
    54   56   54 ar
    55   57   56 1
    56   58   49 ar
    57   59   58 ar
    58   60   59 ar
    59   61   60 1
    60   62   60 ar
    61   63   62 1
    62   64   62 ar
    63   65   64 1
    64   66   64 ar
    65   67   66 1
    66   68   59 ar
    67   69   41 ar
    68   70   41 1
    69   71   70 ar
    70   72   71 1
    71   73   71 ar
    72   74   73 1
    73   75   73 ar
    74   76   75 1
    75   77   75 ar
    76   78   77 1
    77   79   70 ar
    78   80   79 1
    79    8   29 ar
    80   16   18 ar
    81   26   28 ar
    82   28   29 ar
    83   37   39 ar
    84   48   69 ar
    85   56   58 ar
    86   66   68 ar
    87   68   69 ar
    88   77   79 ar
@<TRIPOS>SUBSTRUCTURE
     1 RES1 1
     2 RES2 41

@<TRIPOS>CRYSIN
  19.1157    5.7556   29.6669  90.0000 108.0020  90.0000  14 1

