# MOL2 file generated by ConQuest
# Please check atom types

@<TRIPOS>MOLECULE
XITNUK
    36    38     1
SMALL
NO_CHARGES
****
Generated from CSD

@<TRIPOS>ATOM
      1 C1         4.5517    6.0332   12.8629 C.ar      1 RES1    0.0000
      2 C2         3.7254    5.5244   11.9081 C.ar      1 RES1    0.0000
      3 C3         4.1595    4.5468   10.9740 C.ar      1 RES1    0.0000
      4 C4         5.4286    4.0502   10.9909 C.ar      1 RES1    0.0000
      5 C5         6.3483    4.5438   11.9870 C.ar      1 RES1    0.0000
      6 C6         5.9084    5.5472   12.9205 C.ar      1 RES1    0.0000
      7 C7         7.6621    4.0749   12.0756 C.ar      1 RES1    0.0000
      8 C8         4.0788    7.0890   13.8177 C.3       1 RES1    0.0000
      9 C9         5.8616    3.0090   10.0036 C.3       1 RES1    0.0000
     10 H1         2.8066    5.7940   11.8445 H         1 RES1    0.0000
     11 H2         3.5041    4.2042   10.2618 H         1 RES1    0.0000
     12 H3         7.9549    3.3613   11.4034 H         1 RES1    0.0000
     13 H4         3.0509    7.1617   13.7516 H         1 RES1    0.0000
     14 H5         4.2658    6.8589   14.7246 H         1 RES1    0.0000
     15 H6         4.4921    7.9591   13.6608 H         1 RES1    0.0000
     16 H7         5.1182    2.7859    9.4185 H         1 RES1    0.0000
     17 H8         6.1249    2.1702   10.4434 H         1 RES1    0.0000
     18 H9         6.6634    3.3007    9.4964 H         1 RES1    0.0000
     19 C1B        9.9290    4.0608   13.0834 C.ar      1 RES1    0.0000
     20 C2B       10.7553    4.5696   14.0383 C.ar      1 RES1    0.0000
     21 C3B       10.3212    5.5472   14.9723 C.ar      1 RES1    0.0000
     22 C4B        9.0521    6.0438   14.9555 C.ar      1 RES1    0.0000
     23 C5B        8.1324    5.5502   13.9594 C.ar      1 RES1    0.0000
     24 C6B        8.5723    4.5468   13.0258 C.ar      1 RES1    0.0000
     25 C7B        6.8186    6.0191   13.8708 C.ar      1 RES1    0.0000
     26 C8B       10.4019    3.0050   12.1286 C.3       1 RES1    0.0000
     27 C9B        8.6190    7.0850   15.9427 C.3       1 RES1    0.0000
     28 H1B       11.6741    4.3000   14.1018 H         1 RES1    0.0000
     29 H2B       10.9766    5.8898   15.6846 H         1 RES1    0.0000
     30 H3B        6.5257    6.7327   14.5429 H         1 RES1    0.0000
     31 H4B       11.4298    2.9323   12.1948 H         1 RES1    0.0000
     32 H5B       10.2149    3.2351   11.2218 H         1 RES1    0.0000
     33 H6B        9.9886    2.1349   12.2856 H         1 RES1    0.0000
     34 H7B        9.3625    7.3081   16.5278 H         1 RES1    0.0000
     35 H8B        8.3558    7.9238   15.5029 H         1 RES1    0.0000
     36 H9B        7.8173    6.7933   16.4500 H         1 RES1    0.0000
@<TRIPOS>BOND
     1    1    2 ar
     2    2    3 ar
     3    3    4 ar
     4    4    5 ar
     5    5    6 ar
     6    6    1 ar
     7    7    5 ar
     8    8    1 1
     9    9    4 1
    10   10    2 1
    11   11    3 1
    12   12    7 1
    13   13    8 1
    14   14    8 1
    15   15    8 1
    16   16    9 1
    17   17    9 1
    18   18    9 1
    19   19   20 ar
    20   20   21 ar
    21   21   22 ar
    22   22   23 ar
    23   23   24 ar
    24   24    7 ar
    25   25    6 ar
    26   26   19 1
    27   27   22 1
    28   28   20 1
    29   29   21 1
    30   30   25 1
    31   31   26 1
    32   32   26 1
    33   33   26 1
    34   34   27 1
    35   35   27 1
    36   36   27 1
    37   19   24 ar
    38   23   25 ar
@<TRIPOS>SUBSTRUCTURE
     1 RES1 1

@<TRIPOS>CRYSIN
   9.8800    5.0470   13.2390  90.0000 101.5010  90.0000  14 1

