# MOL2 file generated by ConQuest
# Please check atom types

@<TRIPOS>MOLECULE
XITPIA
    96    98     1
SMALL
NO_CHARGES
****
Generated from CSD

@<TRIPOS>ATOM
      1 C1         3.0956    3.6986    0.9874 C.ar      1 RES1    0.0000
      2 C2         2.3396    3.3730    2.0710 C.ar      1 RES1    0.0000
      3 C3         1.4637    4.2960    2.6927 C.ar      1 RES1    0.0000
      4 C4         1.3341    5.5753    2.2457 C.ar      1 RES1    0.0000
      5 C5         2.1359    5.9912    1.1134 C.ar      1 RES1    0.0000
      6 C6         3.0102    5.0433    0.4876 C.ar      1 RES1    0.0000
      7 C7         2.0823    7.2907    0.6041 C.ar      1 RES1    0.0000
      8 C8         3.9311    2.6618    0.2899 C.3       1 RES1    0.0000
      9 C9         3.2072    2.0968   -0.9481 C.3       1 RES1    0.0000
     10 C10        4.0793    1.1785   -1.7947 C.3       1 RES1    0.0000
     11 C11        3.3254    0.5534   -2.9595 C.3       1 RES1    0.0000
     12 C12        4.1856   -0.3280   -3.8467 C.3       1 RES1    0.0000
     13 C13        3.4202   -0.9470   -4.9925 C.3       1 RES1    0.0000
     14 C14        0.4016    6.5433    2.9432 C.3       1 RES1    0.0000
     15 C15        1.1311    7.4607    3.9333 C.3       1 RES1    0.0000
     16 C16        0.2019    8.4092    4.6634 C.3       1 RES1    0.0000
     17 C17        0.9067    9.2950    5.6819 C.3       1 RES1    0.0000
     18 C18       -0.0042   10.2072    6.4756 C.3       1 RES1    0.0000
     19 C19        0.7257   11.0682    7.4847 C.3       1 RES1    0.0000
     20 H1         2.3954    2.4881    2.4245 H         1 RES1    0.0000
     21 H2         0.9664    3.9718    3.4539 H         1 RES1    0.0000
     22 H3         1.4901    7.9174    1.0429 H         1 RES1    0.0000
     23 H4         4.1338    1.9481    0.9210 H         1 RES1    0.0000
     24 H5         4.8181    3.0904   -0.0542 H         1 RES1    0.0000
     25 H6         2.4176    1.5689   -0.6095 H         1 RES1    0.0000
     26 H7         2.8254    2.8670   -1.5034 H         1 RES1    0.0000
     27 H8         4.5155    0.4760   -1.1919 H         1 RES1    0.0000
     28 H9         4.8163    1.7127   -2.2078 H         1 RES1    0.0000
     29 H10        2.5813   -0.0179   -2.5870 H         1 RES1    0.0000
     30 H11        2.9576    1.2776   -3.4945 H         1 RES1    0.0000
     31 H12        4.5348   -1.0496   -3.2507 H         1 RES1    0.0000
     32 H13        4.9089    0.1693   -4.2259 H         1 RES1    0.0000
     33 H14        2.7164   -1.6559   -4.7000 H         1 RES1    0.0000
     34 H15        2.9444   -0.2633   -5.5668 H         1 RES1    0.0000
     35 H16        3.9860   -1.5036   -5.5804 H         1 RES1    0.0000
     36 H17       -0.2593    6.0517    3.4539 H         1 RES1    0.0000
     37 H18       -0.0530    7.1351    2.2348 H         1 RES1    0.0000
     38 H19        1.6339    6.8467    4.6864 H         1 RES1    0.0000
     39 H20        1.7745    8.0015    3.4403 H         1 RES1    0.0000
     40 H21       -0.4901    7.8705    5.1740 H         1 RES1    0.0000
     41 H22       -0.2624    8.9718    3.9821 H         1 RES1    0.0000
     42 H23        1.3787    8.6807    6.3524 H         1 RES1    0.0000
     43 H24        1.5503    9.8611    5.2417 H         1 RES1    0.0000
     44 H25       -0.6748    9.6332    6.9348 H         1 RES1    0.0000
     45 H26       -0.5193   10.7805    5.8512 H         1 RES1    0.0000
     46 H27        1.2035   10.4944    8.1809 H         1 RES1    0.0000
     47 H28        1.3595   11.7054    6.9619 H         1 RES1    0.0000
     48 H29        0.0281   11.6197    7.9913 H         1 RES1    0.0000
     49 C1A        2.7653    9.0615   -0.9874 C.ar      1 RES1    0.0000
     50 C2A        3.5212    9.3870   -2.0710 C.ar      1 RES1    0.0000
     51 C3A        4.3971    8.4641   -2.6927 C.ar      1 RES1    0.0000
     52 C4A        4.5268    7.1847   -2.2457 C.ar      1 RES1    0.0000
     53 C5A        3.7249    6.7689   -1.1134 C.ar      1 RES1    0.0000
     54 C6A        2.8507    7.7168   -0.4876 C.ar      1 RES1    0.0000
     55 C7A        3.7785    5.4694   -0.6041 C.ar      1 RES1    0.0000
     56 C8A        1.9297   10.0983   -0.2899 C.3       1 RES1    0.0000
     57 C9A        2.6536   10.6633    0.9481 C.3       1 RES1    0.0000
     58 C10A       1.7815   11.5816    1.7947 C.3       1 RES1    0.0000
     59 C11A       2.5354   12.2067    2.9595 C.3       1 RES1    0.0000
     60 C12A       1.6753   13.0880    3.8467 C.3       1 RES1    0.0000
     61 C13A       2.4407   13.7070    4.9925 C.3       1 RES1    0.0000
     62 C14A       5.4592    6.2168   -2.9432 C.3       1 RES1    0.0000
     63 C15A       4.7298    5.2994   -3.9333 C.3       1 RES1    0.0000
     64 C16A       5.6589    4.3509   -4.6634 C.3       1 RES1    0.0000
     65 C17A       4.9542    3.4650   -5.6819 C.3       1 RES1    0.0000
     66 C18A       5.8650    2.5529   -6.4756 C.3       1 RES1    0.0000
     67 C19A       5.1351    1.6919   -7.4847 C.3       1 RES1    0.0000
     68 H1A        3.4654   10.2720   -2.4245 H         1 RES1    0.0000
     69 H2A        4.8944    8.7882   -3.4539 H         1 RES1    0.0000
     70 H3A        4.3707    4.8427   -1.0429 H         1 RES1    0.0000
     71 H4A        1.7270   10.8120   -0.9210 H         1 RES1    0.0000
     72 H5A        1.0427    9.6696    0.0542 H         1 RES1    0.0000
     73 H6A        3.4432   11.1912    0.6095 H         1 RES1    0.0000
     74 H7A        3.0354    9.8931    1.5034 H         1 RES1    0.0000
     75 H8A        1.3454   12.2840    1.1919 H         1 RES1    0.0000
     76 H9A        1.0446   11.0473    2.2078 H         1 RES1    0.0000
     77 H10A       3.2795   12.7780    2.5870 H         1 RES1    0.0000
     78 H11A       2.9032   11.4825    3.4945 H         1 RES1    0.0000
     79 H12A       1.3260   13.8097    3.2507 H         1 RES1    0.0000
     80 H13A       0.9519   12.5908    4.2259 H         1 RES1    0.0000
     81 H14A       3.1444   14.4159    4.7000 H         1 RES1    0.0000
     82 H15A       2.9165   13.0234    5.5668 H         1 RES1    0.0000
     83 H16A       1.8748   14.2637    5.5804 H         1 RES1    0.0000
     84 H17A       6.1201    6.7083   -3.4539 H         1 RES1    0.0000
     85 H18A       5.9139    5.6250   -2.2348 H         1 RES1    0.0000
     86 H19A       4.2269    5.9134   -4.6864 H         1 RES1    0.0000
     87 H20A       4.0863    4.7586   -3.4403 H         1 RES1    0.0000
     88 H21A       6.3510    4.8896   -5.1740 H         1 RES1    0.0000
     89 H22A       6.1232    3.7883   -3.9821 H         1 RES1    0.0000
     90 H23A       4.4821    4.0794   -6.3524 H         1 RES1    0.0000
     91 H24A       4.3105    2.8989   -5.2417 H         1 RES1    0.0000
     92 H25A       6.5356    3.1269   -6.9348 H         1 RES1    0.0000
     93 H26A       6.3801    1.9796   -5.8512 H         1 RES1    0.0000
     94 H27A       4.6573    2.2656   -8.1809 H         1 RES1    0.0000
     95 H28A       4.5013    1.0547   -6.9619 H         1 RES1    0.0000
     96 H29A       5.8327    1.1404   -7.9913 H         1 RES1    0.0000
@<TRIPOS>BOND
     1    1    2 ar
     2    2    3 ar
     3    3    4 ar
     4    4    5 ar
     5    5    6 ar
     6    6    1 ar
     7    7    5 ar
     8    8    1 1
     9    9    8 1
    10   10    9 1
    11   11   10 1
    12   12   11 1
    13   13   12 1
    14   14    4 1
    15   15   14 1
    16   16   15 1
    17   17   16 1
    18   18   17 1
    19   19   18 1
    20   20    2 1
    21   21    3 1
    22   22    7 1
    23   23    8 1
    24   24    8 1
    25   25    9 1
    26   26    9 1
    27   27   10 1
    28   28   10 1
    29   29   11 1
    30   30   11 1
    31   31   12 1
    32   32   12 1
    33   33   13 1
    34   34   13 1
    35   35   13 1
    36   36   14 1
    37   37   14 1
    38   38   15 1
    39   39   15 1
    40   40   16 1
    41   41   16 1
    42   42   17 1
    43   43   17 1
    44   44   18 1
    45   45   18 1
    46   46   19 1
    47   47   19 1
    48   48   19 1
    49   49   50 ar
    50   50   51 ar
    51   51   52 ar
    52   52   53 ar
    53   53   54 ar
    54   54    7 ar
    55   55    6 ar
    56   56   49 1
    57   57   56 1
    58   58   57 1
    59   59   58 1
    60   60   59 1
    61   61   60 1
    62   62   52 1
    63   63   62 1
    64   64   63 1
    65   65   64 1
    66   66   65 1
    67   67   66 1
    68   68   50 1
    69   69   51 1
    70   70   55 1
    71   71   56 1
    72   72   56 1
    73   73   57 1
    74   74   57 1
    75   75   58 1
    76   76   58 1
    77   77   59 1
    78   78   59 1
    79   79   60 1
    80   80   60 1
    81   81   61 1
    82   82   61 1
    83   83   61 1
    84   84   62 1
    85   85   62 1
    86   86   63 1
    87   87   63 1
    88   88   64 1
    89   89   64 1
    90   90   65 1
    91   91   65 1
    92   92   66 1
    93   93   66 1
    94   94   67 1
    95   95   67 1
    96   96   67 1
    97   49   54 ar
    98   53   55 ar
@<TRIPOS>SUBSTRUCTURE
     1 RES1 1

@<TRIPOS>CRYSIN
   4.7310   12.8100   14.1300  78.4500  77.3200  84.9400   2 1

