# MOL2 file generated by ConQuest
# Please check atom types

@<TRIPOS>MOLECULE
XITPEW
    60    62     1
SMALL
NO_CHARGES
****
Generated from CSD

@<TRIPOS>ATOM
      1 C1         6.6613   -0.4344    9.8282 C.ar      1 RES1    0.0000
      2 C2         6.1912   -0.6747    8.5725 C.ar      1 RES1    0.0000
      3 C3         6.8630   -0.1972    7.4145 C.ar      1 RES1    0.0000
      4 C4         8.0234    0.5152    7.4872 C.ar      1 RES1    0.0000
      5 C5         8.5623    0.8087    8.7893 C.ar      1 RES1    0.0000
      6 C6         7.8750    0.3445    9.9634 C.ar      1 RES1    0.0000
      7 C7         9.7325    1.5576    8.9578 C.ar      1 RES1    0.0000
      8 C8         5.9658   -0.9439   11.0689 C.3       1 RES1    0.0000
      9 C9         4.6991   -1.7600   10.8520 C.3       1 RES1    0.0000
     10 C10        4.0906   -2.2018   12.1764 C.3       1 RES1    0.0000
     11 C11        8.7364    0.9312    6.2233 C.3       1 RES1    0.0000
     12 C12        9.8631   -0.0234    5.8360 C.3       1 RES1    0.0000
     13 C13       10.6875    0.4600    4.6680 C.3       1 RES1    0.0000
     14 H1         5.3857   -1.1725    8.4595 H         1 RES1    0.0000
     15 H2         6.4831   -0.3981    6.5612 H         1 RES1    0.0000
     16 H3        10.1815    1.8545    8.1973 H         1 RES1    0.0000
     17 H4         6.5910   -1.4893   11.5379 H         1 RES1    0.0000
     18 H5         5.7410   -0.1925   11.5994 H         1 RES1    0.0000
     19 H6         4.9115   -2.5432   10.3447 H         1 RES1    0.0000
     20 H7         4.0660   -1.2428   10.3729 H         1 RES1    0.0000
     21 H8         3.2900   -2.6953   12.0079 H         1 RES1    0.0000
     22 H9         3.8711   -1.4277   12.6888 H         1 RES1    0.0000
     23 H10        4.7014   -2.7378   12.6504 H         1 RES1    0.0000
     24 H11        8.1090    0.9687    5.5143 H         1 RES1    0.0000
     25 H12        9.1100    1.7996    6.3595 H         1 RES1    0.0000
     26 H13        9.4820   -0.8689    5.6131 H         1 RES1    0.0000
     27 H14       10.4437   -0.1351    6.5844 H         1 RES1    0.0000
     28 H15       10.1171    0.5613    3.8984 H         1 RES1    0.0000
     29 H16       11.0717    1.3054    4.8687 H         1 RES1    0.0000
     30 H17       11.3690   -0.1623    4.4612 H         1 RES1    0.0000
     31 C1A       11.4748    2.6600   10.3447 C.ar      1 RES1    0.0000
     32 C2A       11.9449    2.9003   11.6004 C.ar      1 RES1    0.0000
     33 C3A       11.2731    2.4228   12.7584 C.ar      1 RES1    0.0000
     34 C4A       10.1127    1.7103   12.6857 C.ar      1 RES1    0.0000
     35 C5A        9.5738    1.4169   11.3836 C.ar      1 RES1    0.0000
     36 C6A       10.2611    1.8811   10.2095 C.ar      1 RES1    0.0000
     37 C7A        8.4036    0.6680   11.2151 C.ar      1 RES1    0.0000
     38 C8A       12.1703    3.1695    9.1040 C.3       1 RES1    0.0000
     39 C9A       13.4370    3.9856    9.3209 C.3       1 RES1    0.0000
     40 C10A      14.0455    4.4274    7.9965 C.3       1 RES1    0.0000
     41 C11A       9.3997    1.2944   13.9496 C.3       1 RES1    0.0000
     42 C12A       8.2730    2.2490   14.3369 C.3       1 RES1    0.0000
     43 C13A       7.4486    1.7655   15.5049 C.3       1 RES1    0.0000
     44 H1A       12.7504    3.3981   11.7134 H         1 RES1    0.0000
     45 H2A       11.6530    2.6237   13.6117 H         1 RES1    0.0000
     46 H3A        7.9546    0.3711   11.9756 H         1 RES1    0.0000
     47 H4A       11.5451    3.7149    8.6350 H         1 RES1    0.0000
     48 H5A       12.3951    2.4181    8.5735 H         1 RES1    0.0000
     49 H6A       13.2246    4.7688    9.8282 H         1 RES1    0.0000
     50 H7A       14.0701    3.4684    9.8000 H         1 RES1    0.0000
     51 H8A       14.8461    4.9209    8.1650 H         1 RES1    0.0000
     52 H9A       14.2650    3.6533    7.4841 H         1 RES1    0.0000
     53 H10A      13.4347    4.9634    7.5225 H         1 RES1    0.0000
     54 H11A      10.0271    1.2569   14.6586 H         1 RES1    0.0000
     55 H12A       9.0261    0.4260   13.8134 H         1 RES1    0.0000
     56 H13A       8.6541    3.0945   14.5598 H         1 RES1    0.0000
     57 H14A       7.6924    2.3607   13.5885 H         1 RES1    0.0000
     58 H15A       8.0190    1.6643   16.2745 H         1 RES1    0.0000
     59 H16A       7.0643    0.9202   15.3042 H         1 RES1    0.0000
     60 H17A       6.7671    2.3879   15.7117 H         1 RES1    0.0000
@<TRIPOS>BOND
     1    1    2 ar
     2    2    3 ar
     3    3    4 ar
     4    4    5 ar
     5    5    6 ar
     6    6    1 ar
     7    7    5 ar
     8    8    1 1
     9    9    8 1
    10   10    9 1
    11   11    4 1
    12   12   11 1
    13   13   12 1
    14   14    2 1
    15   15    3 1
    16   16    7 1
    17   17    8 1
    18   18    8 1
    19   19    9 1
    20   20    9 1
    21   21   10 1
    22   22   10 1
    23   23   10 1
    24   24   11 1
    25   25   11 1
    26   26   12 1
    27   27   12 1
    28   28   13 1
    29   29   13 1
    30   30   13 1
    31   31   32 ar
    32   32   33 ar
    33   33   34 ar
    34   34   35 ar
    35   35   36 ar
    36   36    7 ar
    37   37    6 ar
    38   38   31 1
    39   39   38 1
    40   40   39 1
    41   41   34 1
    42   42   41 1
    43   43   42 1
    44   44   32 1
    45   45   33 1
    46   46   37 1
    47   47   38 1
    48   48   38 1
    49   49   39 1
    50   50   39 1
    51   51   40 1
    52   52   40 1
    53   53   40 1
    54   54   41 1
    55   55   41 1
    56   56   42 1
    57   57   42 1
    58   58   43 1
    59   59   43 1
    60   60   43 1
    61   31   36 ar
    62   35   37 ar
@<TRIPOS>SUBSTRUCTURE
     1 RES1 1

@<TRIPOS>CRYSIN
   6.5551    7.9150   10.9768 108.0100  72.2900 102.0500   2 1

