# MOL2 file generated by ConQuest
# Please check atom types

@<TRIPOS>MOLECULE
XOCLUX
    42    44     1
SMALL
NO_CHARGES
****
Generated from CSD

@<TRIPOS>ATOM
      1 C1        -0.3276    0.9000    5.0247 C.ar      1 RES1    0.0000
      2 C2        -1.4667    1.6393    4.9443 C.ar      1 RES1    0.0000
      3 C3        -1.6518    2.6424    3.9438 C.ar      1 RES1    0.0000
      4 C4        -0.6891    2.9471    3.0382 C.ar      1 RES1    0.0000
      5 C5         0.5578    2.2180    3.0966 C.ar      1 RES1    0.0000
      6 C6         1.6147    2.4974    2.2238 C.ar      1 RES1    0.0000
      7 C7         2.8099    1.7709    2.2385 C.ar      1 RES1    0.0000
      8 C8         3.9043    2.0777    1.3767 C.ar      1 RES1    0.0000
      9 C9         5.0485    1.3497    1.4132 C.ar      1 RES1    0.0000
     10 C10        5.1735    0.2617    2.3097 C.ar      1 RES1    0.0000
     11 C11        4.1573   -0.0677    3.1441 C.ar      1 RES1    0.0000
     12 C12        2.9421    0.6883    3.1532 C.ar      1 RES1    0.0000
     13 C13        1.9035    0.4191    4.0497 C.ar      1 RES1    0.0000
     14 C14        0.7259    1.1659    4.0698 C.ar      1 RES1    0.0000
     15 C15       -0.1099   -0.1650    6.0818 C.3       1 RES1    0.0000
     16 C16       -1.2609   -0.4513    7.0239 C.3       1 RES1    0.0000
     17 C17       -0.8805   -1.5061    8.0537 C.3       1 RES1    0.0000
     18 C18       -0.8677    4.0045    1.9664 C.3       1 RES1    0.0000
     19 C19       -2.2026    4.7223    1.9281 C.3       1 RES1    0.0000
     20 C20       -2.2224    5.7899    0.8399 C.3       1 RES1    0.0000
     21 H1        -2.1546    1.4846    5.5651 H         1 RES1    0.0000
     22 H2        -2.4683    3.1072    3.9127 H         1 RES1    0.0000
     23 H3         1.5189    3.1985    1.6049 H         1 RES1    0.0000
     24 H4         3.8310    2.7950    0.7741 H         1 RES1    0.0000
     25 H5         5.7609    1.5689    0.8417 H         1 RES1    0.0000
     26 H6         5.9691   -0.2380    2.3261 H         1 RES1    0.0000
     27 H7         4.2508   -0.8017    3.7247 H         1 RES1    0.0000
     28 H8         2.0019   -0.2896    4.6595 H         1 RES1    0.0000
     29 H9         0.1222   -1.0010    5.6254 H         1 RES1    0.0000
     30 H10        0.6651    0.0973    6.6204 H         1 RES1    0.0000
     31 H11       -2.0329   -0.7635    6.5091 H         1 RES1    0.0000
     32 H12       -1.5174    0.3750    7.4840 H         1 RES1    0.0000
     33 H13       -0.6098   -2.3190    7.5991 H         1 RES1    0.0000
     34 H14       -1.6452   -1.6930    8.6234 H         1 RES1    0.0000
     35 H15       -0.1482   -1.1788    8.5978 H         1 RES1    0.0000
     36 H16       -0.1630    4.6767    2.0814 H         1 RES1    0.0000
     37 H17       -0.7238    3.5806    1.0937 H         1 RES1    0.0000
     38 H18       -2.3714    5.1409    2.7972 H         1 RES1    0.0000
     39 H19       -2.9167    4.0727    1.7601 H         1 RES1    0.0000
     40 H20       -3.0627    6.2714    0.8727 H         1 RES1    0.0000
     41 H21       -2.1244    5.3682   -0.0292 H         1 RES1    0.0000
     42 H22       -1.4884    6.4095    0.9805 H         1 RES1    0.0000
@<TRIPOS>BOND
     1    1    2 ar
     2    2    3 ar
     3    3    4 ar
     4    4    5 ar
     5    5    6 ar
     6    6    7 ar
     7    7    8 ar
     8    8    9 ar
     9    9   10 ar
    10   10   11 ar
    11   11   12 ar
    12   12    7 ar
    13   13   12 ar
    14   14    1 ar
    15   15    1 1
    16   16   15 1
    17   17   16 1
    18   18    4 1
    19   19   18 1
    20   20   19 1
    21   21    2 1
    22   22    3 1
    23   23    6 1
    24   24    8 1
    25   25    9 1
    26   26   10 1
    27   27   11 1
    28   28   13 1
    29   29   15 1
    30   30   15 1
    31   31   16 1
    32   32   16 1
    33   33   17 1
    34   34   17 1
    35   35   17 1
    36   36   18 1
    37   37   18 1
    38   38   19 1
    39   39   19 1
    40   40   20 1
    41   41   20 1
    42   42   20 1
    43    5   14 ar
    44   13   14 ar
@<TRIPOS>SUBSTRUCTURE
     1 RES1 1

@<TRIPOS>CRYSIN
  15.3700    5.3730   23.1700  90.0000 128.0000  90.0000  14 1

