# MOL2 file generated by ConQuest
# Please check atom types

@<TRIPOS>MOLECULE
XOCMAE
    44    48     1
SMALL
NO_CHARGES
****
Generated from CSD

@<TRIPOS>ATOM
      1 C1         6.8843   -2.2575    4.5219 C.ar      1 RES1    0.0000
      2 C2         6.2023   -1.0839    4.3551 C.ar      1 RES1    0.0000
      3 C3         6.8764    0.1728    4.5727 C.ar      1 RES1    0.0000
      4 C4         6.2277    1.3965    4.4153 C.ar      1 RES1    0.0000
      5 C5         6.8759    2.6201    4.5847 C.ar      1 RES1    0.0000
      6 C6         6.2191    3.8695    4.4153 C.ar      1 RES1    0.0000
      7 C7         6.8821    5.0411    4.5803 C.ar      1 RES1    0.0000
      8 C8         6.2418   -3.5905    4.2034 C.3       1 RES1    0.0000
      9 C9         5.0342   -3.4449    3.2929 C.3       1 RES1    0.0000
     10 C10        4.0866   -2.4225    3.8767 C.3       1 RES1    0.0000
     11 C11        4.7485   -1.0531    3.9204 C.3       1 RES1    0.0000
     12 H1         5.2575    1.4309    4.1685 H         1 RES1    0.0000
     13 H2         5.2575    3.8948    4.1685 H         1 RES1    0.0000
     14 H3         6.4133    5.8891    4.4477 H         1 RES1    0.0000
     15 H4         6.9411   -4.1944    3.7498 H         1 RES1    0.0000
     16 H5         5.9341   -4.0446    5.0885 H         1 RES1    0.0000
     17 H6         4.6119   -4.3285    3.1534 H         1 RES1    0.0000
     18 H7         5.3167   -3.1256    2.3666 H         1 RES1    0.0000
     19 H8         3.8580   -2.7210    4.8220 H         1 RES1    0.0000
     20 H9         3.2409   -2.3699    3.3437 H         1 RES1    0.0000
     21 H10        4.2261   -0.4337    4.5746 H         1 RES1    0.0000
     22 H11        4.6896   -0.6417    3.0201 H         1 RES1    0.0000
     23 C1B        8.2545   -2.2575    4.9952 C.ar      1 RES1    0.0000
     24 C2B        8.9366   -1.0839    5.1621 C.ar      1 RES1    0.0000
     25 C3B        8.2625    0.1728    4.9445 C.ar      1 RES1    0.0000
     26 C4B        8.9112    1.3965    5.1018 C.ar      1 RES1    0.0000
     27 C5B        8.2630    2.6201    4.9324 C.ar      1 RES1    0.0000
     28 C6B        8.9198    3.8695    5.1018 C.ar      1 RES1    0.0000
     29 C7B        8.2568    5.0411    4.9369 C.ar      1 RES1    0.0000
     30 C8B        8.8971   -3.5905    5.3138 C.3       1 RES1    0.0000
     31 C9B       10.1047   -3.4449    6.2242 C.3       1 RES1    0.0000
     32 C10B      11.0523   -2.4225    5.6405 C.3       1 RES1    0.0000
     33 C11B      10.3904   -1.0531    5.5967 C.3       1 RES1    0.0000
     34 H1B        9.8814    1.4309    5.3486 H         1 RES1    0.0000
     35 H2B        9.8814    3.8948    5.3486 H         1 RES1    0.0000
     36 H3B        8.7256    5.8891    5.0695 H         1 RES1    0.0000
     37 H4B        8.1978   -4.1944    5.7674 H         1 RES1    0.0000
     38 H5B        9.2047   -4.0446    4.4287 H         1 RES1    0.0000
     39 H6B       10.5270   -4.3285    6.3638 H         1 RES1    0.0000
     40 H7B        9.8222   -3.1256    7.1506 H         1 RES1    0.0000
     41 H8B       11.2809   -2.7210    4.6951 H         1 RES1    0.0000
     42 H9B       11.8979   -2.3699    6.1735 H         1 RES1    0.0000
     43 H10B      10.9127   -0.4337    4.9426 H         1 RES1    0.0000
     44 H11B      10.4493   -0.6417    6.4971 H         1 RES1    0.0000
@<TRIPOS>BOND
     1    1    2 ar
     2    2    3 ar
     3    3    4 ar
     4    4    5 ar
     5    5    6 ar
     6    6    7 ar
     7    7   14 1
     8    8    1 1
     9    9    8 1
    10   10    9 1
    11   11    2 1
    12   12    4 1
    13   13    6 1
    14   15    8 1
    15   16    8 1
    16   17    9 1
    17   18    9 1
    18   19   10 1
    19   20   10 1
    20   21   11 1
    21   22   11 1
    22   23    1 ar
    23   24   23 ar
    24   25    3 ar
    25   26   25 ar
    26   27    5 ar
    27   28   27 ar
    28   29    7 ar
    29   30   23 1
    30   31   30 1
    31   32   31 1
    32   33   24 1
    33   34   26 1
    34   35   28 1
    35   36   29 1
    36   37   30 1
    37   38   30 1
    38   39   31 1
    39   40   31 1
    40   41   32 1
    41   42   32 1
    42   43   33 1
    43   44   33 1
    44   10   11 1
    45   24   25 ar
    46   26   27 ar
    47   28   29 ar
    48   32   33 1
@<TRIPOS>SUBSTRUCTURE
     1 RES1 1

@<TRIPOS>CRYSIN
  10.7290   22.3580    7.6160  90.0000 123.5830  90.0000  15 1

