# MOL2 file generated by ConQuest
# Please check atom types

@<TRIPOS>MOLECULE
XOKDOQ
    90    98     1
SMALL
NO_CHARGES
****
Generated from CSD

@<TRIPOS>ATOM
      1 C1         1.5982   -0.5586   -4.0958 C.ar      1 RES1    0.0000
      2 C2         0.6934    0.5336   -4.0342 C.ar      1 RES1    0.0000
      3 C3        -0.3775    0.4454   -3.1564 C.ar      1 RES1    0.0000
      4 C4        -1.5686    1.3216   -3.0080 C.ar      1 RES1    0.0000
      5 C5        -2.0638    2.4159   -3.7211 C.ar      1 RES1    0.0000
      6 C6        -3.2056    3.0388   -3.3139 C.ar      1 RES1    0.0000
      7 C7        -3.9077    2.6028   -2.2171 C.ar      1 RES1    0.0000
      8 C8        -3.4758    1.5023   -1.5040 C.ar      1 RES1    0.0000
      9 C9        -2.3134    0.8607   -1.9239 C.ar      1 RES1    0.0000
     10 C10       -1.6934   -0.3872   -1.3520 C.3       1 RES1    0.0000
     11 C11       -0.4789   -0.6489   -2.2352 C.ar      1 RES1    0.0000
     12 C12        0.3125   -1.7732   -2.3348 C.ar      1 RES1    0.0000
     13 C13        1.2678   -1.7618   -3.4171 C.ar      1 RES1    0.0000
     14 C14        1.8177   -2.9703   -3.9673 C.ar      1 RES1    0.0000
     15 C15        0.7563    1.6082   -5.0731 C.ar      1 RES1    0.0000
     16 C16        0.7205    1.2718   -6.4179 C.ar      1 RES1    0.0000
     17 C17        0.6859    2.2467   -7.3825 C.ar      1 RES1    0.0000
     18 C18        0.6864    3.5828   -7.0495 C.ar      1 RES1    0.0000
     19 C19        0.7055    3.9306   -5.7410 C.ar      1 RES1    0.0000
     20 C20        0.7442    2.9672   -4.7437 C.ar      1 RES1    0.0000
     21 C21        0.1655   -3.0347   -1.4352 C.3       1 RES1    0.0000
     22 C22       -0.5108   -2.7357   -0.0833 C.3       1 RES1    0.0000
     23 C23       -0.7155   -4.0884   -2.1429 C.3       1 RES1    0.0000
     24 C24        1.5424   -3.5891   -1.0407 C.3       1 RES1    0.0000
     25 H1        -1.6132    2.7201   -4.4759 H         1 RES1    0.0000
     26 H2        -3.5143    3.7759   -3.7899 H         1 RES1    0.0000
     27 H3        -4.6790    3.0513   -1.9547 H         1 RES1    0.0000
     28 H4        -3.9483    1.1970   -0.7638 H         1 RES1    0.0000
     29 H5        -2.3166   -1.1306   -1.3900 H         1 RES1    0.0000
     30 H6        -1.4270   -0.2492   -0.4289 H         1 RES1    0.0000
     31 H7         1.6386   -3.7790   -3.5438 H         1 RES1    0.0000
     32 H8         0.7183    0.3758   -6.6694 H         1 RES1    0.0000
     33 H9         0.6611    2.0006   -8.2784 H         1 RES1    0.0000
     34 H10        0.6745    4.2348   -7.7119 H         1 RES1    0.0000
     35 H11        0.6913    4.8307   -5.5075 H         1 RES1    0.0000
     36 H12        0.7653    3.2267   -3.8514 H         1 RES1    0.0000
     37 H13       -1.4398   -2.5426   -0.2244 H         1 RES1    0.0000
     38 H14       -0.0854   -1.9798    0.3276 H         1 RES1    0.0000
     39 H15       -0.4259   -3.5008    0.4923 H         1 RES1    0.0000
     40 H16       -0.3312   -4.3054   -2.9954 H         1 RES1    0.0000
     41 H17       -1.5983   -3.7334   -2.2714 H         1 RES1    0.0000
     42 H18       -0.7630   -4.8806   -1.6036 H         1 RES1    0.0000
     43 H19        1.9999   -3.8984   -1.8244 H         1 RES1    0.0000
     44 H20        1.4299   -4.3189   -0.4271 H         1 RES1    0.0000
     45 H21        2.0574   -2.8955   -0.6208 H         1 RES1    0.0000
     46 C1A        2.8076   -0.5586   -4.9537 C.ar      1 RES1    0.0000
     47 C2A        3.7125    0.5336   -5.0152 C.ar      1 RES1    0.0000
     48 C3A        4.7834    0.4454   -5.8930 C.ar      1 RES1    0.0000
     49 C4A        5.9745    1.3216   -6.0414 C.ar      1 RES1    0.0000
     50 C5A        6.4697    2.4159   -5.3283 C.ar      1 RES1    0.0000
     51 C6A        7.6115    3.0388   -5.7355 C.ar      1 RES1    0.0000
     52 C7A        8.3136    2.6028   -6.8323 C.ar      1 RES1    0.0000
     53 C8A        7.8817    1.5023   -7.5454 C.ar      1 RES1    0.0000
     54 C9A        6.7193    0.8607   -7.1255 C.ar      1 RES1    0.0000
     55 C10A       6.0993   -0.3872   -7.6975 C.3       1 RES1    0.0000
     56 C11A       4.8848   -0.6489   -6.8142 C.ar      1 RES1    0.0000
     57 C12A       4.0934   -1.7732   -6.7147 C.ar      1 RES1    0.0000
     58 C13A       3.1381   -1.7618   -5.6324 C.ar      1 RES1    0.0000
     59 C14A       2.5882   -2.9703   -5.0822 C.ar      1 RES1    0.0000
     60 H7A        2.7673   -3.7790   -5.5057 H         1 RES1    0.0000
     61 C21A       4.2404   -3.0347   -7.6142 C.3       1 RES1    0.0000
     62 C22A       4.9167   -2.7357   -8.9662 C.3       1 RES1    0.0000
     63 H13A       5.8457   -2.5426   -8.8250 H         1 RES1    0.0000
     64 H14A       4.4913   -1.9798   -9.3770 H         1 RES1    0.0000
     65 H15A       4.8318   -3.5008   -9.5417 H         1 RES1    0.0000
     66 C23A       5.1214   -4.0884   -6.9065 C.3       1 RES1    0.0000
     67 H16A       4.7371   -4.3054   -6.0541 H         1 RES1    0.0000
     68 H17A       6.0042   -3.7334   -6.7780 H         1 RES1    0.0000
     69 H18A       5.1689   -4.8806   -7.4459 H         1 RES1    0.0000
     70 C24A       2.8635   -3.5891   -8.0088 C.3       1 RES1    0.0000
     71 H19A       2.4060   -3.8984   -7.2251 H         1 RES1    0.0000
     72 H20A       2.9760   -4.3189   -8.6223 H         1 RES1    0.0000
     73 H21A       2.3485   -2.8955   -8.4286 H         1 RES1    0.0000
     74 H5A        6.7225   -1.1306   -7.6594 H         1 RES1    0.0000
     75 H6A        5.8329   -0.2492   -8.6205 H         1 RES1    0.0000
     76 H4A        8.3542    1.1970   -8.2857 H         1 RES1    0.0000
     77 H3A        9.0849    3.0513   -7.0948 H         1 RES1    0.0000
     78 H2A        7.9202    3.7759   -5.2595 H         1 RES1    0.0000
     79 H1A        6.0191    2.7201   -4.5736 H         1 RES1    0.0000
     80 C15A       3.6496    1.6082   -3.9763 C.ar      1 RES1    0.0000
     81 C16A       3.6853    1.2718   -2.6316 C.ar      1 RES1    0.0000
     82 C17A       3.7200    2.2467   -1.6669 C.ar      1 RES1    0.0000
     83 C18A       3.7194    3.5828   -1.9999 C.ar      1 RES1    0.0000
     84 C19A       3.7004    3.9306   -3.3085 C.ar      1 RES1    0.0000
     85 C20A       3.6617    2.9672   -4.3057 C.ar      1 RES1    0.0000
     86 H12A       3.6406    3.2267   -5.1980 H         1 RES1    0.0000
     87 H11A       3.7146    4.8307   -3.5420 H         1 RES1    0.0000
     88 H10A       3.7313    4.2348   -1.3375 H         1 RES1    0.0000
     89 H9A        3.7447    2.0006   -0.7710 H         1 RES1    0.0000
     90 H8A        3.6876    0.3758   -2.3800 H         1 RES1    0.0000
@<TRIPOS>BOND
     1    1    2 ar
     2    2    3 ar
     3    3    4 1
     4    4    5 ar
     5    5    6 ar
     6    6    7 ar
     7    7    8 ar
     8    8    9 ar
     9    9    4 ar
    10   10    9 1
    11   11    3 ar
    12   12   11 ar
    13   13    1 ar
    14   14   13 ar
    15   15    2 1
    16   16   15 ar
    17   17   16 ar
    18   18   17 ar
    19   19   18 ar
    20   20   15 ar
    21   21   12 1
    22   22   21 1
    23   23   21 1
    24   24   21 1
    25   25    5 1
    26   26    6 1
    27   27    7 1
    28   28    8 1
    29   29   10 1
    30   30   10 1
    31   31   14 1
    32   32   16 1
    33   33   17 1
    34   34   18 1
    35   35   19 1
    36   36   20 1
    37   37   22 1
    38   38   22 1
    39   39   22 1
    40   40   23 1
    41   41   23 1
    42   42   23 1
    43   43   24 1
    44   44   24 1
    45   45   24 1
    46   46    1 ar
    47   47   46 ar
    48   48   47 ar
    49   49   48 1
    50   50   49 ar
    51   51   50 ar
    52   52   51 ar
    53   53   52 ar
    54   54   49 ar
    55   55   54 1
    56   56   48 ar
    57   57   56 ar
    58   58   46 ar
    59   59   14 ar
    60   60   59 1
    61   61   57 1
    62   62   61 1
    63   63   62 1
    64   64   62 1
    65   65   62 1
    66   66   61 1
    67   67   66 1
    68   68   66 1
    69   69   66 1
    70   70   61 1
    71   71   70 1
    72   72   70 1
    73   73   70 1
    74   74   55 1
    75   75   55 1
    76   76   53 1
    77   77   52 1
    78   78   51 1
    79   79   50 1
    80   80   47 1
    81   81   80 ar
    82   82   81 ar
    83   83   82 ar
    84   84   83 ar
    85   85   80 ar
    86   86   85 1
    87   87   84 1
    88   88   83 1
    89   89   82 1
    90   90   81 1
    91   10   11 1
    92   12   13 ar
    93   19   20 ar
    94   53   54 ar
    95   55   56 1
    96   57   58 ar
    97   58   59 ar
    98   84   85 ar
@<TRIPOS>SUBSTRUCTURE
     1 RES1 1

@<TRIPOS>CRYSIN
  18.0760   10.3820   20.1300  90.0000 115.9600  90.0000  15 1

