# MOL2 file generated by ConQuest
# Please check atom types

@<TRIPOS>MOLECULE
XOXTUB
    55    59     1
SMALL
NO_CHARGES
****
Generated from CSD

@<TRIPOS>ATOM
      1 C1         9.9704    4.7703    1.9715 C.ar      1 RES1    0.0000
      2 H1        10.2385    5.4474    2.5805 H         1 RES1    0.0000
      3 C2        10.9187    3.8684    1.4959 C.ar      1 RES1    0.0000
      4 C3        10.5343    2.8406    0.5804 C.ar      1 RES1    0.0000
      5 H2        11.1829    2.2306    0.2501 H         1 RES1    0.0000
      6 C4         9.2233    2.7373    0.1799 C.ar      1 RES1    0.0000
      7 C5         8.4444    1.7778   -0.7285 C.3       1 RES1    0.0000
      8 H3         8.7864    1.8067   -1.6573 H         1 RES1    0.0000
      9 H4         8.4930    0.8479   -0.3932 H         1 RES1    0.0000
     10 C6         7.0143    2.3209   -0.6484 C.ar      1 RES1    0.0000
     11 C7         5.8034    1.9297   -1.1814 C.ar      1 RES1    0.0000
     12 H5         5.7527    1.1755   -1.7568 H         1 RES1    0.0000
     13 C8         4.6298    2.6691   -0.8601 C.ar      1 RES1    0.0000
     14 C9         4.6987    3.7867   -0.0272 C.ar      1 RES1    0.0000
     15 H6         3.9058    4.2731    0.1692 H         1 RES1    0.0000
     16 C10        5.9248    4.2066    0.5283 C.ar      1 RES1    0.0000
     17 C11        6.1801    5.3278    1.4480 C.ar      1 RES1    0.0000
     18 C12        5.1471    6.1985    1.8357 C.ar      1 RES1    0.0000
     19 H7         4.2720    6.0595    1.4943 H         1 RES1    0.0000
     20 C13        5.3734    7.2527    2.7017 C.ar      1 RES1    0.0000
     21 H8         4.6579    7.8233    2.9563 H         1 RES1    0.0000
     22 C14        6.6573    7.4731    3.1981 C.ar      1 RES1    0.0000
     23 H9         6.8184    8.1996    3.7874 H         1 RES1    0.0000
     24 C15        7.6926    6.6406    2.8366 C.ar      1 RES1    0.0000
     25 H10        8.5600    6.8026    3.1877 H         1 RES1    0.0000
     26 C16        7.4979    5.5582    1.9624 C.ar      1 RES1    0.0000
     27 C17        8.6241    4.7000    1.5686 C.ar      1 RES1    0.0000
     28 C18        8.3222    3.6826    0.6787 C.ar      1 RES1    0.0000
     29 C19        7.0244    3.4447    0.1829 C.ar      1 RES1    0.0000
     30 C20       12.3917    3.9562    1.9187 C.3       1 RES1    0.0000
     31 C21       12.8779    2.5980    2.4297 C.3       1 RES1    0.0000
     32 H11       12.3198    2.3140    3.1839 H         1 RES1    0.0000
     33 H12       13.8101    2.6737    2.7236 H         1 RES1    0.0000
     34 H13       12.8152    1.9365    1.7096 H         1 RES1    0.0000
     35 C22       12.6335    4.9903    3.0222 C.3       1 RES1    0.0000
     36 H14       12.3749    5.8785    2.6999 H         1 RES1    0.0000
     37 H15       13.5836    4.9936    3.2636 H         1 RES1    0.0000
     38 H16       12.0966    4.7602    3.8085 H         1 RES1    0.0000
     39 C23       13.2184    4.3787    0.6968 C.3       1 RES1    0.0000
     40 H17       13.1361    3.6991   -0.0037 H         1 RES1    0.0000
     41 H18       14.1598    4.4696    0.9543 H         1 RES1    0.0000
     42 H19       12.8881    5.2378    0.3596 H         1 RES1    0.0000
     43 C24        3.2922    2.2144   -1.4646 C.3       1 RES1    0.0000
     44 C25        3.0885    0.7135   -1.2044 C.3       1 RES1    0.0000
     45 H20        3.1095    0.5431   -0.2389 H         1 RES1    0.0000
     46 H21        3.8051    0.2060   -1.6411 H         1 RES1    0.0000
     47 H22        2.2229    0.4335   -1.5677 H         1 RES1    0.0000
     48 C26        3.3212    2.4735   -2.9784 C.3       1 RES1    0.0000
     49 H23        2.5066    2.1127   -3.3880 H         1 RES1    0.0000
     50 H24        4.1058    2.0353   -3.3693 H         1 RES1    0.0000
     51 H25        3.3695    3.4382   -3.1441 H         1 RES1    0.0000
     52 C27        2.0942    2.9526   -0.8644 C.3       1 RES1    0.0000
     53 H26        2.0849    2.8249    0.1070 H         1 RES1    0.0000
     54 H27        1.2662    2.5962   -1.2479 H         1 RES1    0.0000
     55 H28        2.1640    3.9087   -1.0675 H         1 RES1    0.0000
@<TRIPOS>BOND
     1    1    2 1
     2    3    1 ar
     3    4    3 ar
     4    5    4 1
     5    6    4 ar
     6    7    6 1
     7    8    7 1
     8    9    7 1
     9   10    7 1
    10   11   10 ar
    11   12   11 1
    12   13   11 ar
    13   14   13 ar
    14   15   14 1
    15   16   14 ar
    16   17   16 ar
    17   18   17 ar
    18   19   18 1
    19   20   18 ar
    20   21   20 1
    21   22   20 ar
    22   23   22 1
    23   24   22 ar
    24   25   24 1
    25   26   17 ar
    26   27    1 ar
    27   28    6 ar
    28   29   10 ar
    29   30    3 1
    30   31   30 1
    31   32   31 1
    32   33   31 1
    33   34   31 1
    34   35   30 1
    35   36   35 1
    36   37   35 1
    37   38   35 1
    38   39   30 1
    39   40   39 1
    40   41   39 1
    41   42   39 1
    42   43   13 1
    43   44   43 1
    44   45   44 1
    45   46   44 1
    46   47   44 1
    47   48   43 1
    48   49   48 1
    49   50   48 1
    50   51   48 1
    51   52   43 1
    52   53   52 1
    53   54   52 1
    54   55   52 1
    55   16   29 ar
    56   24   26 ar
    57   26   27 ar
    58   27   28 ar
    59   28   29 ar
@<TRIPOS>SUBSTRUCTURE
     1 RES1 1

@<TRIPOS>CRYSIN
  14.1125   11.9094   12.4655  90.0000  93.5080  90.0000  14 1

