# MOL2 file generated by ConQuest
# Please check atom types

@<TRIPOS>MOLECULE
XOXTIP
    62    70     2
SMALL
NO_CHARGES
****
Generated from CSD

@<TRIPOS>ATOM
      1 C1         6.0874    4.7543    2.1743 C.ar      1 RES1    0.0000
      2 H1         6.7290    5.2925    1.7270 H         1 RES1    0.0000
      3 C2         6.5024    3.7390    3.0266 C.ar      1 RES1    0.0000
      4 H2         7.4340    3.5992    3.1450 H         1 RES1    0.0000
      5 C3         5.6052    2.9060    3.7251 C.ar      1 RES1    0.0000
      6 H3         5.9211    2.2180    4.2977 H         1 RES1    0.0000
      7 C4         4.2519    3.1212    3.5499 C.ar      1 RES1    0.0000
      8 C5         2.9824    2.4840    4.1167 C.3       1 RES1    0.0000
      9 H4         2.9206    1.5289    3.8634 H         1 RES1    0.0000
     10 H5         2.9548    2.5594    5.1038 H         1 RES1    0.0000
     11 C6         1.8638    3.2966    3.4743 C.ar      1 RES1    0.0000
     12 C7         0.4865    3.2641    3.5392 C.ar      1 RES1    0.0000
     13 H6         0.0388    2.6358    4.0931 H         1 RES1    0.0000
     14 C8        -0.2355    4.1867    2.7626 C.ar      1 RES1    0.0000
     15 H7        -1.1844    4.1673    2.8025 H         1 RES1    0.0000
     16 C9         0.3789    5.1292    1.9375 C.ar      1 RES1    0.0000
     17 H8        -0.1499    5.7339    1.4305 H         1 RES1    0.0000
     18 C10        1.7829    5.1810    1.8590 C.ar      1 RES1    0.0000
     19 C11        2.6274    6.0889    1.0680 C.ar      1 RES1    0.0000
     20 C12        2.0556    7.0895    0.2608 C.ar      1 RES1    0.0000
     21 H9         1.1094    7.1587    0.2109 H         1 RES1    0.0000
     22 C13        2.8308    7.9702   -0.4590 C.ar      1 RES1    0.0000
     23 H10        2.4182    8.6404   -0.9919 H         1 RES1    0.0000
     24 C14        4.2197    7.8781   -0.4037 C.ar      1 RES1    0.0000
     25 H11        4.7557    8.4865   -0.8980 H         1 RES1    0.0000
     26 C15        4.8170    6.9042    0.3682 C.ar      1 RES1    0.0000
     27 H12        5.7646    6.8471    0.3884 H         1 RES1    0.0000
     28 C16        4.0598    5.9931    1.1256 C.ar      1 RES1    0.0000
     29 C17        4.7099    4.9847    1.9757 C.ar      1 RES1    0.0000
     30 C18        3.8645    4.1501    2.6883 C.ar      1 RES1    0.0000
     31 C19        2.4499    4.2506    2.6394 C.ar      1 RES1    0.0000
     32 C20       10.2639    5.0721    2.1674 C.ar      2 RES2    0.0000
     33 H13       10.4025    5.1821    1.2342 H         2 RES2    0.0000
     34 C21        9.3946    5.9156    2.8407 C.ar      2 RES2    0.0000
     35 H14        8.9636    6.6073    2.3535 H         2 RES2    0.0000
     36 C22        9.1250    5.7889    4.2202 C.ar      2 RES2    0.0000
     37 H15        8.5224    6.3795    4.6548 H         2 RES2    0.0000
     38 C23        9.7621    4.7836    4.9209 C.ar      2 RES2    0.0000
     39 C24        9.7626    4.3176    6.3816 C.3       2 RES2    0.0000
     40 H16       10.0260    5.0533    6.9895 H         2 RES2    0.0000
     41 H17        8.8693    3.9815    6.6491 H         2 RES2    0.0000
     42 C25       10.8008    3.1950    6.3942 C.ar      2 RES2    0.0000
     43 C26       11.3125    2.3546    7.3606 C.ar      2 RES2    0.0000
     44 H18       11.0188    2.4122    8.2613 H         2 RES2    0.0000
     45 C27       12.2841    1.4080    6.9762 C.ar      2 RES2    0.0000
     46 H19       12.6454    0.8330    7.6390 H         2 RES2    0.0000
     47 C28       12.7349    1.2807    5.6699 C.ar      2 RES2    0.0000
     48 H20       13.3862    0.6231    5.4546 H         2 RES2    0.0000
     49 C29       12.2265    2.1269    4.6636 C.ar      2 RES2    0.0000
     50 C30       12.5531    2.1483    3.2296 C.ar      2 RES2    0.0000
     51 C31       13.4731    1.2336    2.6958 C.ar      2 RES2    0.0000
     52 H21       13.9111    0.6231    3.2765 H         2 RES2    0.0000
     53 C32       13.7594    1.2006    1.3449 C.ar      2 RES2    0.0000
     54 H22       14.3802    0.5671    1.0045 H         2 RES2    0.0000
     55 C33       13.1335    2.0986    0.4807 C.ar      2 RES2    0.0000
     56 H23       13.3228    2.0724   -0.4490 H         2 RES2    0.0000
     57 C34       12.2389    3.0259    0.9767 C.ar      2 RES2    0.0000
     58 H24       11.8287    3.6401    0.3801 H         2 RES2    0.0000
     59 C35       11.9205    3.0824    2.3475 C.ar      2 RES2    0.0000
     60 C36       10.9428    4.0537    2.8612 C.ar      2 RES2    0.0000
     61 C37       10.6558    3.9746    4.2146 C.ar      2 RES2    0.0000
     62 C38       11.2811    3.0463    5.0873 C.ar      2 RES2    0.0000
@<TRIPOS>BOND
     1    1    2 1
     2    3    1 ar
     3    4    3 1
     4    5    3 ar
     5    6    5 1
     6    7    5 ar
     7    8    7 1
     8    9    8 1
     9   10    8 1
    10   11    8 1
    11   12   11 ar
    12   13   12 1
    13   14   12 ar
    14   15   14 1
    15   16   14 ar
    16   17   16 1
    17   18   16 ar
    18   19   18 ar
    19   20   19 ar
    20   21   20 1
    21   22   20 ar
    22   23   22 1
    23   24   22 ar
    24   25   24 1
    25   26   24 ar
    26   27   26 1
    27   28   19 ar
    28   29    1 ar
    29   30    7 ar
    30   31   11 ar
    31   32   33 1
    32   34   32 ar
    33   35   34 1
    34   36   34 ar
    35   37   36 1
    36   38   36 ar
    37   39   38 1
    38   40   39 1
    39   41   39 1
    40   42   39 1
    41   43   42 ar
    42   44   43 1
    43   45   43 ar
    44   46   45 1
    45   47   45 ar
    46   48   47 1
    47   49   47 ar
    48   50   49 ar
    49   51   50 ar
    50   52   51 1
    51   53   51 ar
    52   54   53 1
    53   55   53 ar
    54   56   55 1
    55   57   55 ar
    56   58   57 1
    57   59   50 ar
    58   60   32 ar
    59   61   38 ar
    60   62   42 ar
    61   18   31 ar
    62   26   28 ar
    63   28   29 ar
    64   29   30 ar
    65   30   31 ar
    66   49   62 ar
    67   57   59 ar
    68   59   60 ar
    69   60   61 ar
    70   61   62 ar
@<TRIPOS>SUBSTRUCTURE
     1 RES1 1
     2 RES2 32

@<TRIPOS>CRYSIN
  21.3643    5.2360   22.2066  90.0000 109.8820  90.0000 231 1

