# MOL2 file generated by ConQuest
# Please check atom types

@<TRIPOS>MOLECULE
YABBEL
    66    73     1
SMALL
NO_CHARGES
****
Generated from CSD

@<TRIPOS>ATOM
      1 C1         1.1228    9.7818    2.7265 C.ar      1 RES1    0.0000
      2 C2         1.5849    8.4632    2.3594 C.ar      1 RES1    0.0000
      3 C3         2.9903    8.2208    2.1757 C.ar      1 RES1    0.0000
      4 C4         3.4229    6.9404    1.7541 C.ar      1 RES1    0.0000
      5 C5         2.4738    5.9198    1.6097 C.ar      1 RES1    0.0000
      6 H1         2.7928    5.0098    1.3408 H         1 RES1    0.0000
      7 C6         1.1160    6.1050    1.8522 C.ar      1 RES1    0.0000
      8 C7         0.6437    7.4053    2.1826 C.ar      1 RES1    0.0000
      9 C8        -0.7584    7.6962    2.3097 C.ar      1 RES1    0.0000
     10 H2        -1.3737    6.9491    2.1720 H         1 RES1    0.0000
     11 C9        -1.1966    8.9592    2.5737 C.ar      1 RES1    0.0000
     12 H3        -2.1570    9.0873    2.6739 H         1 RES1    0.0000
     13 C10       -0.2872   10.0470    2.7792 C.ar      1 RES1    0.0000
     14 C11       -0.7300   11.3684    3.0497 C.ar      1 RES1    0.0000
     15 C12        0.2134   12.3493    3.3665 C.ar      1 RES1    0.0000
     16 H4        -0.1362   13.2393    3.5607 H         1 RES1    0.0000
     17 C13        1.5860   12.0979    3.3938 C.ar      1 RES1    0.0000
     18 C14        2.0583   10.8115    3.0186 C.ar      1 RES1    0.0000
     19 C15        3.4615   10.5181    2.8700 C.ar      1 RES1    0.0000
     20 H5         4.0643   11.2752    3.0435 H         1 RES1    0.0000
     21 C16        3.9008    9.3061    2.4521 C.ar      1 RES1    0.0000
     22 H6         4.9044    9.1246    2.3502 H         1 RES1    0.0000
     23 C17        4.8590    6.6047    1.4974 C.ar      1 RES1    0.0000
     24 C18        5.6662    7.3469    0.6146 C.ar      1 RES1    0.0000
     25 H7         5.2677    8.1798    0.1762 H         1 RES1    0.0000
     26 C19        6.9831    6.9466    0.3591 C.ar      1 RES1    0.0000
     27 H8         7.5156    7.6204   -0.0958 H         1 RES1    0.0000
     28 C20        7.5031    5.8079    0.9535 C.ar      1 RES1    0.0000
     29 H9         8.4238    5.5692    0.6359 H         1 RES1    0.0000
     30 C21        6.7333    5.0894    1.8271 C.ar      1 RES1    0.0000
     31 H10        7.1069    4.2142    2.2410 H         1 RES1    0.0000
     32 C22        5.4232    5.4760    2.1142 C.ar      1 RES1    0.0000
     33 H11        4.7795    4.9850    2.7964 H         1 RES1    0.0000
     34 C23        0.1851    4.9278    1.7872 C.ar      1 RES1    0.0000
     35 C24       -0.5858    4.5697    2.9024 C.ar      1 RES1    0.0000
     36 H12       -0.5222    5.0471    3.7311 H         1 RES1    0.0000
     37 C25       -1.4418    3.4833    2.8671 C.ar      1 RES1    0.0000
     38 H13       -1.9640    3.2943    3.6813 H         1 RES1    0.0000
     39 C26       -1.5587    2.7274    1.7056 C.ar      1 RES1    0.0000
     40 H14       -2.2024    1.9144    1.7047 H         1 RES1    0.0000
     41 C27       -0.7879    3.0593    0.5995 C.ar      1 RES1    0.0000
     42 H15       -0.8969    2.5608   -0.2337 H         1 RES1    0.0000
     43 C28        0.0886    4.1471    0.6401 C.ar      1 RES1    0.0000
     44 H16        0.7039    4.3261   -0.1322 H         1 RES1    0.0000
     45 C29       -2.1707   11.7688    3.0192 C.ar      1 RES1    0.0000
     46 C30       -3.0005   11.4803    1.9198 C.ar      1 RES1    0.0000
     47 H17       -2.7133   10.9768    1.1588 H         1 RES1    0.0000
     48 C31       -4.3027   11.9626    1.8602 C.ar      1 RES1    0.0000
     49 H18       -4.8022   11.7600    1.0075 H         1 RES1    0.0000
     50 C32       -4.7966   12.7694    2.8853 C.ar      1 RES1    0.0000
     51 H19       -5.7105   13.1523    2.8596 H         1 RES1    0.0000
     52 C33       -3.9905   13.0603    3.9826 C.ar      1 RES1    0.0000
     53 H20       -4.3595   13.6869    4.7061 H         1 RES1    0.0000
     54 C34       -2.6883   12.5693    4.0500 C.ar      1 RES1    0.0000
     55 H21       -2.1684   12.7669    4.8037 H         1 RES1    0.0000
     56 C35        2.4795   13.1996    3.8520 C.ar      1 RES1    0.0000
     57 C36        2.2989   14.5036    3.3576 C.ar      1 RES1    0.0000
     58 H22        1.6121   14.6565    2.6432 H         1 RES1    0.0000
     59 C37        3.0471   15.5528    3.8627 C.ar      1 RES1    0.0000
     60 H23        2.8836   16.5212    3.5549 H         1 RES1    0.0000
     61 C38        4.0121   15.3278    4.8493 C.ar      1 RES1    0.0000
     62 H24        4.5638   15.9991    5.1792 H         1 RES1    0.0000
     63 C39        4.1869   14.0536    5.3567 C.ar      1 RES1    0.0000
     64 H25        4.7682   13.9976    6.0621 H         1 RES1    0.0000
     65 C40        3.4240   12.9957    4.8664 C.ar      1 RES1    0.0000
     66 H26        3.5421   12.0708    5.2385 H         1 RES1    0.0000
@<TRIPOS>BOND
     1    1    2 ar
     2    2    3 ar
     3    3    4 ar
     4    4    5 ar
     5    5    6 1
     6    7    5 ar
     7    8    2 ar
     8    9    8 ar
     9   10    9 1
    10   11    9 ar
    11   12   11 1
    12   13    1 ar
    13   14   13 ar
    14   15   14 ar
    15   16   15 1
    16   17   15 ar
    17   18    1 ar
    18   19   18 ar
    19   20   19 1
    20   21    3 ar
    21   22   21 1
    22   23    4 1
    23   24   23 ar
    24   25   24 1
    25   26   24 ar
    26   27   26 1
    27   28   26 ar
    28   29   28 1
    29   30   28 ar
    30   31   30 1
    31   32   23 ar
    32   33   32 1
    33   34    7 1
    34   35   34 ar
    35   36   35 1
    36   37   35 ar
    37   38   37 1
    38   39   37 ar
    39   40   39 1
    40   41   39 ar
    41   42   41 1
    42   43   34 ar
    43   44   43 1
    44   45   14 1
    45   46   45 ar
    46   47   46 1
    47   48   46 ar
    48   49   48 1
    49   50   48 ar
    50   51   50 1
    51   52   50 ar
    52   53   52 1
    53   54   45 ar
    54   55   54 1
    55   56   17 1
    56   57   56 ar
    57   58   57 1
    58   59   57 ar
    59   60   59 1
    60   61   59 ar
    61   62   61 1
    62   63   61 ar
    63   64   63 1
    64   65   56 ar
    65   66   65 1
    66    7    8 ar
    67   11   13 ar
    68   17   18 ar
    69   19   21 ar
    70   30   32 ar
    71   41   43 ar
    72   52   54 ar
    73   63   65 ar
@<TRIPOS>SUBSTRUCTURE
     1 RES1 1

@<TRIPOS>CRYSIN
  11.3528   12.4313   19.1537  90.0000  90.0000  90.0000  19 1

