# MOL2 file generated by ConQuest
# Please check atom types

@<TRIPOS>MOLECULE
YABBAH
    90    99     1
SMALL
NO_CHARGES
****
Generated from CSD

@<TRIPOS>ATOM
      1 C1        -0.1776    6.8856    6.1088 C.ar      1 RES1    0.0000
      2 C2        -0.1776    5.4494    6.1088 C.ar      1 RES1    0.0000
      3 C3         0.8220    4.7441    5.3694 C.ar      1 RES1    0.0000
      4 C4         0.7776    3.3308    5.3349 C.ar      1 RES1    0.0000
      5 C5        -0.1776    2.6706    6.1088 C.ar      1 RES1    0.0000
      6 H1        -0.1776    1.6358    6.1088 H         1 RES1    0.0000
      7 C6         1.8067    5.5022    4.6521 C.ar      1 RES1    0.0000
      8 H2         2.4815    5.0395    4.0888 H         1 RES1    0.0000
      9 C7         1.8316    6.8637    4.6970 C.ar      1 RES1    0.0000
     10 H3         2.4971    7.3552    4.1898 H         1 RES1    0.0000
     11 C8         0.8445    7.5971    5.4227 C.ar      1 RES1    0.0000
     12 C9         0.8478    9.0179    5.4582 C.ar      1 RES1    0.0000
     13 C10       -0.1776    9.7060    6.1088 C.ar      1 RES1    0.0000
     14 H4        -0.1776   10.7076    6.1088 H         1 RES1    0.0000
     15 C11        1.6547    2.4994    4.4628 C.ar      1 RES1    0.0000
     16 C12        1.0475    1.5917    3.5835 C.ar      1 RES1    0.0000
     17 H5         0.0672    1.5653    3.5317 H         1 RES1    0.0000
     18 C13        1.8182    0.7681    2.7584 C.ar      1 RES1    0.0000
     19 H6         1.3827    0.1733    2.1544 H         1 RES1    0.0000
     20 C14        3.2039    0.8382    2.8025 C.ar      1 RES1    0.0000
     21 H7         3.7408    0.2335    2.2000 H         1 RES1    0.0000
     22 C15        3.8209    1.7326    3.6746 C.ar      1 RES1    0.0000
     23 H8         4.8147    1.7753    3.7174 H         1 RES1    0.0000
     24 C16        3.0542    2.5553    4.4992 C.ar      1 RES1    0.0000
     25 H9         3.4987    3.1453    5.1127 H         1 RES1    0.0000
     26 C17        1.9176    9.7315    4.8435 C.1       1 RES1    0.0000
     27 C18        2.8707   10.2722    4.3305 C.1       1 RES1    0.0000
     28 C19        4.0289   10.8434    3.7212 C.ar      1 RES1    0.0000
     29 C20        4.3047   12.2147    3.8279 C.ar      1 RES1    0.0000
     30 H10        3.6422   12.8426    4.3177 H         1 RES1    0.0000
     31 C21        5.4425   12.7448    3.2304 C.ar      1 RES1    0.0000
     32 H11        5.6451   13.7354    3.3028 H         1 RES1    0.0000
     33 C22        6.3314   11.9385    2.5062 C.ar      1 RES1    0.0000
     34 C23        6.0525   10.5659    2.4096 C.ar      1 RES1    0.0000
     35 H12        6.6542    9.9792    1.8432 H         1 RES1    0.0000
     36 C24        4.9167   10.0265    3.0035 C.ar      1 RES1    0.0000
     37 H13        4.7219    9.0850    2.8728 H         1 RES1    0.0000
     38 C25        7.5164   12.5215    1.8355 C.ar      1 RES1    0.0000
     39 C26        7.4312   13.7632    1.1858 C.ar      1 RES1    0.0000
     40 H14        6.5532   14.2479    1.1761 H         1 RES1    0.0000
     41 C27        8.5359   14.3052    0.5356 C.ar      1 RES1    0.0000
     42 H15        8.4477   15.1363    0.0643 H         1 RES1    0.0000
     43 C28        9.7513   13.6238    0.5421 C.ar      1 RES1    0.0000
     44 H16       10.5325   14.0012    0.0578 H         1 RES1    0.0000
     45 C29        9.8586   12.4036    1.2054 C.ar      1 RES1    0.0000
     46 H17       10.7737   11.9425    1.2161 H         1 RES1    0.0000
     47 C30        8.7461   11.8515    1.8378 C.ar      1 RES1    0.0000
     48 H18        8.8396   10.9719    2.3083 H         1 RES1    0.0000
     49 C3A       -1.1771    4.7441    6.8482 C.ar      1 RES1    0.0000
     50 C4A       -1.1327    3.3308    6.8827 C.ar      1 RES1    0.0000
     51 C6A       -2.1618    5.5022    7.5655 C.ar      1 RES1    0.0000
     52 H2A       -2.8366    5.0395    8.1288 H         1 RES1    0.0000
     53 C7A       -2.1868    6.8637    7.5206 C.ar      1 RES1    0.0000
     54 H3A       -2.8522    7.3552    8.0278 H         1 RES1    0.0000
     55 C8A       -1.1997    7.5971    6.7949 C.ar      1 RES1    0.0000
     56 C9A       -1.2030    9.0179    6.7594 C.ar      1 RES1    0.0000
     57 C11A      -2.0098    2.4994    7.7548 C.ar      1 RES1    0.0000
     58 C12A      -1.4026    1.5917    8.6341 C.ar      1 RES1    0.0000
     59 H5A       -0.4223    1.5653    8.6859 H         1 RES1    0.0000
     60 C13A      -2.1733    0.7681    9.4592 C.ar      1 RES1    0.0000
     61 H6A       -1.7378    0.1733   10.0632 H         1 RES1    0.0000
     62 C14A      -3.5590    0.8382    9.4151 C.ar      1 RES1    0.0000
     63 H7A       -4.0960    0.2335   10.0176 H         1 RES1    0.0000
     64 C15A      -4.1760    1.7326    8.5429 C.ar      1 RES1    0.0000
     65 H8A       -5.1698    1.7753    8.5002 H         1 RES1    0.0000
     66 C16A      -3.4093    2.5553    7.7184 C.ar      1 RES1    0.0000
     67 H9A       -3.8538    3.1453    7.1049 H         1 RES1    0.0000
     68 C17A      -2.2727    9.7315    7.3740 C.1       1 RES1    0.0000
     69 C18A      -3.2258   10.2722    7.8871 C.1       1 RES1    0.0000
     70 C19A      -4.3841   10.8434    8.4964 C.ar      1 RES1    0.0000
     71 C20A      -4.6598   12.2147    8.3897 C.ar      1 RES1    0.0000
     72 H10A      -3.9974   12.8426    7.8999 H         1 RES1    0.0000
     73 C21A      -5.7976   12.7448    8.9872 C.ar      1 RES1    0.0000
     74 H11A      -6.0003   13.7354    8.9148 H         1 RES1    0.0000
     75 C22A      -6.6865   11.9385    9.7114 C.ar      1 RES1    0.0000
     76 C23A      -6.4077   10.5659    9.8080 C.ar      1 RES1    0.0000
     77 H12A      -7.0093    9.9792   10.3744 H         1 RES1    0.0000
     78 C24A      -5.2718   10.0265    9.2141 C.ar      1 RES1    0.0000
     79 H13A      -5.0770    9.0850    9.3448 H         1 RES1    0.0000
     80 C25A      -7.8715   12.5215   10.3821 C.ar      1 RES1    0.0000
     81 C26A      -7.7863   13.7632   11.0318 C.ar      1 RES1    0.0000
     82 H14A      -6.9083   14.2479   11.0414 H         1 RES1    0.0000
     83 C27A      -8.8911   14.3052   11.6820 C.ar      1 RES1    0.0000
     84 H15A      -8.8029   15.1363   12.1532 H         1 RES1    0.0000
     85 C28A     -10.1064   13.6238   11.6755 C.ar      1 RES1    0.0000
     86 H16A     -10.8877   14.0012   12.1598 H         1 RES1    0.0000
     87 C29A     -10.2138   12.4036   11.0122 C.ar      1 RES1    0.0000
     88 H17A     -11.1288   11.9425   11.0015 H         1 RES1    0.0000
     89 C30A      -9.1012   11.8515   10.3798 C.ar      1 RES1    0.0000
     90 H18A      -9.1947   10.9719    9.9093 H         1 RES1    0.0000
@<TRIPOS>BOND
     1    1    2 ar
     2    2    3 ar
     3    3    4 ar
     4    4    5 ar
     5    5    6 1
     6    7    3 ar
     7    8    7 1
     8    9    7 ar
     9   10    9 1
    10   11    1 ar
    11   12   11 ar
    12   13   12 ar
    13   14   13 1
    14   15    4 1
    15   16   15 ar
    16   17   16 1
    17   18   16 ar
    18   19   18 1
    19   20   18 ar
    20   21   20 1
    21   22   20 ar
    22   23   22 1
    23   24   15 ar
    24   25   24 1
    25   26   12 1
    26   27   26 3
    27   28   27 1
    28   29   28 ar
    29   30   29 1
    30   31   29 ar
    31   32   31 1
    32   33   31 ar
    33   34   33 ar
    34   35   34 1
    35   36   28 ar
    36   37   36 1
    37   38   33 1
    38   39   38 ar
    39   40   39 1
    40   41   39 ar
    41   42   41 1
    42   43   41 ar
    43   44   43 1
    44   45   43 ar
    45   46   45 1
    46   47   38 ar
    47   48   47 1
    48   49    2 ar
    49   50    5 ar
    50   51   49 ar
    51   52   51 1
    52   53   51 ar
    53   54   53 1
    54   55    1 ar
    55   56   13 ar
    56   57   50 1
    57   58   57 ar
    58   59   58 1
    59   60   58 ar
    60   61   60 1
    61   62   60 ar
    62   63   62 1
    63   64   62 ar
    64   65   64 1
    65   66   57 ar
    66   67   66 1
    67   68   56 1
    68   69   68 3
    69   70   69 1
    70   71   70 ar
    71   72   71 1
    72   73   71 ar
    73   74   73 1
    74   75   73 ar
    75   76   75 ar
    76   77   76 1
    77   78   70 ar
    78   79   78 1
    79   80   75 1
    80   81   80 ar
    81   82   81 1
    82   83   81 ar
    83   84   83 1
    84   85   83 ar
    85   86   85 1
    86   87   85 ar
    87   88   87 1
    88   89   80 ar
    89   90   89 1
    90    9   11 ar
    91   22   24 ar
    92   34   36 ar
    93   45   47 ar
    94   49   50 ar
    95   53   55 ar
    96   55   56 ar
    97   64   66 ar
    98   76   78 ar
    99   87   89 ar
@<TRIPOS>SUBSTRUCTURE
     1 RES1 1

@<TRIPOS>CRYSIN
  30.8830   14.6840    8.1485  90.0000  91.6650  90.0000  15 1

