# MOL2 file generated by ConQuest
# Please check atom types

@<TRIPOS>MOLECULE
YETMEQ
    60    62     2
SMALL
NO_CHARGES
****
Generated from CSD

@<TRIPOS>ATOM
      1 C1         6.1197    2.5459    1.4491 C.3       1 RES1    0.0000
      2 H1         5.7679    2.7071    2.3498 H         1 RES1    0.0000
      3 H2         6.1675    3.3940    0.9605 H         1 RES1    0.0000
      4 H3         7.0164    2.1551    1.5141 H         1 RES1    0.0000
      5 C2         5.2093    1.5957    0.7171 C.ar      1 RES1    0.0000
      6 C3         4.0893    1.0852    1.3290 C.ar      1 RES1    0.0000
      7 H4         3.8957    1.3419    2.2226 H         1 RES1    0.0000
      8 C4         3.2142    0.1869    0.6669 C.ar      1 RES1    0.0000
      9 C5         2.0577   -0.3552    1.2868 C.ar      1 RES1    0.0000
     10 H5         1.8614   -0.1143    2.1851 H         1 RES1    0.0000
     11 C6         5.5058    1.2178   -0.6285 C.ar      1 RES1    0.0000
     12 C7         6.7277    1.7698   -1.3086 C.3       1 RES1    0.0000
     13 H6         6.7590    1.4500   -2.2348 H         1 RES1    0.0000
     14 H7         6.6907    2.7490   -1.3021 H         1 RES1    0.0000
     15 H8         7.5301    1.4699   -0.8321 H         1 RES1    0.0000
     16 C8        10.5283    3.0739    4.8644 C.3       2 RES2    0.0000
     17 H9        10.2412    3.2631    3.9463 H         2 RES2    0.0000
     18 H10       11.4211    2.6706    4.8511 H         2 RES2    0.0000
     19 H11       10.5544    3.9085    5.3767 H         2 RES2    0.0000
     20 C9         9.5581    2.1216    5.5071 C.ar      2 RES2    0.0000
     21 C10        8.4638    1.6569    4.8141 C.ar      2 RES2    0.0000
     22 H12        8.3244    1.9520    3.9220 H         2 RES2    0.0000
     23 C11        7.5372    0.7504    5.3912 C.ar      2 RES2    0.0000
     24 C12        6.4059    0.2581    4.6892 C.ar      2 RES2    0.0000
     25 H13        6.2571    0.5477    3.7973 H         2 RES2    0.0000
     26 C13        9.7699    1.6879    6.8524 C.ar      2 RES2    0.0000
     27 C14       10.9486    2.2035    7.6334 C.3       2 RES2    0.0000
     28 H14       10.9122    1.8549    8.5490 H         2 RES2    0.0000
     29 H15       11.7788    1.9086    7.2045 H         2 RES2    0.0000
     30 H16       10.9224    3.1832    7.6563 H         2 RES2    0.0000
     31 C1A        0.5998   -2.5459   -1.4491 C.3       1 RES1    0.0000
     32 H1A        0.9516   -2.7071   -2.3498 H         1 RES1    0.0000
     33 H2A        0.5520   -3.3940   -0.9605 H         1 RES1    0.0000
     34 H3A       -0.2969   -2.1551   -1.5141 H         1 RES1    0.0000
     35 C2A        1.5102   -1.5957   -0.7171 C.ar      1 RES1    0.0000
     36 C3A        2.6302   -1.0852   -1.3290 C.ar      1 RES1    0.0000
     37 H4A        2.8238   -1.3419   -2.2226 H         1 RES1    0.0000
     38 C4A        3.5053   -0.1869   -0.6669 C.ar      1 RES1    0.0000
     39 C5A        4.6618    0.3552   -1.2868 C.ar      1 RES1    0.0000
     40 H5A        4.8581    0.1143   -2.1851 H         1 RES1    0.0000
     41 C6A        1.2137   -1.2178    0.6285 C.ar      1 RES1    0.0000
     42 C7A       -0.0082   -1.7698    1.3086 C.3       1 RES1    0.0000
     43 H6A       -0.0395   -1.4500    2.2348 H         1 RES1    0.0000
     44 H7A        0.0288   -2.7490    1.3021 H         1 RES1    0.0000
     45 H8A       -0.8106   -1.4699    0.8321 H         1 RES1    0.0000
     46 C8A        4.7605   -2.0103    7.2481 C.3       2 RES2    0.0000
     47 H9A        5.0475   -2.1996    8.1662 H         2 RES2    0.0000
     48 H10A       3.8676   -1.6071    7.2614 H         2 RES2    0.0000
     49 H11A       4.7343   -2.8450    6.7358 H         2 RES2    0.0000
     50 C9A        5.7306   -1.0581    6.6054 C.ar      2 RES2    0.0000
     51 C10A       6.8249   -0.5933    7.2984 C.ar      2 RES2    0.0000
     52 H12A       6.9643   -0.8884    8.1905 H         2 RES2    0.0000
     53 C11A       7.7515    0.3132    6.7213 C.ar      2 RES2    0.0000
     54 C12A       8.8829    0.8054    7.4233 C.ar      2 RES2    0.0000
     55 H13A       9.0316    0.5159    8.3152 H         2 RES2    0.0000
     56 C13A       5.5188   -0.6244    5.2601 C.ar      2 RES2    0.0000
     57 C14A       4.3402   -1.1400    4.4791 C.3       2 RES2    0.0000
     58 H14A       4.3765   -0.7914    3.5635 H         2 RES2    0.0000
     59 H15A       3.5100   -0.8451    4.9080 H         2 RES2    0.0000
     60 H16A       4.3664   -2.1196    4.4562 H         2 RES2    0.0000
@<TRIPOS>BOND
     1    1    2 1
     2    3    1 1
     3    4    1 1
     4    5    1 1
     5    6    5 ar
     6    7    6 1
     7    8    6 ar
     8    9    8 ar
     9   10    9 1
    10   11    5 ar
    11   12   11 1
    12   13   12 1
    13   14   12 1
    14   15   12 1
    15   16   17 1
    16   18   16 1
    17   19   16 1
    18   20   16 1
    19   21   20 ar
    20   22   21 1
    21   23   21 ar
    22   24   23 ar
    23   25   24 1
    24   26   20 ar
    25   27   26 1
    26   28   27 1
    27   29   27 1
    28   30   27 1
    29   31   32 1
    30   33   31 1
    31   34   31 1
    32   35   31 1
    33   36   35 ar
    34   37   36 1
    35   38    8 ar
    36   39   11 ar
    37   40   39 1
    38   41    9 ar
    39   42   41 1
    40   43   42 1
    41   44   42 1
    42   45   42 1
    43   46   47 1
    44   48   46 1
    45   49   46 1
    46   50   46 1
    47   51   50 ar
    48   52   51 1
    49   53   23 ar
    50   54   26 ar
    51   55   54 1
    52   56   24 ar
    53   57   56 1
    54   58   57 1
    55   59   57 1
    56   60   57 1
    57   35   41 ar
    58   36   38 ar
    59   38   39 ar
    60   50   56 ar
    61   51   53 ar
    62   53   54 ar
@<TRIPOS>SUBSTRUCTURE
     1 RES1 1
     2 RES2 16

@<TRIPOS>CRYSIN
   6.7195    6.8080   12.2990  82.2200  81.3500  68.6100   2 1

