# MOL2 file generated by ConQuest
# Please check atom types

@<TRIPOS>MOLECULE
YEWLUK
   120   132     2
SMALL
NO_CHARGES
****
Generated from CSD

@<TRIPOS>ATOM
      1 C1        11.0314   13.4594    6.0120 C.ar      1 RES1    0.0000
      2 C2        11.1303   13.6190    7.4013 C.ar      1 RES1    0.0000
      3 H1        10.3604   13.9029    7.8794 H         1 RES1    0.0000
      4 C3        12.2960   13.3818    8.1119 C.ar      1 RES1    0.0000
      5 C4        13.4391   13.0188    7.3737 C.ar      1 RES1    0.0000
      6 H2        14.2570   12.8483    7.8256 H         1 RES1    0.0000
      7 C5        13.3856   12.9075    6.0047 C.ar      1 RES1    0.0000
      8 H3        14.1777   12.6806    5.5310 H         1 RES1    0.0000
      9 C6        12.1934   13.1212    5.2839 C.ar      1 RES1    0.0000
     10 C7        12.1247   13.0067    3.8336 C.ar      1 RES1    0.0000
     11 C8        13.1588   12.4057    3.0765 C.ar      1 RES1    0.0000
     12 H4        13.9434   12.1135    3.5241 H         1 RES1    0.0000
     13 C9        13.0666   12.2328    1.7337 C.ar      1 RES1    0.0000
     14 H5        13.7806   11.8315    1.2527 H         1 RES1    0.0000
     15 C10       11.9179   12.6463    1.0652 C.ar      1 RES1    0.0000
     16 H6        11.8292   12.4982    0.1308 H         1 RES1    0.0000
     17 C11       10.8990   13.2773    1.7744 C.ar      1 RES1    0.0000
     18 H7        10.1226   13.5671    1.3094 H         1 RES1    0.0000
     19 C12       10.9888   13.4968    3.1506 C.ar      1 RES1    0.0000
     20 C13        9.8522   14.0540    3.9179 C.ar      1 RES1    0.0000
     21 C14        8.7661   14.7683    3.2887 C.ar      1 RES1    0.0000
     22 C15        7.6076   14.9684    4.0182 C.ar      1 RES1    0.0000
     23 H8         6.8888   15.4482    3.6215 H         1 RES1    0.0000
     24 C16        7.4638   14.4902    5.3057 C.ar      1 RES1    0.0000
     25 H9         6.6258   14.5777    5.7446 H         1 RES1    0.0000
     26 C17        8.5180   13.8889    5.9699 C.ar      1 RES1    0.0000
     27 C18        9.7772   13.7805    5.2999 C.ar      1 RES1    0.0000
     28 C19       12.3005   13.5249    9.5971 C.ar      1 RES1    0.0000
     29 C20       13.4532   13.8451   10.2903 C.ar      1 RES1    0.0000
     30 H10       14.2657   13.9645    9.8108 H         1 RES1    0.0000
     31 C21       13.4510   13.9946   11.6665 C.ar      1 RES1    0.0000
     32 H11       14.2526   14.2231   12.1228 H         1 RES1    0.0000
     33 C22       12.2809   13.8094   12.3714 C.ar      1 RES1    0.0000
     34 H12       12.2750   13.9090   13.3174 H         1 RES1    0.0000
     35 C23       11.1284   13.4845   11.7087 C.ar      1 RES1    0.0000
     36 H13       10.3244   13.3564   12.1970 H         1 RES1    0.0000
     37 C24       11.1281   13.3419   10.3368 C.ar      1 RES1    0.0000
     38 H14       10.3213   13.1166    9.8892 H         1 RES1    0.0000
     39 C25        8.8488   15.4625    1.9706 C.ar      1 RES1    0.0000
     40 C26        9.9140   16.3038    1.6639 C.ar      1 RES1    0.0000
     41 H15       10.6678   16.3347    2.2409 H         1 RES1    0.0000
     42 C27        9.8896   17.0961    0.5246 C.ar      1 RES1    0.0000
     43 H16       10.6157   17.6802    0.3342 H         1 RES1    0.0000
     44 C28        8.8130   17.0342   -0.3255 C.ar      1 RES1    0.0000
     45 H17        8.7918   17.5871   -1.0972 H         1 RES1    0.0000
     46 C29        7.7658   16.1786   -0.0654 C.ar      1 RES1    0.0000
     47 H18        7.0307   16.1247   -0.6656 H         1 RES1    0.0000
     48 C30        7.7956   15.3926    1.0841 C.ar      1 RES1    0.0000
     49 H19        7.0756   14.7980    1.2600 H         1 RES1    0.0000
     50 C31        8.2036   13.3234    7.3112 C.ar      1 RES1    0.0000
     51 C32        8.3072   11.9476    7.5568 C.ar      1 RES1    0.0000
     52 H20        8.6209   11.3679    6.8723 H         1 RES1    0.0000
     53 C33        7.9590   11.4299    8.7833 C.ar      1 RES1    0.0000
     54 H21        8.0208   10.4936    8.9272 H         1 RES1    0.0000
     55 C34        7.5195   12.2496    9.8108 C.ar      1 RES1    0.0000
     56 H22        7.2940   11.8827   10.6580 H         1 RES1    0.0000
     57 C35        7.4118   13.6262    9.5782 C.ar      1 RES1    0.0000
     58 H23        7.1100   14.2020   10.2700 H         1 RES1    0.0000
     59 C36        7.7401   14.1410    8.3546 C.ar      1 RES1    0.0000
     60 H24        7.6544   15.0749    8.2078 H         1 RES1    0.0000
     61 C37        4.3702   12.3955    7.3010 C.ar      2 RES2    0.0000
     62 C38        4.3746   12.7006    8.6583 C.ar      2 RES2    0.0000
     63 H25        4.5570   11.9994    9.2731 H         2 RES2    0.0000
     64 C39        4.1267   13.9737    9.1699 C.ar      2 RES2    0.0000
     65 C40        3.9137   15.0034    8.2326 C.ar      2 RES2    0.0000
     66 H26        3.7389   15.8852    8.5363 H         2 RES2    0.0000
     67 C41        3.9535   14.7480    6.8956 C.ar      2 RES2    0.0000
     68 H27        3.8189   15.4670    6.2896 H         2 RES2    0.0000
     69 C42        4.1869   13.4504    6.3710 C.ar      2 RES2    0.0000
     70 C43        4.2776   13.1873    4.9512 C.ar      2 RES2    0.0000
     71 C44        3.8279   14.1018    3.9804 C.ar      2 RES2    0.0000
     72 H28        3.4600   14.9302    4.2681 H         2 RES2    0.0000
     73 C45        3.9006   13.8431    2.6521 C.ar      2 RES2    0.0000
     74 H29        3.6072   14.4938    2.0258 H         2 RES2    0.0000
     75 C46        4.4095   12.6160    2.2016 C.ar      2 RES2    0.0000
     76 H30        4.4452   12.4164    1.2745 H         2 RES2    0.0000
     77 C47        4.8561   11.7053    3.1361 C.ar      2 RES2    0.0000
     78 H31        5.1946   10.8727    2.8294 H         2 RES2    0.0000
     79 C48        4.8359   11.9502    4.5094 C.ar      2 RES2    0.0000
     80 C49        5.2400   10.9353    5.4947 C.ar      2 RES2    0.0000
     81 C50        6.0351    9.7918    5.1430 C.ar      2 RES2    0.0000
     82 C51        6.0570    8.7216    6.0309 C.ar      2 RES2    0.0000
     83 H32        6.5593    7.9471    5.8042 H         2 RES2    0.0000
     84 C52        5.3756    8.7444    7.2226 C.ar      2 RES2    0.0000
     85 H33        5.3526    7.9604    7.7588 H         2 RES2    0.0000
     86 C53        4.7130    9.9007    7.6672 C.ar      2 RES2    0.0000
     87 C54        4.7521   11.0456    6.8069 C.ar      2 RES2    0.0000
     88 C55        4.1396   14.2117   10.6260 C.ar      2 RES2    0.0000
     89 C56        4.0765   13.1664   11.5532 C.ar      2 RES2    0.0000
     90 H34        4.0276   12.2725   11.2378 H         2 RES2    0.0000
     91 C57        4.0816   13.3962   12.9032 C.ar      2 RES2    0.0000
     92 H35        4.0549   12.6588   13.5020 H         2 RES2    0.0000
     93 C58        4.1239   14.6788   13.4119 C.ar      2 RES2    0.0000
     94 H36        4.1138   14.8345   14.3492 H         2 RES2    0.0000
     95 C59        4.1831   15.7355   12.5123 C.ar      2 RES2    0.0000
     96 H37        4.2196   16.6271   12.8393 H         2 RES2    0.0000
     97 C60        4.1871   15.5126   11.1666 C.ar      2 RES2    0.0000
     98 H38        4.2240   16.2571   10.5766 H         2 RES2    0.0000
     99 C61        6.9511    9.7004    3.9804 C.ar      2 RES2    0.0000
    100 C62        7.9224   10.6688    3.7435 C.ar      2 RES2    0.0000
    101 H39        7.9013   11.4822    4.2362 H         2 RES2    0.0000
    102 C63        8.9163   10.4687    2.8076 C.ar      2 RES2    0.0000
    103 H40        9.5753   11.1402    2.6725 H         2 RES2    0.0000
    104 C64        8.9668    9.2911    2.0549 C.ar      2 RES2    0.0000
    105 H41        9.6575    9.1526    1.4184 H         2 RES2    0.0000
    106 C65        7.9931    8.3350    2.2569 C.ar      2 RES2    0.0000
    107 H42        7.9998    7.5406    1.7366 H         2 RES2    0.0000
    108 C66        7.0133    8.5196    3.2044 C.ar      2 RES2    0.0000
    109 H43        6.3645    7.8394    3.3410 H         2 RES2    0.0000
    110 C67        3.9689    9.8185    8.9403 C.ar      2 RES2    0.0000
    111 C68        4.6080    9.4558   10.1174 C.ar      2 RES2    0.0000
    112 H44        5.5371    9.2546   10.1014 H         2 RES2    0.0000
    113 C69        3.9209    9.3835   11.3090 C.ar      2 RES2    0.0000
    114 H45        4.3842    9.1602   12.1083 H         2 RES2    0.0000
    115 C70        2.5509    9.6365   11.3512 C.ar      2 RES2    0.0000
    116 H46        2.0724    9.5830   12.1708 H         2 RES2    0.0000
    117 C71        1.9052    9.9628   10.1828 C.ar      2 RES2    0.0000
    118 H47        0.9706   10.1265   10.1973 H         2 RES2    0.0000
    119 C72        2.5900   10.0573    8.9940 C.ar      2 RES2    0.0000
    120 H48        2.1220   10.2880    8.2006 H         2 RES2    0.0000
@<TRIPOS>BOND
     1    1    2 ar
     2    2    3 1
     3    4    2 ar
     4    5    4 ar
     5    6    5 1
     6    7    5 ar
     7    8    7 1
     8    9    1 ar
     9   10    9 ar
    10   11   10 ar
    11   12   11 1
    12   13   11 ar
    13   14   13 1
    14   15   13 ar
    15   16   15 1
    16   17   15 ar
    17   18   17 1
    18   19   10 ar
    19   20   19 ar
    20   21   20 ar
    21   22   21 ar
    22   23   22 1
    23   24   22 ar
    24   25   24 1
    25   26   24 ar
    26   27    1 ar
    27   28    4 1
    28   29   28 ar
    29   30   29 1
    30   31   29 ar
    31   32   31 1
    32   33   31 ar
    33   34   33 1
    34   35   33 ar
    35   36   35 1
    36   37   28 ar
    37   38   37 1
    38   39   21 1
    39   40   39 ar
    40   41   40 1
    41   42   40 ar
    42   43   42 1
    43   44   42 ar
    44   45   44 1
    45   46   44 ar
    46   47   46 1
    47   48   39 ar
    48   49   48 1
    49   50   26 1
    50   51   50 ar
    51   52   51 1
    52   53   51 ar
    53   54   53 1
    54   55   53 ar
    55   56   55 1
    56   57   55 ar
    57   58   57 1
    58   59   50 ar
    59   60   59 1
    60   61   62 ar
    61   62   63 1
    62   64   62 ar
    63   65   64 ar
    64   66   65 1
    65   67   65 ar
    66   68   67 1
    67   69   61 ar
    68   70   69 ar
    69   71   70 ar
    70   72   71 1
    71   73   71 ar
    72   74   73 1
    73   75   73 ar
    74   76   75 1
    75   77   75 ar
    76   78   77 1
    77   79   70 ar
    78   80   79 ar
    79   81   80 ar
    80   82   81 ar
    81   83   82 1
    82   84   82 ar
    83   85   84 1
    84   86   84 ar
    85   87   61 ar
    86   88   64 1
    87   89   88 ar
    88   90   89 1
    89   91   89 ar
    90   92   91 1
    91   93   91 ar
    92   94   93 1
    93   95   93 ar
    94   96   95 1
    95   97   88 ar
    96   98   97 1
    97   99   81 1
    98  100   99 ar
    99  101  100 1
   100  102  100 ar
   101  103  102 1
   102  104  102 ar
   103  105  104 1
   104  106  104 ar
   105  107  106 1
   106  108   99 ar
   107  109  108 1
   108  110   86 1
   109  111  110 ar
   110  112  111 1
   111  113  111 ar
   112  114  113 1
   113  115  113 ar
   114  116  115 1
   115  117  115 ar
   116  118  117 1
   117  119  110 ar
   118  120  119 1
   119    7    9 ar
   120   17   19 ar
   121   20   27 ar
   122   26   27 ar
   123   35   37 ar
   124   46   48 ar
   125   57   59 ar
   126   67   69 ar
   127   77   79 ar
   128   80   87 ar
   129   86   87 ar
   130   95   97 ar
   131  106  108 ar
   132  117  119 ar
@<TRIPOS>SUBSTRUCTURE
     1 RES1 1
     2 RES2 61

@<TRIPOS>CRYSIN
  12.8070   13.2090   15.9800  70.1300  75.4710  88.0950   2 1

