# MOL2 file generated by ConQuest
# Please check atom types

@<TRIPOS>MOLECULE
YEWMEV
    60    66     1
SMALL
NO_CHARGES
****
Generated from CSD

@<TRIPOS>ATOM
      1 C1        -0.3647   15.7728   11.3177 C.ar      1 RES1    0.0000
      2 C2        -0.2717   17.1613   11.0886 C.ar      1 RES1    0.0000
      3 H1         0.4705   17.6331   11.4458 H         1 RES1    0.0000
      4 C3        -1.2154   17.8617   10.3665 C.ar      1 RES1    0.0000
      5 C4        -2.3041   17.1434    9.8335 C.ar      1 RES1    0.0000
      6 H2        -2.9669   17.6001    9.3292 H         1 RES1    0.0000
      7 C5        -2.4162   15.7919   10.0341 C.ar      1 RES1    0.0000
      8 H3        -3.1566   15.3302    9.6590 H         1 RES1    0.0000
      9 C6        -1.4652   15.0700   10.7805 C.ar      1 RES1    0.0000
     10 C7        -1.5829   13.6318   11.0216 C.ar      1 RES1    0.0000
     11 C8        -2.7818   12.9570   10.7258 C.ar      1 RES1    0.0000
     12 H4        -3.5049   13.4462   10.3512 H         1 RES1    0.0000
     13 C9        -2.9378   11.6127   10.9627 C.ar      1 RES1    0.0000
     14 H5        -3.7483   11.1748   10.7300 H         1 RES1    0.0000
     15 C10       -1.8992   10.8990   11.5475 C.ar      1 RES1    0.0000
     16 H6        -1.9977    9.9695   11.7176 H         1 RES1    0.0000
     17 C11       -0.7267   11.5388   11.8800 C.ar      1 RES1    0.0000
     18 H7        -0.0392   11.0428   12.3084 H         1 RES1    0.0000
     19 C12       -0.5106   12.9117   11.6073 C.ar      1 RES1    0.0000
     20 C13        0.7121   13.6242   12.0293 C.ar      1 RES1    0.0000
     21 C14        1.8992   12.9817   12.4932 C.ar      1 RES1    0.0000
     22 C15        2.8913   13.7268   13.1163 C.ar      1 RES1    0.0000
     23 H8         3.6581   13.2840   13.4609 H         1 RES1    0.0000
     24 C16        2.7882   15.1040   13.2473 C.ar      1 RES1    0.0000
     25 H9         3.4502   15.5927   13.7219 H         1 RES1    0.0000
     26 C17        1.7187   15.7509   12.6839 C.ar      1 RES1    0.0000
     27 H10        1.6704   16.6976   12.7361 H         1 RES1    0.0000
     28 C18        0.6911   15.0439   12.0304 C.ar      1 RES1    0.0000
     29 C19       -1.0850   19.3299   10.1597 C.ar      1 RES1    0.0000
     30 C20       -0.5626   20.1515   11.1633 C.ar      1 RES1    0.0000
     31 H11       -0.2653   19.7639   11.9768 H         1 RES1    0.0000
     32 C21       -0.4732   21.5243   10.9879 C.ar      1 RES1    0.0000
     33 H12       -0.1213   22.0683   11.6832 H         1 RES1    0.0000
     34 C22       -0.8963   22.1062    9.8016 C.ar      1 RES1    0.0000
     35 H13       -0.8352   23.0469    9.6807 H         1 RES1    0.0000
     36 C23       -1.4096   21.2989    8.7897 C.ar      1 RES1    0.0000
     37 H14       -1.7014   21.6895    7.9736 H         1 RES1    0.0000
     38 C24       -1.4953   19.9312    8.9703 C.ar      1 RES1    0.0000
     39 H15       -1.8400   19.3894    8.2708 H         1 RES1    0.0000
     40 C25        2.2174   11.5349   12.3006 C.ar      1 RES1    0.0000
     41 C26        2.2886   10.9762   11.0203 C.ar      1 RES1    0.0000
     42 H16        2.0889   11.5120   10.2606 H         1 RES1    0.0000
     43 C27        2.6478    9.6482   10.8490 C.ar      1 RES1    0.0000
     44 H17        2.7034    9.2879    9.9725 H         1 RES1    0.0000
     45 C28        2.9305    8.8296   11.9485 C.ar      1 RES1    0.0000
     46 C29        2.8666    9.3997   13.2239 C.ar      1 RES1    0.0000
     47 H18        3.0554    8.8646   13.9865 H         1 RES1    0.0000
     48 C30        2.5338   10.7295   13.3901 C.ar      1 RES1    0.0000
     49 H19        2.5202   11.1016   14.2637 H         1 RES1    0.0000
     50 C31        3.2861    7.4011   11.7725 C.ar      1 RES1    0.0000
     51 C32        4.1459    6.9895   10.7481 C.ar      1 RES1    0.0000
     52 H20        4.5078    7.6335   10.1519 H         1 RES1    0.0000
     53 C33        4.4750    5.6530   10.5959 C.ar      1 RES1    0.0000
     54 H21        5.0558    5.3879    9.8927 H         1 RES1    0.0000
     55 C34        3.9635    4.7012   11.4614 C.ar      1 RES1    0.0000
     56 H22        4.1924    3.7852   11.3534 H         1 RES1    0.0000
     57 C35        3.1183    5.0921   12.4836 C.ar      1 RES1    0.0000
     58 H23        2.7682    4.4438   13.0840 H         1 RES1    0.0000
     59 C36        2.7791    6.4269   12.6350 C.ar      1 RES1    0.0000
     60 H24        2.1928    6.6836   13.3377 H         1 RES1    0.0000
@<TRIPOS>BOND
     1    1    2 ar
     2    2    3 1
     3    4    2 ar
     4    5    4 ar
     5    6    5 1
     6    7    5 ar
     7    8    7 1
     8    9    1 ar
     9   10    9 ar
    10   11   10 ar
    11   12   11 1
    12   13   11 ar
    13   14   13 1
    14   15   13 ar
    15   16   15 1
    16   17   15 ar
    17   18   17 1
    18   19   10 ar
    19   20   19 ar
    20   21   20 ar
    21   22   21 ar
    22   23   22 1
    23   24   22 ar
    24   25   24 1
    25   26   24 ar
    26   27   26 1
    27   28    1 ar
    28   29    4 1
    29   30   29 ar
    30   31   30 1
    31   32   30 ar
    32   33   32 1
    33   34   32 ar
    34   35   34 1
    35   36   34 ar
    36   37   36 1
    37   38   29 ar
    38   39   38 1
    39   40   21 1
    40   41   40 ar
    41   42   41 1
    42   43   41 ar
    43   44   43 1
    44   45   43 ar
    45   46   45 ar
    46   47   46 1
    47   48   40 ar
    48   49   48 1
    49   50   45 1
    50   51   50 ar
    51   52   51 1
    52   53   51 ar
    53   54   53 1
    54   55   53 ar
    55   56   55 1
    56   57   55 ar
    57   58   57 1
    58   59   50 ar
    59   60   59 1
    60    7    9 ar
    61   17   19 ar
    62   20   28 ar
    63   26   28 ar
    64   36   38 ar
    65   46   48 ar
    66   57   59 ar
@<TRIPOS>SUBSTRUCTURE
     1 RES1 1

@<TRIPOS>CRYSIN
   9.1178   14.3487   18.1219  90.0000  90.0000  90.0000  19 1

