# MOL2 file generated by ConQuest
# Please check atom types

@<TRIPOS>MOLECULE
YIBHUO
    65    71     1
SMALL
NO_CHARGES
****
Generated from CSD

@<TRIPOS>ATOM
      1 C1        12.4125    2.3155   22.0005 C.3       1 RES1    0.0000
      2 H1        13.0918    2.9643   21.8063 H         1 RES1    0.0000
      3 H2        12.7291    1.4398   21.7628 H         1 RES1    0.0000
      4 H3        12.2073    2.3363   22.9380 H         1 RES1    0.0000
      5 C2        11.1707    2.6335   21.2076 C.ar      1 RES1    0.0000
      6 C3        10.5406    1.6955   20.4672 C.ar      1 RES1    0.0000
      7 H4        10.8857    0.8326   20.4449 H         1 RES1    0.0000
      8 C4         9.3974    1.9799   19.7430 C.ar      1 RES1    0.0000
      9 H5         9.0015    1.3024   19.2431 H         1 RES1    0.0000
     10 C5         8.8311    3.2225   19.7352 C.ar      1 RES1    0.0000
     11 C6         7.6007    3.5303   18.9643 C.ar      1 RES1    0.0000
     12 C7         6.9874    4.7735   19.0287 C.ar      1 RES1    0.0000
     13 H6         7.3704    5.4316   19.5623 H         1 RES1    0.0000
     14 C8         5.8274    5.0797   18.3315 C.ar      1 RES1    0.0000
     15 C9         5.2402    4.0952   17.5212 C.ar      1 RES1    0.0000
     16 C10        4.0584    4.3614   16.7963 C.ar      1 RES1    0.0000
     17 C11        3.4605    5.6371   16.8681 C.ar      1 RES1    0.0000
     18 C12        2.3164    5.8960   16.1335 C.ar      1 RES1    0.0000
     19 H7         1.9198    6.7340   16.2012 H         1 RES1    0.0000
     20 C13        1.7411    4.9516   15.2997 C.ar      1 RES1    0.0000
     21 C14        0.5336    5.2499   14.4988 C.ar      1 RES1    0.0000
     22 C15        0.1172    6.5294   14.2532 C.ar      1 RES1    0.0000
     23 H8         0.6105    7.2405   14.5932 H         1 RES1    0.0000
     24 C16       -1.0170    6.7899   13.5103 C.ar      1 RES1    0.0000
     25 H9        -1.2712    7.6736   13.3720 H         1 RES1    0.0000
     26 C17       -1.7780    5.7928   12.9709 C.ar      1 RES1    0.0000
     27 C18       -3.0119    6.0804   12.1548 C.3       1 RES1    0.0000
     28 H10       -2.8203    5.9398   11.2248 H         1 RES1    0.0000
     29 H11       -3.2800    6.9928   12.2911 H         1 RES1    0.0000
     30 H12       -3.7202    5.4939   12.4290 H         1 RES1    0.0000
     31 C19       10.6230    3.8672   21.2001 C.ar      1 RES1    0.0000
     32 H13       11.0250    4.5415   21.6975 H         1 RES1    0.0000
     33 C20        9.4845    4.1596   20.4744 C.ar      1 RES1    0.0000
     34 H14        9.1522    5.0273   20.4909 H         1 RES1    0.0000
     35 C21        7.0046    2.5784   18.1591 C.ar      1 RES1    0.0000
     36 H15        7.3950    1.7354   18.1018 H         1 RES1    0.0000
     37 C22        5.8487    2.8259   17.4332 C.ar      1 RES1    0.0000
     38 C23        5.2023    6.3524   18.3915 C.ar      1 RES1    0.0000
     39 H16        5.5784    7.0200   18.9167 H         1 RES1    0.0000
     40 C24        4.0782    6.6101   17.7038 C.ar      1 RES1    0.0000
     41 H17        3.6903    7.4531   17.7754 H         1 RES1    0.0000
     42 C25       -1.3549    4.5351   13.1936 C.ar      1 RES1    0.0000
     43 H18       -1.8326    3.8272   12.8255 H         1 RES1    0.0000
     44 C26       -0.2388    4.2623   13.9499 C.ar      1 RES1    0.0000
     45 H19       -0.0005    3.3750   14.0926 H         1 RES1    0.0000
     46 C27        2.3472    3.7106   15.2296 C.ar      1 RES1    0.0000
     47 H20        1.9852    3.0714   14.6584 H         1 RES1    0.0000
     48 C28        3.4707    3.3750   15.9707 C.ar      1 RES1    0.0000
     49 C29        4.1003    2.0790   15.8980 C.ar      1 RES1    0.0000
     50 C30        5.2344    1.8463   16.6021 C.ar      1 RES1    0.0000
     51 H21        5.6298    1.0067   16.5397 H         1 RES1    0.0000
     52 C31        3.5371    0.9941   15.0598 C.ar      1 RES1    0.0000
     53 C32        4.3261    0.3466   14.1361 C.ar      1 RES1    0.0000
     54 H22        5.2083    0.6168   14.0225 H         1 RES1    0.0000
     55 C33        3.8377   -0.6964   13.3740 C.ar      1 RES1    0.0000
     56 H23        4.3941   -1.1106   12.7554 H         1 RES1    0.0000
     57 C34        2.5440   -1.1304   13.5147 C.ar      1 RES1    0.0000
     58 C35        1.7471   -0.4864   14.4394 C.ar      1 RES1    0.0000
     59 H24        0.8657   -0.7590   14.5520 H         1 RES1    0.0000
     60 C36        2.2388    0.5524   15.1955 C.ar      1 RES1    0.0000
     61 H25        1.6810    0.9668   15.8143 H         1 RES1    0.0000
     62 C37        1.9856   -2.2476   12.6737 C.3       1 RES1    0.0000
     63 H26        1.3270   -2.7294   13.1786 H         1 RES1    0.0000
     64 H27        2.6943   -2.8428   12.4217 H         1 RES1    0.0000
     65 H28        1.5791   -1.8824   11.8849 H         1 RES1    0.0000
@<TRIPOS>BOND
     1    1    2 1
     2    3    1 1
     3    4    1 1
     4    5    1 1
     5    6    5 ar
     6    7    6 1
     7    8    6 ar
     8    9    8 1
     9   10    8 ar
    10   11   10 1
    11   12   11 ar
    12   13   12 1
    13   14   12 ar
    14   15   14 ar
    15   16   15 ar
    16   17   16 ar
    17   18   17 ar
    18   19   18 1
    19   20   18 ar
    20   21   20 1
    21   22   21 ar
    22   23   22 1
    23   24   22 ar
    24   25   24 1
    25   26   24 ar
    26   27   26 1
    27   28   27 1
    28   29   27 1
    29   30   27 1
    30   31    5 ar
    31   32   31 1
    32   33   10 ar
    33   34   33 1
    34   35   11 ar
    35   36   35 1
    36   37   15 ar
    37   38   14 ar
    38   39   38 1
    39   40   17 ar
    40   41   40 1
    41   42   26 ar
    42   43   42 1
    43   44   21 ar
    44   45   44 1
    45   46   20 ar
    46   47   46 1
    47   48   16 ar
    48   49   48 ar
    49   50   37 ar
    50   51   50 1
    51   52   49 1
    52   53   52 ar
    53   54   53 1
    54   55   53 ar
    55   56   55 1
    56   57   55 ar
    57   58   57 ar
    58   59   58 1
    59   60   52 ar
    60   61   60 1
    61   62   57 1
    62   63   62 1
    63   64   62 1
    64   65   62 1
    65   31   33 ar
    66   35   37 ar
    67   38   40 ar
    68   42   44 ar
    69   46   48 ar
    70   49   50 ar
    71   58   60 ar
@<TRIPOS>SUBSTRUCTURE
     1 RES1 1

@<TRIPOS>CRYSIN
   6.4590   15.9800   24.2910  90.0000  95.4580  90.0000  14 1

