# MOL2 file generated by ConQuest
# Please check atom types

@<TRIPOS>MOLECULE
YIFVOA
    62    66     1
SMALL
NO_CHARGES
****
Generated from CSD

@<TRIPOS>ATOM
      1 C1         4.1395    8.0016    6.3428 C.ar      1 RES1    0.0000
      2 C2         3.5061    6.8276    6.7666 C.ar      1 RES1    0.0000
      3 C3         4.1283    6.0308    7.7284 C.ar      1 RES1    0.0000
      4 H1         3.6961    5.2357    8.0191 H         1 RES1    0.0000
      5 C4         5.3548    6.3642    8.2698 C.ar      1 RES1    0.0000
      6 C5         5.9665    7.5275    7.8335 C.ar      1 RES1    0.0000
      7 H2         6.8113    7.7662    8.1967 H         1 RES1    0.0000
      8 C6         5.3834    8.3583    6.8796 C.ar      1 RES1    0.0000
      9 C7         2.1693    6.4163    6.2130 C.3       1 RES1    0.0000
     10 H3         1.8288    5.6494    6.7182 H         1 RES1    0.0000
     11 H4         2.2692    6.1679    5.2702 H         1 RES1    0.0000
     12 H5         1.5401    7.1641    6.2895 H         1 RES1    0.0000
     13 C8         6.0167    5.4833    9.3069 C.3       1 RES1    0.0000
     14 H6         5.3416    4.9114    9.7286 H         1 RES1    0.0000
     15 H7         6.4416    6.0436    9.9884 H         1 RES1    0.0000
     16 H8         6.6959    4.9230    8.8747 H         1 RES1    0.0000
     17 C9         6.0893    9.6181    6.4531 C.3       1 RES1    0.0000
     18 H9         5.6794   10.3899    6.8975 H         1 RES1    0.0000
     19 H10        6.0123    9.7218    5.4811 H         1 RES1    0.0000
     20 H11        7.0353    9.5626    6.7015 H         1 RES1    0.0000
     21 C10        3.4730    8.8819    5.3335 C.ar      1 RES1    0.0000
     22 C11        3.5534    8.5766    3.9631 C.ar      1 RES1    0.0000
     23 C12        4.2903    7.4444    3.4969 C.ar      1 RES1    0.0000
     24 H12        4.7469    6.8942    4.1224 H         1 RES1    0.0000
     25 C13        4.3494    7.1405    2.1714 C.ar      1 RES1    0.0000
     26 H13        4.8364    6.3776    1.8827 H         1 RES1    0.0000
     27 C14        3.6898    7.9555    1.2201 C.ar      1 RES1    0.0000
     28 H14        3.7343    7.7332    0.2975 H         1 RES1    0.0000
     29 C15        2.9918    9.0537    1.6178 C.ar      1 RES1    0.0000
     30 H15        2.5626    9.5956    0.9659 H         1 RES1    0.0000
     31 C16        2.8931    9.4084    2.9989 C.ar      1 RES1    0.0000
     32 C1B        1.5020   11.4187    2.4059 C.ar      1 RES1    0.0000
     33 C2B        2.1354   12.5927    1.9821 C.ar      1 RES1    0.0000
     34 C3B        1.5132   13.3895    1.0204 C.ar      1 RES1    0.0000
     35 H1B        1.9455   14.1846    0.7296 H         1 RES1    0.0000
     36 C4B        0.2867   13.0561    0.4790 C.ar      1 RES1    0.0000
     37 C5B       -0.3250   11.8928    0.9153 C.ar      1 RES1    0.0000
     38 H2B       -1.1698   11.6541    0.5520 H         1 RES1    0.0000
     39 C6B        0.2581   11.0620    1.8692 C.ar      1 RES1    0.0000
     40 C7B        3.4722   13.0040    2.5357 C.3       1 RES1    0.0000
     41 H3B        3.8127   13.7709    2.0306 H         1 RES1    0.0000
     42 H4B        3.3723   13.2524    3.4785 H         1 RES1    0.0000
     43 H5B        4.1015   12.2562    2.4593 H         1 RES1    0.0000
     44 C8B       -0.3752   13.9370   -0.5582 C.3       1 RES1    0.0000
     45 H6B        0.2999   14.5089   -0.9799 H         1 RES1    0.0000
     46 H7B       -0.8001   13.3767   -1.2397 H         1 RES1    0.0000
     47 H8B       -1.0544   14.4973   -0.1260 H         1 RES1    0.0000
     48 C9B       -0.4478    9.8022    2.2957 C.3       1 RES1    0.0000
     49 H9B       -0.0379    9.0304    1.8512 H         1 RES1    0.0000
     50 H10B      -0.3708    9.6985    3.2677 H         1 RES1    0.0000
     51 H11B      -1.3938    9.8577    2.0472 H         1 RES1    0.0000
     52 C10B       2.1685   10.5384    3.4152 C.ar      1 RES1    0.0000
     53 C11B       2.0881   10.8437    4.7857 C.ar      1 RES1    0.0000
     54 C12B       1.3512   11.9759    5.2519 C.ar      1 RES1    0.0000
     55 H12B       0.8946   12.5261    4.6263 H         1 RES1    0.0000
     56 C13B       1.2921   12.2798    6.5773 C.ar      1 RES1    0.0000
     57 H13B       0.8051   13.0427    6.8660 H         1 RES1    0.0000
     58 C14B       1.9517   11.4648    7.5286 C.ar      1 RES1    0.0000
     59 H14B       1.9072   11.6871    8.4513 H         1 RES1    0.0000
     60 C15B       2.6497   10.3666    7.1309 C.ar      1 RES1    0.0000
     61 H15B       3.0789    9.8247    7.7829 H         1 RES1    0.0000
     62 C16B       2.7484   10.0119    5.7499 C.ar      1 RES1    0.0000
@<TRIPOS>BOND
     1    1    2 ar
     2    2    3 ar
     3    3    4 1
     4    5    3 ar
     5    6    5 ar
     6    7    6 1
     7    8    1 ar
     8    9    2 1
     9   10    9 1
    10   11    9 1
    11   12    9 1
    12   13    5 1
    13   14   13 1
    14   15   13 1
    15   16   13 1
    16   17    8 1
    17   18   17 1
    18   19   17 1
    19   20   17 1
    20   21    1 1
    21   22   21 ar
    22   23   22 ar
    23   24   23 1
    24   25   23 ar
    25   26   25 1
    26   27   25 ar
    27   28   27 1
    28   29   27 ar
    29   30   29 1
    30   31   22 ar
    31   32   33 ar
    32   33   34 ar
    33   34   35 1
    34   36   34 ar
    35   37   36 ar
    36   38   37 1
    37   39   32 ar
    38   40   33 1
    39   41   40 1
    40   42   40 1
    41   43   40 1
    42   44   36 1
    43   45   44 1
    44   46   44 1
    45   47   44 1
    46   48   39 1
    47   49   48 1
    48   50   48 1
    49   51   48 1
    50   52   31 ar
    51   53   52 ar
    52   54   53 ar
    53   55   54 1
    54   56   54 ar
    55   57   56 1
    56   58   56 ar
    57   59   58 1
    58   60   58 ar
    59   61   60 1
    60   62   21 ar
    61    6    8 ar
    62   29   31 ar
    63   32   52 1
    64   37   39 ar
    65   53   62 ar
    66   60   62 ar
@<TRIPOS>SUBSTRUCTURE
     1 RES1 1

@<TRIPOS>CRYSIN
   7.2622   19.4203    8.8976  90.0000 100.4950  90.0000  14 1

