# MOL2 file generated by ConQuest
# Please check atom types

@<TRIPOS>MOLECULE
YIHKAE
    86    95     1
SMALL
NO_CHARGES
****
Generated from CSD

@<TRIPOS>ATOM
      1 C1        12.5658    6.7900    7.6435 C.ar      1 RES1    0.0000
      2 C2        12.2056    5.8025    8.5226 C.ar      1 RES1    0.0000
      3 C3        12.7804    6.1245    9.8512 C.ar      1 RES1    0.0000
      4 C4        12.7834    5.5154   11.0854 C.ar      1 RES1    0.0000
      5 C5        12.2448    6.9049    6.1962 C.ar      1 RES1    0.0000
      6 C6        12.5734    5.9052    5.2688 C.ar      1 RES1    0.0000
      7 C7        12.1780    6.0887    3.9365 C.ar      1 RES1    0.0000
      8 H1        12.3643    5.4071    3.3014 H         1 RES1    0.0000
      9 C8        11.5276    7.2287    3.5233 C.ar      1 RES1    0.0000
     10 H2        11.2712    7.3275    2.6139 H         1 RES1    0.0000
     11 C9        11.2482    8.2294    4.4360 C.ar      1 RES1    0.0000
     12 H3        10.8157    9.0272    4.1551 H         1 RES1    0.0000
     13 C10       11.6029    8.0590    5.7551 C.ar      1 RES1    0.0000
     14 H4        11.4048    8.7460    6.3804 H         1 RES1    0.0000
     15 C11       11.3442    4.6371    8.2061 C.ar      1 RES1    0.0000
     16 C12       10.0141    4.7906    7.7877 C.ar      1 RES1    0.0000
     17 C13        9.2844    3.6393    7.5161 C.ar      1 RES1    0.0000
     18 H5         8.3813    3.7244    7.2336 H         1 RES1    0.0000
     19 C14        9.8247    2.3854    7.6421 C.ar      1 RES1    0.0000
     20 H6         9.2960    1.6199    7.4476 H         1 RES1    0.0000
     21 C15       11.1244    2.2338    8.0481 C.ar      1 RES1    0.0000
     22 H7        11.4979    1.3656    8.1483 H         1 RES1    0.0000
     23 C16       11.8855    3.3541    8.3100 C.ar      1 RES1    0.0000
     24 H8        12.7945    3.2513    8.5656 H         1 RES1    0.0000
     25 C17       13.4803    7.3586    9.6883 C.ar      1 RES1    0.0000
     26 C18       14.2218    8.0081   10.6552 C.ar      1 RES1    0.0000
     27 C19       14.8626    9.1952   10.2579 C.ar      1 RES1    0.0000
     28 H9        15.3853    9.6844   10.8826 H         1 RES1    0.0000
     29 C20       14.7335    9.6499    8.9664 C.ar      1 RES1    0.0000
     30 H10       15.1666   10.4598    8.7249 H         1 RES1    0.0000
     31 C21       13.9952    8.9740    7.9951 C.ar      1 RES1    0.0000
     32 H11       13.9296    9.3100    7.1090 H         1 RES1    0.0000
     33 C22       13.3633    7.8039    8.3585 C.ar      1 RES1    0.0000
     34 C23       12.0584    4.2314   11.3435 C.ar      1 RES1    0.0000
     35 C24       12.7303    3.0312   11.6254 C.ar      1 RES1    0.0000
     36 C25       11.9788    1.8752   11.8044 C.ar      1 RES1    0.0000
     37 H12       12.4226    1.0548   11.9834 H         1 RES1    0.0000
     38 C26       10.6097    1.8968   11.7279 C.ar      1 RES1    0.0000
     39 H13       10.1191    1.0918   11.8477 H         1 RES1    0.0000
     40 C27        9.9404    3.0717   11.4792 C.ar      1 RES1    0.0000
     41 H14        8.9913    3.0863   11.4400 H         1 RES1    0.0000
     42 C28       10.6666    4.2333   11.2872 C.ar      1 RES1    0.0000
     43 H15       10.2078    5.0469   11.1139 H         1 RES1    0.0000
     44 C29       13.3874    4.7087    5.6031 C.ar      1 RES1    0.0000
     45 C30       13.0106    3.4416    5.1515 C.ar      1 RES1    0.0000
     46 H16       12.1992    3.3376    4.6685 H         1 RES1    0.0000
     47 C31       13.8022    2.3393    5.3987 C.ar      1 RES1    0.0000
     48 H17       13.5328    1.4816    5.0918 H         1 RES1    0.0000
     49 C32       14.9873    2.4824    6.0920 C.ar      1 RES1    0.0000
     50 H18       15.5382    1.7251    6.2534 H         1 RES1    0.0000
     51 C33       15.3698    3.7193    6.5482 C.ar      1 RES1    0.0000
     52 H19       16.1835    3.8167    7.0286 H         1 RES1    0.0000
     53 C34       14.5772    4.8169    6.3112 C.ar      1 RES1    0.0000
     54 H20       14.8489    5.6667    6.6381 H         1 RES1    0.0000
     55 C35        9.3503    6.1160    7.6629 C.ar      1 RES1    0.0000
     56 C36        9.4314    7.0979    8.6418 C.ar      1 RES1    0.0000
     57 H21        9.9554    6.9429    9.4188 H         1 RES1    0.0000
     58 C37        8.7588    8.3009    8.5010 C.ar      1 RES1    0.0000
     59 H22        8.8206    8.9626    9.1798 H         1 RES1    0.0000
     60 C38        7.9978    8.5372    7.3720 C.ar      1 RES1    0.0000
     61 H23        7.5371    9.3624    7.2743 H         1 RES1    0.0000
     62 C39        7.9079    7.5892    6.3987 C.ar      1 RES1    0.0000
     63 H24        7.3839    7.7562    5.6240 H         1 RES1    0.0000
     64 C40        8.5740    6.3862    6.5304 C.ar      1 RES1    0.0000
     65 H25        8.5040    5.7333    5.8435 H         1 RES1    0.0000
     66 C41       14.2444    7.3765   11.9694 C.ar      1 RES1    0.0000
     67 C42       13.5183    6.1734   12.1696 C.ar      1 RES1    0.0000
     68 C43       13.5121    5.6209   13.4605 C.ar      1 RES1    0.0000
     69 H26       13.0138    4.8280   13.6216 H         1 RES1    0.0000
     70 C44       14.2080    6.1960   14.4979 C.ar      1 RES1    0.0000
     71 H27       14.1865    5.8010   15.3616 H         1 RES1    0.0000
     72 C45       14.9442    7.3577   14.2822 C.ar      1 RES1    0.0000
     73 H28       15.4377    7.7463   14.9947 H         1 RES1    0.0000
     74 C46       14.9569    7.9385   13.0456 C.ar      1 RES1    0.0000
     75 H29       15.4550    8.7364   12.9097 H         1 RES1    0.0000
     76 C47       14.2066    2.9389   11.7335 C.ar      1 RES1    0.0000
     77 C48       15.0617    3.3654   10.7284 C.ar      1 RES1    0.0000
     78 H30       14.7040    3.7882    9.9564 H         1 RES1    0.0000
     79 C49       16.4269    3.1846   10.8356 C.ar      1 RES1    0.0000
     80 H31       16.9969    3.4527   10.1246 H         1 RES1    0.0000
     81 C50       16.9638    2.6170   11.9659 C.ar      1 RES1    0.0000
     82 H32       17.9047    2.5082   12.0398 H         1 RES1    0.0000
     83 C51       16.1433    2.2065   12.9909 C.ar      1 RES1    0.0000
     84 H33       16.5143    1.8239   13.7773 H         1 RES1    0.0000
     85 C52       14.7673    2.3572   12.8666 C.ar      1 RES1    0.0000
     86 H34       14.1998    2.0577   13.5670 H         1 RES1    0.0000
@<TRIPOS>BOND
     1    1    2 ar
     2    2    3 ar
     3    3    4 ar
     4    4   34 1
     5    5    1 1
     6    6    5 ar
     7    7    6 ar
     8    8    7 1
     9    9    7 ar
    10   10    9 1
    11   11    9 ar
    12   12   11 1
    13   13    5 ar
    14   14   13 1
    15   15    2 1
    16   16   15 ar
    17   17   16 ar
    18   18   17 1
    19   19   17 ar
    20   20   19 1
    21   21   19 ar
    22   22   21 1
    23   23   15 ar
    24   24   23 1
    25   25    3 ar
    26   26   25 ar
    27   27   26 ar
    28   28   27 1
    29   29   27 ar
    30   30   29 1
    31   31   29 ar
    32   32   31 1
    33   33    1 ar
    34   34   35 ar
    35   35   36 ar
    36   36   37 1
    37   38   36 ar
    38   39   38 1
    39   40   38 ar
    40   41   40 1
    41   42   34 ar
    42   43   42 1
    43   44    6 1
    44   45   44 ar
    45   46   45 1
    46   47   45 ar
    47   48   47 1
    48   49   47 ar
    49   50   49 1
    50   51   49 ar
    51   52   51 1
    52   53   44 ar
    53   54   53 1
    54   55   16 1
    55   56   55 ar
    56   57   56 1
    57   58   56 ar
    58   59   58 1
    59   60   58 ar
    60   61   60 1
    61   62   60 ar
    62   63   62 1
    63   64   55 ar
    64   65   64 1
    65   66   26 ar
    66   67    4 ar
    67   68   67 ar
    68   69   68 1
    69   70   68 ar
    70   71   70 1
    71   72   70 ar
    72   73   72 1
    73   74   66 ar
    74   75   74 1
    75   76   35 1
    76   77   76 ar
    77   78   77 1
    78   79   77 ar
    79   80   79 1
    80   81   79 ar
    81   82   81 1
    82   83   81 ar
    83   84   83 1
    84   85   76 ar
    85   86   85 1
    86   11   13 ar
    87   21   23 ar
    88   25   33 ar
    89   31   33 ar
    90   40   42 ar
    91   51   53 ar
    92   62   64 ar
    93   66   67 ar
    94   72   74 ar
    95   83   85 ar
@<TRIPOS>SUBSTRUCTURE
     1 RES1 1

@<TRIPOS>CRYSIN
  18.3142    9.4136   20.8067  90.0000  97.6634  90.0000  14 1

