# MOL2 file generated by ConQuest
# Please check atom types

@<TRIPOS>MOLECULE
YIHKOS
    66    73     1
SMALL
NO_CHARGES
****
Generated from CSD

@<TRIPOS>ATOM
      1 C1         1.0810    7.0214    3.5625 C.2       1 RES1    0.0000
      2 C2         0.6946    8.2219    3.1067 C.2       1 RES1    0.0000
      3 C3         0.2154    6.1613    4.4461 C.ar      1 RES1    0.0000
      4 C4        -0.0603    6.6236    5.7367 C.ar      1 RES1    0.0000
      5 H1         0.1892    7.5087    5.9769 H         1 RES1    0.0000
      6 C5        -0.6883    5.8201    6.6680 C.ar      1 RES1    0.0000
      7 H2        -0.8752    6.1561    7.5373 H         1 RES1    0.0000
      8 C6        -1.0429    4.5387    6.3389 C.ar      1 RES1    0.0000
      9 H3        -1.4326    3.9677    6.9900 H         1 RES1    0.0000
     10 C7        -0.8291    4.0818    5.0530 C.ar      1 RES1    0.0000
     11 H4        -1.1072    3.2030    4.8221 H         1 RES1    0.0000
     12 C8        -0.2173    4.8746    4.0845 C.ar      1 RES1    0.0000
     13 C9        -0.1562    4.3625    2.6904 C.ar      1 RES1    0.0000
     14 C10        0.2071    3.0391    2.4300 C.ar      1 RES1    0.0000
     15 H5         0.4626    2.4753    3.1498 H         1 RES1    0.0000
     16 C11        0.2018    2.5383    1.1487 C.ar      1 RES1    0.0000
     17 H6         0.4315    1.6297    0.9936 H         1 RES1    0.0000
     18 C12       -0.1427    3.3627    0.0802 C.ar      1 RES1    0.0000
     19 H7        -0.1267    3.0241   -0.8079 H         1 RES1    0.0000
     20 C13       -0.5023    4.6650    0.3139 C.ar      1 RES1    0.0000
     21 H8        -0.7426    5.2301   -0.4105 H         1 RES1    0.0000
     22 C14       -0.5163    5.1533    1.6057 C.ar      1 RES1    0.0000
     23 H9        -0.7801    6.0531    1.7577 H         1 RES1    0.0000
     24 C15        2.4465    6.4698    3.3555 C.ar      1 RES1    0.0000
     25 C16        3.4843    6.6718    4.3694 C.ar      1 RES1    0.0000
     26 C17        3.2701    7.5197    5.4739 C.ar      1 RES1    0.0000
     27 H10        2.4442    7.9826    5.5497 H         1 RES1    0.0000
     28 C18        4.2316    7.6938    6.4471 C.ar      1 RES1    0.0000
     29 H11        4.0817    8.2814    7.1784 H         1 RES1    0.0000
     30 C19        5.4263    6.9858    6.3355 C.ar      1 RES1    0.0000
     31 H12        6.0844    7.0689    7.0153 H         1 RES1    0.0000
     32 C20        5.6673    6.1792    5.2693 C.ar      1 RES1    0.0000
     33 H13        6.4968    5.7199    5.2150 H         1 RES1    0.0000
     34 C21        4.7235    6.0082    4.2484 C.ar      1 RES1    0.0000
     35 C22        4.9787    5.1594    3.0939 C.ar      1 RES1    0.0000
     36 C23        6.1718    4.4522    2.8997 C.ar      1 RES1    0.0000
     37 H14        6.8628    4.5273    3.5467 H         1 RES1    0.0000
     38 C24        6.3710    3.6574    1.8045 C.ar      1 RES1    0.0000
     39 H15        7.1863    3.1794    1.7083 H         1 RES1    0.0000
     40 C25        5.3803    3.5465    0.8313 C.ar      1 RES1    0.0000
     41 H16        5.5271    3.0067    0.0629 H         1 RES1    0.0000
     42 C26        4.1865    4.2220    0.9860 C.ar      1 RES1    0.0000
     43 H17        3.5054    4.1337    0.3288 H         1 RES1    0.0000
     44 C27        3.9730    5.0382    2.1068 C.ar      1 RES1    0.0000
     45 C28        2.7236    5.7083    2.2847 C.ar      1 RES1    0.0000
     46 H18        2.0581    5.6091    1.6148 H         1 RES1    0.0000
     47 C29        1.5627    9.2397    2.4347 C.ar      1 RES1    0.0000
     48 C30        0.7851   10.3787    2.1556 C.ar      1 RES1    0.0000
     49 C31        1.3335   11.5259    1.5859 C.ar      1 RES1    0.0000
     50 H19        0.8032   12.2967    1.4222 H         1 RES1    0.0000
     51 C32        2.6846   11.5016    1.2650 C.ar      1 RES1    0.0000
     52 H20        3.0851   12.2692    0.8753 H         1 RES1    0.0000
     53 C33        3.4565   10.3805    1.5033 C.ar      1 RES1    0.0000
     54 H21        4.3764   10.3828    1.2646 H         1 RES1    0.0000
     55 C34        2.9008    9.2544    2.0859 C.ar      1 RES1    0.0000
     56 H22        3.4409    8.4889    2.2473 H         1 RES1    0.0000
     57 C35       -0.6740    8.8533    3.1578 C.ar      1 RES1    0.0000
     58 C36       -0.6004   10.1221    2.5637 C.ar      1 RES1    0.0000
     59 C37       -1.7404   10.8994    2.4428 C.ar      1 RES1    0.0000
     60 H23       -1.6945   11.7488    2.0195 H         1 RES1    0.0000
     61 C38       -2.9470   10.4386    2.9381 C.ar      1 RES1    0.0000
     62 H24       -3.7247   10.9809    2.8877 H         1 RES1    0.0000
     63 C39       -3.0095    9.1798    3.5090 C.ar      1 RES1    0.0000
     64 H25       -3.8436    8.8624    3.8347 H         1 RES1    0.0000
     65 C40       -1.8943    8.3718    3.6183 C.ar      1 RES1    0.0000
     66 H26       -1.9595    7.5048    4.0003 H         1 RES1    0.0000
@<TRIPOS>BOND
     1    1    2 2
     2    2   47 1
     3    3    1 1
     4    4    3 ar
     5    5    4 1
     6    6    4 ar
     7    7    6 1
     8    8    6 ar
     9    9    8 1
    10   10    8 ar
    11   11   10 1
    12   12    3 ar
    13   13   12 1
    14   14   13 ar
    15   15   14 1
    16   16   14 ar
    17   17   16 1
    18   18   16 ar
    19   19   18 1
    20   20   18 ar
    21   21   20 1
    22   22   13 ar
    23   23   22 1
    24   24    1 1
    25   25   24 ar
    26   26   25 ar
    27   27   26 1
    28   28   26 ar
    29   29   28 1
    30   30   28 ar
    31   31   30 1
    32   32   30 ar
    33   33   32 1
    34   34   25 ar
    35   35   34 ar
    36   36   35 ar
    37   37   36 1
    38   38   36 ar
    39   39   38 1
    40   40   38 ar
    41   41   40 1
    42   42   40 ar
    43   43   42 1
    44   44   35 ar
    45   45   24 ar
    46   46   45 1
    47   47   48 ar
    48   48   49 ar
    49   49   50 1
    50   51   49 ar
    51   52   51 1
    52   53   51 ar
    53   54   53 1
    54   55   47 ar
    55   56   55 1
    56   57    2 1
    57   58   48 1
    58   59   58 ar
    59   60   59 1
    60   61   59 ar
    61   62   61 1
    62   63   61 ar
    63   64   63 1
    64   65   57 ar
    65   66   65 1
    66   10   12 ar
    67   20   22 ar
    68   32   34 ar
    69   42   44 ar
    70   44   45 ar
    71   53   55 ar
    72   57   58 ar
    73   63   65 ar
@<TRIPOS>SUBSTRUCTURE
     1 RES1 1

@<TRIPOS>CRYSIN
   9.9770   12.1660   12.8600 100.2180 107.9120 109.4370   2 1

