# MOL2 file generated by ConQuest
# Please check atom types

@<TRIPOS>MOLECULE
YINYUP
    38    43     1
SMALL
NO_CHARGES
****
Generated from CSD

@<TRIPOS>ATOM
      1 C1         3.4616    7.3531    2.8283 C.3       1 RES1    0.0000
      2 C2         2.5389    6.6058    1.8387 C.3       1 RES1    0.0000
      3 C3         2.5880    5.0903    1.4820 C.3       1 RES1    0.0000
      4 C4         2.5845    4.2405    2.7289 C.ar      1 RES1    0.0000
      5 C5         1.3088    4.4125    3.3383 C.ar      1 RES1    0.0000
      6 C6         0.5463    5.3371    2.4319 C.3       1 RES1    0.0000
      7 C7         1.1292    6.7761    2.4729 C.3       1 RES1    0.0000
      8 C8         1.4428    7.5929    3.7632 C.3       1 RES1    0.0000
      9 C9         2.2922    6.7882    4.7021 C.2       1 RES1    0.0000
     10 C10        3.4762    6.6509    4.1583 C.2       1 RES1    0.0000
     11 C11        2.5084    8.5227    3.1843 C.3       1 RES1    0.0000
     12 C12        1.1162    4.8957    1.0688 C.3       1 RES1    0.0000
     13 C13        0.9907    3.7730    4.4812 C.ar      1 RES1    0.0000
     14 C14        1.9252    2.8884    5.0809 C.ar      1 RES1    0.0000
     15 C15        1.6355    2.1619    6.2673 C.ar      1 RES1    0.0000
     16 C16        2.5370    1.2774    6.7975 C.ar      1 RES1    0.0000
     17 C17        3.7685    1.0601    6.1711 C.ar      1 RES1    0.0000
     18 C18        4.0869    1.7501    5.0276 C.ar      1 RES1    0.0000
     19 C19        3.1888    2.6764    4.4584 C.ar      1 RES1    0.0000
     20 C20        3.4926    3.3906    3.2623 C.ar      1 RES1    0.0000
     21 H1         4.3408    7.5077    2.4885 H         1 RES1    0.0000
     22 H2         2.8107    6.9864    1.0071 H         1 RES1    0.0000
     23 H3         3.3143    4.9009    0.9031 H         1 RES1    0.0000
     24 H4        -0.3857    5.3354    2.6249 H         1 RES1    0.0000
     25 H5         0.4144    7.2992    2.0986 H         1 RES1    0.0000
     26 H6         0.6640    7.9422    4.1972 H         1 RES1    0.0000
     27 H7         2.0269    6.4476    5.5422 H         1 RES1    0.0000
     28 H8         4.2174    6.2043    4.5416 H         1 RES1    0.0000
     29 H9         2.2118    9.0197    2.4235 H         1 RES1    0.0000
     30 H10        2.8712    9.1414    3.8204 H         1 RES1    0.0000
     31 H11        0.8574    5.4744    0.3574 H         1 RES1    0.0000
     32 H12        0.9093    4.0145    0.8576 H         1 RES1    0.0000
     33 H13        0.1432    3.9277    4.8860 H         1 RES1    0.0000
     34 H14        0.8028    2.3114    6.7117 H         1 RES1    0.0000
     35 H15        2.3148    0.8168    7.5888 H         1 RES1    0.0000
     36 H16        4.3824    0.4519    6.5428 H         1 RES1    0.0000
     37 H17        4.9283    1.6162    4.6131 H         1 RES1    0.0000
     38 H18        4.3306    3.2673    2.8328 H         1 RES1    0.0000
@<TRIPOS>BOND
     1    1    2 1
     2    2    3 1
     3    3    4 1
     4    4    5 ar
     5    5    6 1
     6    6    7 1
     7    7    2 1
     8    8    7 1
     9    9    8 1
    10   10    1 1
    11   11    1 1
    12   12    3 1
    13   13    5 ar
    14   14   13 ar
    15   15   14 ar
    16   16   15 ar
    17   17   16 ar
    18   18   17 ar
    19   19   14 ar
    20   20    4 ar
    21   21    1 1
    22   22    2 1
    23   23    3 1
    24   24    6 1
    25   25    7 1
    26   26    8 1
    27   27    9 1
    28   28   10 1
    29   29   11 1
    30   30   11 1
    31   31   12 1
    32   32   12 1
    33   33   13 1
    34   34   15 1
    35   35   16 1
    36   36   17 1
    37   37   18 1
    38   38   20 1
    39    6   12 1
    40    8   11 1
    41    9   10 2
    42   18   19 ar
    43   19   20 ar
@<TRIPOS>SUBSTRUCTURE
     1 RES1 1

@<TRIPOS>CRYSIN
   6.1020   17.3790    6.9600  90.0000 111.0100  90.0000   4 1

