# MOL2 file generated by ConQuest
# Please check atom types

@<TRIPOS>MOLECULE
YITJAN
    80    88     2
SMALL
NO_CHARGES
****
Generated from CSD

@<TRIPOS>ATOM
      1 C1         6.3617    5.1291    8.8512 C.ar      1 RES1    0.0000
      2 H1         7.2337    4.8592    9.0295 H         1 RES1    0.0000
      3 C2         5.6866    5.9193    9.7761 C.ar      1 RES1    0.0000
      4 H2         6.1050    6.1726   10.5665 H         1 RES1    0.0000
      5 C3         4.3962    6.3230    9.5170 C.ar      1 RES1    0.0000
      6 H3         3.9472    6.8611   10.1275 H         1 RES1    0.0000
      7 C4         3.7679    5.9290    8.3514 C.ar      1 RES1    0.0000
      8 H4         2.8920    6.1938    8.1822 H         1 RES1    0.0000
      9 C5         4.4475    5.1370    7.4326 C.ar      1 RES1    0.0000
     10 H5         4.0207    4.8713    6.6507 H         1 RES1    0.0000
     11 C6         5.7538    4.7382    7.6671 C.ar      1 RES1    0.0000
     12 C7         6.5243    3.9253    6.6722 C.ar      1 RES1    0.0000
     13 C8         6.4504    2.5806    6.6568 C.ar      1 RES1    0.0000
     14 H6         5.8517    2.1596    7.2312 H         1 RES1    0.0000
     15 C9         7.2596    1.7687    5.7872 C.ar      1 RES1    0.0000
     16 C10        7.1603    0.3825    5.7926 C.ar      1 RES1    0.0000
     17 H7         6.5276   -0.0212    6.3431 H         1 RES1    0.0000
     18 C11        7.9815   -0.4301    4.9976 C.ar      1 RES1    0.0000
     19 C12        7.9029   -1.8463    4.9876 C.ar      1 RES1    0.0000
     20 H8         7.2641   -2.2719    5.5112 H         1 RES1    0.0000
     21 C13        8.7503   -2.5913    4.2203 C.ar      1 RES1    0.0000
     22 H9         8.6885   -3.5185    4.2311 H         1 RES1    0.0000
     23 C14        9.7223   -1.9613    3.4084 C.ar      1 RES1    0.0000
     24 H10       10.2906   -2.4751    2.8825 H         1 RES1    0.0000
     25 C15        9.8271   -0.6024    3.3961 C.ar      1 RES1    0.0000
     26 H11       10.4786   -0.2002    2.8686 H         1 RES1    0.0000
     27 C16        8.9602    0.2126    4.1726 C.ar      1 RES1    0.0000
     28 C17        9.0419    1.6124    4.1488 C.ar      1 RES1    0.0000
     29 H12        9.6763    2.0201    3.6029 H         1 RES1    0.0000
     30 C18        8.2038    2.4075    4.9161 C.ar      1 RES1    0.0000
     31 C19        8.2185    3.8734    4.8569 C.ar      1 RES1    0.0000
     32 C20        9.0312    4.5838    3.9496 C.ar      1 RES1    0.0000
     33 H13        9.5846    4.1130    3.3692 H         1 RES1    0.0000
     34 C21        9.0231    5.9596    3.9043 C.ar      1 RES1    0.0000
     35 H14        9.5704    6.4061    3.2992 H         1 RES1    0.0000
     36 C22        8.2023    6.6855    4.7593 C.ar      1 RES1    0.0000
     37 H15        8.2017    7.6133    4.7262 H         1 RES1    0.0000
     38 C23        7.3927    6.0282    5.6527 C.ar      1 RES1    0.0000
     39 H16        6.8433    6.5183    6.2193 H         1 RES1    0.0000
     40 C24        7.3825    4.6211    5.7257 C.ar      1 RES1    0.0000
     41 C25       13.0023    5.2690    4.8277 C.ar      2 RES2    0.0000
     42 H17       12.1008    5.0472    4.8854 H         2 RES2    0.0000
     43 C26       13.5396    6.1750    5.7280 C.ar      2 RES2    0.0000
     44 H18       13.0038    6.5517    6.3877 H         2 RES2    0.0000
     45 C27       14.8772    6.5165    5.6396 C.ar      2 RES2    0.0000
     46 H19       15.2382    7.1402    6.2263 H         2 RES2    0.0000
     47 C28       15.6756    5.9284    4.6785 C.ar      2 RES2    0.0000
     48 H20       16.5772    6.1483    4.6278 H         2 RES2    0.0000
     49 C29       15.1389    5.0096    3.7890 C.ar      2 RES2    0.0000
     50 H21       15.6890    4.6105    3.1539 H         2 RES2    0.0000
     51 C30       13.7897    4.6805    3.8343 C.ar      2 RES2    0.0000
     52 C31       13.1770    3.7405    2.8533 C.ar      2 RES2    0.0000
     53 C32       13.4924    2.4308    2.8440 C.ar      2 RES2    0.0000
     54 H22       14.1437    2.1232    3.4322 H         2 RES2    0.0000
     55 C33       12.8597    1.4854    1.9591 C.ar      2 RES2    0.0000
     56 C34       13.2187    0.1441    1.9706 C.ar      2 RES2    0.0000
     57 H23       13.8992   -0.1365    2.5396 H         2 RES2    0.0000
     58 C35       12.5876   -0.8026    1.1518 C.ar      2 RES2    0.0000
     59 C36       12.9335   -2.1818    1.1518 C.ar      2 RES2    0.0000
     60 H24       13.6160   -2.4842    1.7069 H         2 RES2    0.0000
     61 C37       12.2784   -3.0654    0.3506 C.ar      2 RES2    0.0000
     62 H25       12.5113   -3.9644    0.3667 H         2 RES2    0.0000
     63 C38       11.2405   -2.6204   -0.5090 C.ar      2 RES2    0.0000
     64 H26       10.7961   -3.2304   -1.0541 H         2 RES2    0.0000
     65 C39       10.8942   -1.3116   -0.5397 C.ar      2 RES2    0.0000
     66 H27       10.2194   -1.0313   -1.1149 H         2 RES2    0.0000
     67 C40       11.5400   -0.3610    0.2891 C.ar      2 RES2    0.0000
     68 C41       11.1960    1.0007    0.2691 C.ar      2 RES2    0.0000
     69 H28       10.5206    1.2830   -0.3045 H         2 RES2    0.0000
     70 C42       11.8257    1.9394    1.0703 C.ar      2 RES2    0.0000
     71 C43       11.5439    3.3693    1.0157 C.ar      2 RES2    0.0000
     72 C44       10.6399    3.9201    0.0815 C.ar      2 RES2    0.0000
     73 H29       10.1683    3.3517   -0.4836 H         2 RES2    0.0000
     74 C45       10.4401    5.2756   -0.0123 C.ar      2 RES2    0.0000
     75 H30        9.8390    5.6145   -0.6366 H         2 RES2    0.0000
     76 C46       11.1358    6.1459    0.8242 C.ar      2 RES2    0.0000
     77 H31       11.0113    7.0643    0.7496 H         2 RES2    0.0000
     78 C47       12.0055    5.6430    1.7584 C.ar      2 RES2    0.0000
     79 H32       12.4622    6.2272    2.3197 H         2 RES2    0.0000
     80 C48       12.2160    4.2589    1.8806 C.ar      2 RES2    0.0000
@<TRIPOS>BOND
     1    1    2 1
     2    3    1 ar
     3    4    3 1
     4    5    3 ar
     5    6    5 1
     6    7    5 ar
     7    8    7 1
     8    9    7 ar
     9   10    9 1
    10   11    1 ar
    11   12   11 1
    12   13   12 ar
    13   14   13 1
    14   15   13 ar
    15   16   15 ar
    16   17   16 1
    17   18   16 ar
    18   19   18 ar
    19   20   19 1
    20   21   19 ar
    21   22   21 1
    22   23   21 ar
    23   24   23 1
    24   25   23 ar
    25   26   25 1
    26   27   18 ar
    27   28   27 ar
    28   29   28 1
    29   30   15 ar
    30   31   30 ar
    31   32   31 ar
    32   33   32 1
    33   34   32 ar
    34   35   34 1
    35   36   34 ar
    36   37   36 1
    37   38   36 ar
    38   39   38 1
    39   40   12 ar
    40   41   42 1
    41   43   41 ar
    42   44   43 1
    43   45   43 ar
    44   46   45 1
    45   47   45 ar
    46   48   47 1
    47   49   47 ar
    48   50   49 1
    49   51   41 ar
    50   52   51 1
    51   53   52 ar
    52   54   53 1
    53   55   53 ar
    54   56   55 ar
    55   57   56 1
    56   58   56 ar
    57   59   58 ar
    58   60   59 1
    59   61   59 ar
    60   62   61 1
    61   63   61 ar
    62   64   63 1
    63   65   63 ar
    64   66   65 1
    65   67   58 ar
    66   68   67 ar
    67   69   68 1
    68   70   55 ar
    69   71   70 ar
    70   72   71 ar
    71   73   72 1
    72   74   72 ar
    73   75   74 1
    74   76   74 ar
    75   77   76 1
    76   78   76 ar
    77   79   78 1
    78   80   52 ar
    79    9   11 ar
    80   25   27 ar
    81   28   30 ar
    82   31   40 ar
    83   38   40 ar
    84   49   51 ar
    85   65   67 ar
    86   68   70 ar
    87   71   80 ar
    88   78   80 ar
@<TRIPOS>SUBSTRUCTURE
     1 RES1 1
     2 RES2 41

@<TRIPOS>CRYSIN
  13.6150   30.3320    7.6890  90.0000  90.5610  90.0000  14 1

