# MOL2 file generated by ConQuest
# Please check atom types

@<TRIPOS>MOLECULE
YIWKAQ
    73    78     1
SMALL
NO_CHARGES
****
Generated from CSD

@<TRIPOS>ATOM
      1 C1         5.5673    0.0544   15.5980 C.ar      1 RES1    0.0000
      2 C2         5.8784    0.1329   14.2403 C.ar      1 RES1    0.0000
      3 C3         6.8537    1.0391   13.8671 C.ar      1 RES1    0.0000
      4 C4         7.5509    1.8606   14.7663 C.ar      1 RES1    0.0000
      5 C5         7.1874    1.8063   16.1015 C.ar      1 RES1    0.0000
      6 C6         6.2142    0.9001   16.4994 C.ar      1 RES1    0.0000
      7 C7         5.6760    0.6524   17.8346 C.ar      1 RES1    0.0000
      8 C8         5.9931    1.3351   19.0192 C.ar      1 RES1    0.0000
      9 C9         5.3553    0.9968   20.1994 C.ar      1 RES1    0.0000
     10 C10        4.3743    0.0000   20.1522 C.ar      1 RES1    0.0000
     11 C11        3.9964   -0.6706   18.9968 C.ar      1 RES1    0.0000
     12 C12        4.7121   -0.3383   17.8211 C.ar      1 RES1    0.0000
     13 C13        4.6160   -0.8759   16.3713 C.3       1 RES1    0.0000
     14 C14        5.1974   -0.6645   13.1523 C.3       1 RES1    0.0000
     15 C15        4.0880    0.1087   12.3768 C.3       1 RES1    0.0000
     16 C16        2.8872    0.2296   13.2737 C.ar      1 RES1    0.0000
     17 C17        2.0141   -0.9122   13.3119 C.ar      1 RES1    0.0000
     18 C18        1.1141   -1.2505   14.4179 C.ar      1 RES1    0.0000
     19 C19        1.1904   -0.3987   15.4294 C.ar      1 RES1    0.0000
     20 C20        0.8154   -0.9364   16.7444 C.ar      1 RES1    0.0000
     21 C21        1.2339   -0.2416   17.8346 C.ar      1 RES1    0.0000
     22 C22        1.7704    1.0995   17.7380 C.ar      1 RES1    0.0000
     23 C23        2.0496    1.6069   16.4747 C.ar      1 RES1    0.0000
     24 C24        1.8837    0.8639   15.3889 C.ar      1 RES1    0.0000
     25 C25        2.7612    1.2082   14.1976 C.ar      1 RES1    0.0000
     26 C26        1.4560   -0.9666   19.1249 C.3       1 RES1    0.0000
     27 C27        2.8491   -1.6613   19.0485 C.3       1 RES1    0.0000
     28 C28        8.7548    2.6822   14.2852 C.3       1 RES1    0.0000
     29 C29        8.5197    3.2803   12.8983 C.3       1 RES1    0.0000
     30 C30        9.9618    1.8002   14.2268 C.3       1 RES1    0.0000
     31 C31        9.0281    3.8481   15.2136 C.3       1 RES1    0.0000
     32 C32        5.6914    1.6432   21.5683 C.3       1 RES1    0.0000
     33 C33        6.7358    2.7305   21.4155 C.3       1 RES1    0.0000
     34 C34        6.3223    0.5860   22.4765 C.3       1 RES1    0.0000
     35 C35        4.4156    2.1929   22.2449 C.3       1 RES1    0.0000
     36 H1         7.0958    1.1424   12.8713 H         1 RES1    0.0000
     37 H2         7.6586    2.3995   16.8186 H         1 RES1    0.0000
     38 H3         6.7041    2.0847   19.0170 H         1 RES1    0.0000
     39 H4         3.9291   -0.2531   21.0064 H         1 RES1    0.0000
     40 H5         3.6696   -0.9424   15.9891 H         1 RES1    0.0000
     41 H6         4.8658   -1.8848   16.2903 H         1 RES1    0.0000
     42 H7         4.7248   -1.4800   13.5479 H         1 RES1    0.0000
     43 H8         5.8279   -1.0880   12.5274 H         1 RES1    0.0000
     44 H9         4.5079    1.0010   12.2037 H         1 RES1    0.0000
     45 H10        3.9146   -0.2664   11.5338 H         1 RES1    0.0000
     46 H11        2.0053   -1.5006   12.5319 H         1 RES1    0.0000
     47 H12        0.5126   -2.0425   14.4313 H         1 RES1    0.0000
     48 H13        0.2290   -1.8020   16.8231 H         1 RES1    0.0000
     49 H14        1.9092    1.6299   18.5022 H         1 RES1    0.0000
     50 H15        2.3909    2.5729   16.4432 H         1 RES1    0.0000
     51 H16        3.2326    2.1639   14.0874 H         1 RES1    0.0000
     52 H17        0.7071   -1.5586   19.3407 H         1 RES1    0.0000
     53 H18        1.4753   -0.3232   19.8779 H         1 RES1    0.0000
     54 H19        2.8011   -2.1947   18.1606 H         1 RES1    0.0000
     55 H20        2.9072   -2.3608   19.6981 H         1 RES1    0.0000
     56 H21        7.7578    3.8493   12.9298 H         1 RES1    0.0000
     57 H22        8.3314    2.5632   12.2779 H         1 RES1    0.0000
     58 H23        9.2609    3.7744   12.5566 H         1 RES1    0.0000
     59 H24        9.8559    1.0366   13.7030 H         1 RES1    0.0000
     60 H25       10.7994    2.2376   13.9750 H         1 RES1    0.0000
     61 H26       10.1794    1.4541   15.1619 H         1 RES1    0.0000
     62 H27        9.8864    4.3797   14.9843 H         1 RES1    0.0000
     63 H28        9.2459    3.5690   16.1420 H         1 RES1    0.0000
     64 H29        8.3650    4.4969   15.2653 H         1 RES1    0.0000
     65 H30        6.4236    3.4488   20.8041 H         1 RES1    0.0000
     66 H31        7.5736    2.4236   20.9816 H         1 RES1    0.0000
     67 H32        7.0206    3.1915   22.2135 H         1 RES1    0.0000
     68 H33        7.1141    0.1661   22.0876 H         1 RES1    0.0000
     69 H34        6.5834    0.8868   23.3554 H         1 RES1    0.0000
     70 H35        5.6894   -0.1468   22.6203 H         1 RES1    0.0000
     71 H36        4.6275    2.6399   23.1104 H         1 RES1    0.0000
     72 H37        3.8108    1.5247   22.4068 H         1 RES1    0.0000
     73 H38        4.0378    2.8864   21.6965 H         1 RES1    0.0000
@<TRIPOS>BOND
     1    1    2 ar
     2    2    3 ar
     3    3    4 ar
     4    4    5 ar
     5    5    6 ar
     6    6    1 ar
     7    7    6 1
     8    8    7 ar
     9    9    8 ar
    10   10    9 ar
    11   11   10 ar
    12   12    7 ar
    13   13    1 1
    14   14    2 1
    15   15   14 1
    16   16   15 1
    17   17   16 ar
    18   18   17 ar
    19   19   18 ar
    20   20   19 ar
    21   21   20 ar
    22   22   21 ar
    23   23   22 ar
    24   24   19 ar
    25   25   16 ar
    26   26   21 1
    27   27   11 1
    28   28    4 1
    29   29   28 1
    30   30   28 1
    31   31   28 1
    32   32    9 1
    33   33   32 1
    34   34   32 1
    35   35   32 1
    36   36    3 1
    37   37    5 1
    38   38    8 1
    39   39   10 1
    40   40   13 1
    41   41   13 1
    42   42   14 1
    43   43   14 1
    44   44   15 1
    45   45   15 1
    46   46   17 1
    47   47   18 1
    48   48   20 1
    49   49   22 1
    50   50   23 1
    51   51   25 1
    52   52   26 1
    53   53   26 1
    54   54   27 1
    55   55   27 1
    56   56   29 1
    57   57   29 1
    58   58   29 1
    59   59   30 1
    60   60   30 1
    61   61   30 1
    62   62   31 1
    63   63   31 1
    64   64   31 1
    65   65   33 1
    66   66   33 1
    67   67   33 1
    68   68   34 1
    69   69   34 1
    70   70   34 1
    71   71   35 1
    72   72   35 1
    73   73   35 1
    74   11   12 ar
    75   12   13 1
    76   23   24 ar
    77   24   25 ar
    78   26   27 1
@<TRIPOS>SUBSTRUCTURE
     1 RES1 1

@<TRIPOS>CRYSIN
  19.8400    6.0410   23.5800  90.0000 107.5800  90.0000 231 1

