# MOL2 file generated by ConQuest
# Please check atom types

@<TRIPOS>MOLECULE
YIWMIC
    54    58     1
SMALL
NO_CHARGES
****
Generated from CSD

@<TRIPOS>ATOM
      1 C1         3.8461   -3.5753    3.4555 C.ar      1 RES1    0.0000
      2 C2         3.3333   -2.3675    2.9283 C.ar      1 RES1    0.0000
      3 H1         3.4285   -1.5708    3.4180 H         1 RES1    0.0000
      4 C3         2.7042   -2.3403    1.7241 C.ar      1 RES1    0.0000
      5 H2         2.3623   -1.5293    1.3941 H         1 RES1    0.0000
      6 C4         2.5612   -3.5177    0.9666 C.ar      1 RES1    0.0000
      7 H3         2.1420   -3.4866    0.1257 H         1 RES1    0.0000
      8 C5         3.0278   -4.6996    1.4467 C.ar      1 RES1    0.0000
      9 H4         2.9207   -5.4802    0.9345 H         1 RES1    0.0000
     10 C6         3.6746   -4.7747    2.7074 C.ar      1 RES1    0.0000
     11 C7         4.1465   -5.9910    3.2404 C.ar      1 RES1    0.0000
     12 H5         4.0176   -6.7882    2.7590 H         1 RES1    0.0000
     13 C8         4.7859   -6.0313    4.4399 C.ar      1 RES1    0.0000
     14 H6         5.0878   -6.8544    4.7791 H         1 RES1    0.0000
     15 C9         4.9996   -4.8521    5.1764 C.ar      1 RES1    0.0000
     16 H7         5.4602   -4.8894    5.9942 H         1 RES1    0.0000
     17 C10        4.5354   -3.6368    4.7048 C.ar      1 RES1    0.0000
     18 C11        4.7397   -2.4316    5.4597 C.1       1 RES1    0.0000
     19 C12        4.8775   -1.4015    6.0559 C.1       1 RES1    0.0000
     20 C13        5.0409   -0.1797    6.7824 C.ar      1 RES1    0.0000
     21 C14        5.7195   -0.1518    7.9970 C.ar      1 RES1    0.0000
     22 H8         6.0810   -0.9542    8.3279 H         1 RES1    0.0000
     23 C15        5.8854    1.0055    8.7385 C.ar      1 RES1    0.0000
     24 C16        5.3502    2.2036    8.2478 C.ar      1 RES1    0.0000
     25 C17        4.6943    2.1941    7.0277 C.ar      1 RES1    0.0000
     26 H9         4.3519    3.0023    6.6925 H         1 RES1    0.0000
     27 C18        4.5243    1.0339    6.2787 C.ar      1 RES1    0.0000
     28 C19        3.8315    1.0888    5.0132 C.1       1 RES1    0.0000
     29 C20        3.2653    1.2055    3.9696 C.1       1 RES1    0.0000
     30 C21        2.5190    1.3793    2.7413 C.ar      1 RES1    0.0000
     31 C22        3.1034    1.9077    1.6251 C.ar      1 RES1    0.0000
     32 H10        4.0199    2.1169    1.6366 H         1 RES1    0.0000
     33 C23        2.3504    2.1446    0.4526 C.ar      1 RES1    0.0000
     34 H11        2.7663    2.5137   -0.3047 H         1 RES1    0.0000
     35 C24        1.0182    1.8374    0.4190 C.ar      1 RES1    0.0000
     36 H12        0.5210    2.0066   -0.3606 H         1 RES1    0.0000
     37 C25        0.3837    1.2700    1.5409 C.ar      1 RES1    0.0000
     38 C26       -0.9829    0.9146    1.5427 C.ar      1 RES1    0.0000
     39 H13       -1.4924    1.0563    0.7656 H         1 RES1    0.0000
     40 C27       -1.5835    0.3746    2.6333 C.ar      1 RES1    0.0000
     41 H14       -2.4952    0.1480    2.6067 H         1 RES1    0.0000
     42 C28       -0.8440    0.1552    3.7921 C.ar      1 RES1    0.0000
     43 H15       -1.2649   -0.2124    4.5480 H         1 RES1    0.0000
     44 C29        0.4782    0.4668    3.8458 C.ar      1 RES1    0.0000
     45 H16        0.9613    0.3045    4.6356 H         1 RES1    0.0000
     46 C30        1.1392    1.0334    2.7264 C.ar      1 RES1    0.0000
     47 C31        6.6324    0.9513   10.0504 C.3       1 RES1    0.0000
     48 H17        6.9746    0.0545   10.1905 H         1 RES1    0.0000
     49 H18        6.0311    1.1847   10.7746 H         1 RES1    0.0000
     50 H19        7.3710    1.5799   10.0280 H         1 RES1    0.0000
     51 C32        5.4684    3.4917    9.0304 C.3       1 RES1    0.0000
     52 H20        5.0422    4.2098    8.5374 H         1 RES1    0.0000
     53 H21        6.4057    3.7037    9.1646 H         1 RES1    0.0000
     54 H22        5.0352    3.3875    9.8922 H         1 RES1    0.0000
@<TRIPOS>BOND
     1    1    2 ar
     2    2    3 1
     3    4    2 ar
     4    5    4 1
     5    6    4 ar
     6    7    6 1
     7    8    6 ar
     8    9    8 1
     9   10    1 ar
    10   11   10 ar
    11   12   11 1
    12   13   11 ar
    13   14   13 1
    14   15   13 ar
    15   16   15 1
    16   17    1 ar
    17   18   17 1
    18   19   18 3
    19   20   19 1
    20   21   20 ar
    21   22   21 1
    22   23   21 ar
    23   24   23 ar
    24   25   24 ar
    25   26   25 1
    26   27   20 ar
    27   28   27 1
    28   29   28 3
    29   30   29 1
    30   31   30 ar
    31   32   31 1
    32   33   31 ar
    33   34   33 1
    34   35   33 ar
    35   36   35 1
    36   37   35 ar
    37   38   37 ar
    38   39   38 1
    39   40   38 ar
    40   41   40 1
    41   42   40 ar
    42   43   42 1
    43   44   42 ar
    44   45   44 1
    45   46   30 ar
    46   47   23 1
    47   48   47 1
    48   49   47 1
    49   50   47 1
    50   51   24 1
    51   52   51 1
    52   53   51 1
    53   54   51 1
    54    8   10 ar
    55   15   17 ar
    56   25   27 ar
    57   37   46 ar
    58   44   46 ar
@<TRIPOS>SUBSTRUCTURE
     1 RES1 1

@<TRIPOS>CRYSIN
   8.1726   11.0699   13.3109 101.7950  99.3070 104.4910   2 1

