# MOL2 file generated by ConQuest
# Please check atom types

@<TRIPOS>MOLECULE
YONRUP
    32    34     1
SMALL
NO_CHARGES
****
Generated from CSD

@<TRIPOS>ATOM
      1 C1         2.0767    1.4279    6.9433 C.ar      1 RES1    0.0000
      2 H1         2.8235    1.7143    7.4172 H         1 RES1    0.0000
      3 C2         1.9807    1.7217    5.6287 C.ar      1 RES1    0.0000
      4 H2         2.6502    2.2155    5.2143 H         1 RES1    0.0000
      5 C3         0.8699    1.2831    4.8853 C.ar      1 RES1    0.0000
      6 H3         0.8257    1.4658    3.9751 H         1 RES1    0.0000
      7 C4        -0.1317    0.6016    5.4770 C.ar      1 RES1    0.0000
      8 H4        -0.8636    0.3350    4.9685 H         1 RES1    0.0000
      9 C5        -0.0928    0.2791    6.8715 C.ar      1 RES1    0.0000
     10 C6         1.0622    0.6894    7.6249 C.ar      1 RES1    0.0000
     11 C7         1.1445    0.3885    8.9965 C.ar      1 RES1    0.0000
     12 C8         2.3543    0.7489    9.7631 C.2       1 RES1    0.0000
     13 H5         2.2794    1.4616   10.3560 H         1 RES1    0.0000
     14 C9         3.5003    0.1745    9.6914 C.2       1 RES1    0.0000
     15 H6         3.6248   -0.5432    9.1135 H         1 RES1    0.0000
     16 H7         4.2050    0.4757   10.2174 H         1 RES1    0.0000
     17 C1D       -2.0767   -1.4279    9.5577 C.ar      1 RES1    0.0000
     18 H1D       -2.8235   -1.7143    9.0838 H         1 RES1    0.0000
     19 C2D       -1.9807   -1.7217   10.8723 C.ar      1 RES1    0.0000
     20 H2D       -2.6502   -2.2155   11.2867 H         1 RES1    0.0000
     21 C3D       -0.8699   -1.2831   11.6157 C.ar      1 RES1    0.0000
     22 H3D       -0.8257   -1.4658   12.5259 H         1 RES1    0.0000
     23 C4D        0.1317   -0.6016   11.0240 C.ar      1 RES1    0.0000
     24 H4D        0.8636   -0.3350   11.5325 H         1 RES1    0.0000
     25 C5D        0.0928   -0.2791    9.6295 C.ar      1 RES1    0.0000
     26 C6D       -1.0622   -0.6894    8.8761 C.ar      1 RES1    0.0000
     27 C7D       -1.1445   -0.3885    7.5045 C.ar      1 RES1    0.0000
     28 C8D       -2.3543   -0.7489    6.7379 C.2       1 RES1    0.0000
     29 H5D       -2.2794   -1.4616    6.1450 H         1 RES1    0.0000
     30 C9D       -3.5003   -0.1745    6.8096 C.2       1 RES1    0.0000
     31 H6D       -3.6248    0.5432    7.3875 H         1 RES1    0.0000
     32 H7D       -4.2050   -0.4757    6.2836 H         1 RES1    0.0000
@<TRIPOS>BOND
     1    1    2 1
     2    3    1 ar
     3    4    3 1
     4    5    3 ar
     5    6    5 1
     6    7    5 ar
     7    8    7 1
     8    9    7 ar
     9   10    1 ar
    10   11   10 ar
    11   12   11 1
    12   13   12 1
    13   14   12 2
    14   15   14 1
    15   16   14 1
    16   17   18 1
    17   19   17 ar
    18   20   19 1
    19   21   19 ar
    20   22   21 1
    21   23   21 ar
    22   24   23 1
    23   25   11 ar
    24   26   17 ar
    25   27    9 ar
    26   28   27 1
    27   29   28 1
    28   30   28 2
    29   31   30 1
    30   32   30 1
    31    9   10 ar
    32   23   25 ar
    33   25   26 ar
    34   26   27 ar
@<TRIPOS>SUBSTRUCTURE
     1 RES1 1

@<TRIPOS>CRYSIN
   9.0236    8.2300   16.5010  90.0000  90.0000  90.0000  61 1

