# MOL2 file generated by ConQuest
# Please check atom types

@<TRIPOS>MOLECULE
YOSNUR
    63    66     1
SMALL
NO_CHARGES
****
Generated from CSD

@<TRIPOS>ATOM
      1 C1         0.0102    0.8218    6.8937 C.ar      1 RES1    0.0000
      2 C2        -1.0916    1.1368    6.1822 C.ar      1 RES1    0.0000
      3 H1        -1.1961    0.7737    5.3100 H         1 RES1    0.0000
      4 C3        -2.0935    1.9899    6.6969 C.ar      1 RES1    0.0000
      5 H2        -2.8513    2.1820    6.1564 H         1 RES1    0.0000
      6 C4        -2.0165    2.5406    7.9221 C.ar      1 RES1    0.0000
      7 C5        -0.8799    2.2343    8.7649 C.ar      1 RES1    0.0000
      8 C6        -0.6795    2.7560   10.1048 C.ar      1 RES1    0.0000
      9 C7         0.4576    2.3765   10.8117 C.ar      1 RES1    0.0000
     10 H3         0.5931    2.7210   11.6866 H         1 RES1    0.0000
     11 C8         1.4001    1.5094   10.2744 C.ar      1 RES1    0.0000
     12 H4         2.1583    1.2570   10.7895 H         1 RES1    0.0000
     13 C9         1.2416    1.0218    9.0184 C.ar      1 RES1    0.0000
     14 H5         1.8968    0.4344    8.6608 H         1 RES1    0.0000
     15 C10        0.1255    1.3688    8.2342 C.ar      1 RES1    0.0000
     16 C11        1.1120   -0.0543    6.3475 C.3       1 RES1    0.0000
     17 H6         1.9546    0.4656    6.3529 H         1 RES1    0.0000
     18 H7         1.2321   -0.8219    6.9616 H         1 RES1    0.0000
     19 C12        0.8939   -0.5891    4.9565 C.2       1 RES1    0.0000
     20 H8         0.4097   -1.4038    4.8978 H         1 RES1    0.0000
     21 C13        1.2932   -0.0668    3.7967 C.2       1 RES1    0.0000
     22 C14        2.0270    1.2498    3.6951 C.3       1 RES1    0.0000
     23 H9         2.2218    1.5527    4.6284 H         1 RES1    0.0000
     24 C15        1.1437    2.3212    3.0449 C.3       1 RES1    0.0000
     25 H10        0.8753    2.0193    2.1414 H         1 RES1    0.0000
     26 H11        0.3213    2.4372    3.5854 H         1 RES1    0.0000
     27 C16        1.8623    3.6499    2.9371 C.3       1 RES1    0.0000
     28 H12        2.0497    3.9971    3.8438 H         1 RES1    0.0000
     29 H13        1.2778    4.3018    2.4743 H         1 RES1    0.0000
     30 C17        3.1666    3.5132    2.1699 C.3       1 RES1    0.0000
     31 H14        2.9762    3.2333    1.2411 H         1 RES1    0.0000
     32 H15        3.6248    4.3902    2.1382 H         1 RES1    0.0000
     33 C18        4.0660    2.5005    2.8262 C.3       1 RES1    0.0000
     34 H16        4.3265    2.8261    3.7233 H         1 RES1    0.0000
     35 H17        4.8899    2.3970    2.2872 H         1 RES1    0.0000
     36 C19        3.3744    1.1440    2.9593 C.3       1 RES1    0.0000
     37 H18        3.9672    0.5247    3.4554 H         1 RES1    0.0000
     38 H19        3.2239    0.7644    2.0574 H         1 RES1    0.0000
     39 C20        0.9975   -0.7946    2.4806 C.3       1 RES1    0.0000
     40 H20        1.2443   -0.1660    1.7436 H         1 RES1    0.0000
     41 C21        1.8674   -2.0423    2.3047 C.3       1 RES1    0.0000
     42 H21        2.8230   -1.7884    2.3617 H         1 RES1    0.0000
     43 H22        1.6769   -2.6822    3.0354 H         1 RES1    0.0000
     44 C22        1.6004   -2.7120    0.9605 C.3       1 RES1    0.0000
     45 H23        2.1379   -3.5398    0.8940 H         1 RES1    0.0000
     46 H24        1.8809   -2.1051    0.2298 H         1 RES1    0.0000
     47 C23        0.1068   -3.0573    0.7925 C.3       1 RES1    0.0000
     48 H25       -0.0453   -3.4349   -0.1094 H         1 RES1    0.0000
     49 H26       -0.1510   -3.7423    1.4598 H         1 RES1    0.0000
     50 C24       -0.7540   -1.8236    0.9748 C.3       1 RES1    0.0000
     51 H27       -1.7082   -2.0838    0.9399 H         1 RES1    0.0000
     52 H28       -0.5830   -1.1936    0.2314 H         1 RES1    0.0000
     53 C25       -0.4745   -1.1198    2.3015 C.3       1 RES1    0.0000
     54 H29       -0.9992   -0.2815    2.3411 H         1 RES1    0.0000
     55 H30       -0.7715   -1.7005    3.0465 H         1 RES1    0.0000
     56 C26       -3.1463    3.4821    8.2867 C.3       1 RES1    0.0000
     57 H31       -3.7384    3.5967    7.5148 H         1 RES1    0.0000
     58 H32       -2.7757    4.3522    8.5466 H         1 RES1    0.0000
     59 H33       -3.6547    3.1074    9.0364 H         1 RES1    0.0000
     60 C27       -1.6423    3.6484   10.8133 C.3       1 RES1    0.0000
     61 H34       -1.3199    3.8201   11.7231 H         1 RES1    0.0000
     62 H35       -2.5200    3.2145   10.8545 H         1 RES1    0.0000
     63 H36       -1.7196    4.4966   10.3283 H         1 RES1    0.0000
@<TRIPOS>BOND
     1    1    2 ar
     2    2    3 1
     3    4    2 ar
     4    5    4 1
     5    6    4 ar
     6    7    6 ar
     7    8    7 ar
     8    9    8 ar
     9   10    9 1
    10   11    9 ar
    11   12   11 1
    12   13   11 ar
    13   14   13 1
    14   15    1 ar
    15   16    1 1
    16   17   16 1
    17   18   16 1
    18   19   16 1
    19   20   19 1
    20   21   19 2
    21   22   21 1
    22   23   22 1
    23   24   22 1
    24   25   24 1
    25   26   24 1
    26   27   24 1
    27   28   27 1
    28   29   27 1
    29   30   27 1
    30   31   30 1
    31   32   30 1
    32   33   30 1
    33   34   33 1
    34   35   33 1
    35   36   22 1
    36   37   36 1
    37   38   36 1
    38   39   21 1
    39   40   39 1
    40   41   39 1
    41   42   41 1
    42   43   41 1
    43   44   41 1
    44   45   44 1
    45   46   44 1
    46   47   44 1
    47   48   47 1
    48   49   47 1
    49   50   47 1
    50   51   50 1
    51   52   50 1
    52   53   39 1
    53   54   53 1
    54   55   53 1
    55   56    6 1
    56   57   56 1
    57   58   56 1
    58   59   56 1
    59   60    8 1
    60   61   60 1
    61   62   60 1
    62   63   60 1
    63    7   15 ar
    64   13   15 ar
    65   33   36 1
    66   50   53 1
@<TRIPOS>SUBSTRUCTURE
     1 RES1 1

@<TRIPOS>CRYSIN
   7.0036    9.7327   15.9499  93.3020  95.1310  95.4770   2 1

