# MOL2 file generated by ConQuest
# Please check atom types

@<TRIPOS>MOLECULE
YOSYUC01
    46    51     1
SMALL
NO_CHARGES
****
Generated from CSD

@<TRIPOS>ATOM
      1 C1        12.3730    2.4461    0.2815 C.ar      1 RES1    0.0000
      2 C2        11.7050    2.2342   -0.8803 C.ar      1 RES1    0.0000
      3 H1        12.0075    2.5943   -1.7159 H         1 RES1    0.0000
      4 C3        10.4987    1.4502   -0.8833 C.ar      1 RES1    0.0000
      5 C4         9.7938    1.2439   -2.0869 C.ar      1 RES1    0.0000
      6 H2        10.2004    1.6535   -2.9271 H         1 RES1    0.0000
      7 C5         8.6160    0.5322   -2.1125 C.ar      1 RES1    0.0000
      8 H3         8.1259    0.3991   -2.9834 H         1 RES1    0.0000
      9 C6         8.1132   -0.0067   -0.9296 C.ar      1 RES1    0.0000
     10 H4         7.2561   -0.5227   -0.9696 H         1 RES1    0.0000
     11 C7         8.7860    0.1492    0.2575 C.ar      1 RES1    0.0000
     12 H5         8.3640   -0.2851    1.1616 H         1 RES1    0.0000
     13 C8         9.9879    0.8676    0.3174 C.ar      1 RES1    0.0000
     14 C9        10.7457    1.0539    1.5460 C.ar      1 RES1    0.0000
     15 C10       11.8761    1.8360    1.4743 C.ar      1 RES1    0.0000
     16 C11       12.7152    2.1496    2.5538 C.ar      1 RES1    0.0000
     17 C12       13.7925    3.0220    2.0195 C.ar      1 RES1    0.0000
     18 C13       13.5913    3.1845    0.6643 C.ar      1 RES1    0.0000
     19 C14       10.4414    0.5274    2.8296 C.ar      1 RES1    0.0000
     20 H6         9.6758   -0.0855    2.9453 H         1 RES1    0.0000
     21 C15       11.2601    0.8163    3.9009 C.ar      1 RES1    0.0000
     22 H7        11.0356    0.4086    4.7787 H         1 RES1    0.0000
     23 C16       12.3923    1.6374    3.7960 C.ar      1 RES1    0.0000
     24 H8        12.9841    1.8056    4.6198 H         1 RES1    0.0000
     25 C17       14.4324    3.9038   -0.3055 C.ar      1 RES1    0.0000
     26 C18       15.8115    3.6853   -0.3513 C.ar      1 RES1    0.0000
     27 H9        16.2164    3.0695    0.2730 H         1 RES1    0.0000
     28 C19       16.6065    4.3400   -1.2756 C.ar      1 RES1    0.0000
     29 H10       17.5650    4.2098   -1.2327 H         1 RES1    0.0000
     30 C20       16.0335    5.2362   -2.1612 C.ar      1 RES1    0.0000
     31 H11       16.6019    5.6733   -2.7749 H         1 RES1    0.0000
     32 C21       14.6795    5.4557   -2.1415 C.ar      1 RES1    0.0000
     33 H12       14.2516    6.1199   -2.7550 H         1 RES1    0.0000
     34 C22       13.8788    4.7895   -1.2218 C.ar      1 RES1    0.0000
     35 H13       12.9005    4.9701   -1.2063 H         1 RES1    0.0000
     36 C23       14.8053    3.6682    2.8700 C.ar      1 RES1    0.0000
     37 C24       15.4138    2.9725    3.9307 C.ar      1 RES1    0.0000
     38 H14       15.1940    2.0431    4.0374 H         1 RES1    0.0000
     39 C25       16.2786    3.6244    4.7926 C.ar      1 RES1    0.0000
     40 H15       16.7248    3.1740    5.5200 H         1 RES1    0.0000
     41 C26       16.5568    4.9739    4.6324 C.ar      1 RES1    0.0000
     42 H16       17.1590    5.4262    5.2949 H         1 RES1    0.0000
     43 C27       15.9658    5.6590    3.5857 C.ar      1 RES1    0.0000
     44 H17       16.1421    6.6046    3.4533 H         1 RES1    0.0000
     45 C28       15.1110    5.0195    2.7130 C.ar      1 RES1    0.0000
     46 H18       14.6450    5.5117    2.0005 H         1 RES1    0.0000
@<TRIPOS>BOND
     1    1    2 ar
     2    2    3 1
     3    4    2 ar
     4    5    4 ar
     5    6    5 1
     6    7    5 ar
     7    8    7 1
     8    9    7 ar
     9   10    9 1
    10   11    9 ar
    11   12   11 1
    12   13    4 ar
    13   14   13 ar
    14   15    1 ar
    15   16   15 ar
    16   17   16 ar
    17   18    1 ar
    18   19   14 ar
    19   20   19 1
    20   21   19 ar
    21   22   21 1
    22   23   16 ar
    23   24   23 1
    24   25   18 1
    25   26   25 ar
    26   27   26 1
    27   28   26 ar
    28   29   28 1
    29   30   28 ar
    30   31   30 1
    31   32   30 ar
    32   33   32 1
    33   34   25 ar
    34   35   34 1
    35   36   17 1
    36   37   36 ar
    37   38   37 1
    38   39   37 ar
    39   40   39 1
    40   41   39 ar
    41   42   41 1
    42   43   41 ar
    43   44   43 1
    44   45   36 ar
    45   46   45 1
    46   11   13 ar
    47   14   15 ar
    48   17   18 ar
    49   21   23 ar
    50   32   34 ar
    51   43   45 ar
@<TRIPOS>SUBSTRUCTURE
     1 RES1 1

@<TRIPOS>CRYSIN
  11.8050    9.5030   16.5733  90.0000  93.2490  90.0000  14 1

