# MOL2 file generated by ConQuest
# Please check atom types

@<TRIPOS>MOLECULE
YOSZIR
    88    96     1
SMALL
NO_CHARGES
****
Generated from CSD

@<TRIPOS>ATOM
      1 C1        -0.7945   11.5244    2.3598 C.3       1 RES1    0.0000
      2 H1         0.0287   11.9826    2.6307 H         1 RES1    0.0000
      3 H2        -1.3553   12.1392    1.8432 H         1 RES1    0.0000
      4 H3        -0.5688   10.7468    1.8088 H         1 RES1    0.0000
      5 C2        -1.5550   11.0645    3.6039 C.3       1 RES1    0.0000
      6 H4        -1.8258   11.8873    4.1025 H         1 RES1    0.0000
      7 C3        -0.6441   10.2623    4.5255 C.ar      1 RES1    0.0000
      8 C4         0.5049   10.8658    5.0292 C.ar      1 RES1    0.0000
      9 H5         0.7009   11.7619    4.7843 H         1 RES1    0.0000
     10 C5         1.3720   10.1913    5.8802 C.ar      1 RES1    0.0000
     11 C6         2.5855   10.8375    6.4112 C.ar      1 RES1    0.0000
     12 C7         2.9573   10.8330    7.8546 C.ar      1 RES1    0.0000
     13 C8         4.1439   11.6255    7.9198 C.ar      1 RES1    0.0000
     14 C9         4.9346   11.6353    9.0170 C.ar      1 RES1    0.0000
     15 C10        6.3333   11.7577    8.8618 C.ar      1 RES1    0.0000
     16 C11        6.9374   10.9918    9.8965 C.ar      1 RES1    0.0000
     17 C12        8.1753   10.4017    9.7460 C.ar      1 RES1    0.0000
     18 C13        8.4320    9.2769   10.6177 C.ar      1 RES1    0.0000
     19 H6         9.3161    8.9348   10.6798 H         1 RES1    0.0000
     20 C14        7.4384    8.6905   11.3558 C.ar      1 RES1    0.0000
     21 H7         7.6497    7.9539   11.9166 H         1 RES1    0.0000
     22 C15        6.0682    9.1695   11.3010 C.ar      1 RES1    0.0000
     23 C16        5.8976   10.3820   10.6648 C.ar      1 RES1    0.0000
     24 C17        4.6507   10.7618   10.0927 C.ar      1 RES1    0.0000
     25 C18        3.5555    9.9086   10.0602 C.ar      1 RES1    0.0000
     26 C19        2.6412   10.0245    8.9356 C.ar      1 RES1    0.0000
     27 H8         1.8218    9.5432    8.9410 H         1 RES1    0.0000
     28 C20        3.5810   11.4592    5.6874 C.ar      1 RES1    0.0000
     29 C21        4.6582   11.8938    6.6220 C.ar      1 RES1    0.0000
     30 C22        6.0243   12.0611    6.4668 C.ar      1 RES1    0.0000
     31 H9         6.3815   12.2777    5.6141 H         1 RES1    0.0000
     32 C23        6.9137   11.9056    7.6075 C.ar      1 RES1    0.0000
     33 C24        8.8907   10.7802    8.5574 C.ar      1 RES1    0.0000
     34 H10        9.8033   10.5318    8.4707 H         1 RES1    0.0000
     35 C25        8.2933   11.4913    7.5418 C.ar      1 RES1    0.0000
     36 H11        8.8061   11.7159    6.7742 H         1 RES1    0.0000
     37 C26        3.7420   11.5613    4.2233 C.ar      1 RES1    0.0000
     38 C27        4.3066   12.7187    3.6780 C.ar      1 RES1    0.0000
     39 H12        4.5413   13.4361    4.2545 H         1 RES1    0.0000
     40 C28        4.5310   12.8425    2.3154 C.ar      1 RES1    0.0000
     41 C29        4.2126   11.7608    1.4911 C.ar      1 RES1    0.0000
     42 H13        4.3716   11.8297    0.5576 H         1 RES1    0.0000
     43 C30        3.6698   10.5858    1.9984 C.ar      1 RES1    0.0000
     44 C31        3.4206   10.5033    3.3658 C.ar      1 RES1    0.0000
     45 H14        3.0263    9.7159    3.7220 H         1 RES1    0.0000
     46 C32        3.3865    9.4089    1.0755 C.3       1 RES1    0.0000
     47 H15        3.7615    9.6345    0.1757 H         1 RES1    0.0000
     48 C33        4.0818    8.1383    1.5567 C.3       1 RES1    0.0000
     49 H16        5.0371    8.3166    1.6820 H         1 RES1    0.0000
     50 H17        3.9666    7.4300    0.8892 H         1 RES1    0.0000
     51 H18        3.6880    7.8524    2.4074 H         1 RES1    0.0000
     52 C34        1.8846    9.1836    0.9045 C.3       1 RES1    0.0000
     53 H19        1.4806    9.0003    1.7784 H         1 RES1    0.0000
     54 H20        1.7350    8.4206    0.3092 H         1 RES1    0.0000
     55 H21        1.4760    9.9858    0.5179 H         1 RES1    0.0000
     56 C35        5.1383   14.1138    1.7434 C.3       1 RES1    0.0000
     57 H22        5.2627   14.7568    2.4998 H         1 RES1    0.0000
     58 C36        4.2242   14.7786    0.7184 C.3       1 RES1    0.0000
     59 H23        4.1652   14.2149   -0.0806 H         1 RES1    0.0000
     60 H24        4.5903   15.6546    0.4730 H         1 RES1    0.0000
     61 H25        3.3309   14.8939    1.1046 H         1 RES1    0.0000
     62 C37        6.5102   13.8497    1.1321 C.3       1 RES1    0.0000
     63 H26        7.0978   13.4511    1.8075 H         1 RES1    0.0000
     64 H27        6.8976   14.6948    0.8205 H         1 RES1    0.0000
     65 H28        6.4178   13.2339    0.3752 H         1 RES1    0.0000
     66 C38        1.0661    8.8698    6.2318 C.ar      1 RES1    0.0000
     67 H29        1.6569    8.3937    6.8032 H         1 RES1    0.0000
     68 C39       -0.0763    8.2417    5.7672 C.ar      1 RES1    0.0000
     69 C40       -0.3668    6.8156    6.2315 C.3       1 RES1    0.0000
     70 H30        0.4413    6.2678    6.0158 H         1 RES1    0.0000
     71 C41       -1.5408    6.1577    5.5455 C.3       1 RES1    0.0000
     72 H31       -2.3636    6.6378    5.7753 H         1 RES1    0.0000
     73 H32       -1.6125    5.2261    5.8413 H         1 RES1    0.0000
     74 H33       -1.4082    6.1831    4.5742 H         1 RES1    0.0000
     75 C42       -0.5404    6.7742    7.7560 C.3       1 RES1    0.0000
     76 H34       -1.3230    7.3065    8.0109 H         1 RES1    0.0000
     77 H35        0.2595    7.1435    8.1866 H         1 RES1    0.0000
     78 H36       -0.6674    5.8469    8.0452 H         1 RES1    0.0000
     79 C43       -0.9247    8.9468    4.9083 C.ar      1 RES1    0.0000
     80 H37       -1.7080    8.5230    4.5782 H         1 RES1    0.0000
     81 C44       -2.8382   10.3367    3.2087 C.3       1 RES1    0.0000
     82 H38       -2.6127    9.5243    2.7099 H         1 RES1    0.0000
     83 H39       -3.3864   10.9236    2.6465 H         1 RES1    0.0000
     84 H40       -3.3388   10.0961    4.0153 H         1 RES1    0.0000
     85 C45        3.6722    8.7648   10.9334 C.ar      1 RES1    0.0000
     86 H41        2.9036    8.2338   11.1040 H         1 RES1    0.0000
     87 C46        4.8640    8.4222   11.5259 C.ar      1 RES1    0.0000
     88 H42        4.8915    7.6679   12.1015 H         1 RES1    0.0000
@<TRIPOS>BOND
     1    1    2 1
     2    3    1 1
     3    4    1 1
     4    5    1 1
     5    6    5 1
     6    7    5 1
     7    8    7 ar
     8    9    8 1
     9   10    8 ar
    10   11   10 1
    11   12   11 ar
    12   13   12 ar
    13   14   13 ar
    14   15   14 ar
    15   16   15 ar
    16   17   16 ar
    17   18   17 ar
    18   19   18 1
    19   20   18 ar
    20   21   20 1
    21   22   20 ar
    22   23   16 ar
    23   24   14 ar
    24   25   24 ar
    25   26   12 ar
    26   27   26 1
    27   28   11 ar
    28   29   13 ar
    29   30   29 ar
    30   31   30 1
    31   32   15 ar
    32   33   17 ar
    33   34   33 1
    34   35   32 ar
    35   36   35 1
    36   37   28 1
    37   38   37 ar
    38   39   38 1
    39   40   38 ar
    40   41   40 ar
    41   42   41 1
    42   43   41 ar
    43   44   37 ar
    44   45   44 1
    45   46   43 1
    46   47   46 1
    47   48   46 1
    48   49   48 1
    49   50   48 1
    50   51   48 1
    51   52   46 1
    52   53   52 1
    53   54   52 1
    54   55   52 1
    55   56   40 1
    56   57   56 1
    57   58   56 1
    58   59   58 1
    59   60   58 1
    60   61   58 1
    61   62   56 1
    62   63   62 1
    63   64   62 1
    64   65   62 1
    65   66   10 ar
    66   67   66 1
    67   68   66 ar
    68   69   68 1
    69   70   69 1
    70   71   69 1
    71   72   71 1
    72   73   71 1
    73   74   71 1
    74   75   69 1
    75   76   75 1
    76   77   75 1
    77   78   75 1
    78   79    7 ar
    79   80   79 1
    80   81    5 1
    81   82   81 1
    82   83   81 1
    83   84   81 1
    84   85   25 ar
    85   86   85 1
    86   87   22 ar
    87   88   87 1
    88   22   23 ar
    89   23   24 ar
    90   25   26 ar
    91   28   29 ar
    92   30   32 ar
    93   33   35 ar
    94   43   44 ar
    95   68   79 ar
    96   85   87 ar
@<TRIPOS>SUBSTRUCTURE
     1 RES1 1

@<TRIPOS>CRYSIN
  10.4145   11.8605   13.8603  77.2370  76.7680  83.7440   2 1

