# MOL2 file generated by ConQuest
# Please check atom types

@<TRIPOS>MOLECULE
YOWSEI
    88    96     2
SMALL
NO_CHARGES
****
Generated from CSD

@<TRIPOS>ATOM
      1 C1        -0.1561    0.0187    1.9759 C.ar      1 RES1    0.0000
      2 C2         1.1733    0.2222    1.7606 C.ar      1 RES1    0.0000
      3 C3         1.6205    1.1176    0.7731 C.ar      1 RES1    0.0000
      4 C4         0.7501    1.8189   -0.0082 C.ar      1 RES1    0.0000
      5 C5        -1.5659    2.7263   -0.1851 C.ar      1 RES1    0.0000
      6 C6        -2.8795    2.7170    0.1884 C.ar      1 RES1    0.0000
      7 C7        -3.3217    1.8189    1.1580 C.ar      1 RES1    0.0000
      8 C8        -2.4500    0.9556    1.7386 C.ar      1 RES1    0.0000
      9 C9        -1.0721    0.9556    1.4116 C.ar      1 RES1    0.0000
     10 C10       -0.6232    1.8671    0.4134 C.ar      1 RES1    0.0000
     11 C11        1.1503    2.2619   -1.3895 C.3       1 RES1    0.0000
     12 C12       -0.6153   -1.3076    2.5206 C.3       1 RES1    0.0000
     13 C13        7.1020    6.8513    1.9742 C.ar      2 RES2    0.0000
     14 C14        7.2621    8.1428    1.5820 C.ar      2 RES2    0.0000
     15 C15        6.5854    8.6514    0.4599 C.ar      2 RES2    0.0000
     16 C16        5.7551    7.8685   -0.2960 C.ar      2 RES2    0.0000
     17 C17        4.3243    5.8421   -0.3066 C.ar      2 RES2    0.0000
     18 C18        3.9546    4.6483    0.2177 C.ar      2 RES2    0.0000
     19 C19        4.5946    4.1597    1.3496 C.ar      2 RES2    0.0000
     20 C20        5.5988    4.8704    1.9392 C.ar      2 RES2    0.0000
     21 C21        6.0045    6.1272    1.4287 C.ar      2 RES2    0.0000
     22 C22        5.3344    6.6318    0.2797 C.ar      2 RES2    0.0000
     23 C23        5.5346    8.1803   -1.7557 C.3       2 RES2    0.0000
     24 C24        8.2320    6.1446    2.7041 C.3       2 RES2    0.0000
     25 H1         1.8491   -0.3881    2.1528 H         1 RES1    0.0000
     26 H2         2.5675    1.1109    0.5137 H         1 RES1    0.0000
     27 H3        -1.2886    3.3326   -0.8481 H         1 RES1    0.0000
     28 H4        -3.4654    3.3326   -0.2365 H         1 RES1    0.0000
     29 H5        -4.2420    1.8202    1.4026 H         1 RES1    0.0000
     30 H6        -2.7101    0.3480    2.4138 H         1 RES1    0.0000
     31 H7         7.9664    8.6461    1.9979 H         2 RES2    0.0000
     32 H8         6.8834    9.5294    0.0897 H         2 RES2    0.0000
     33 H9         3.8841    6.1834   -1.1335 H         2 RES2    0.0000
     34 H10        3.2307    4.1490   -0.2283 H         2 RES2    0.0000
     35 H11        4.2533    3.3326    1.7532 H         2 RES2    0.0000
     36 H12        6.0628    4.5506    2.7481 H         2 RES2    0.0000
     37 H13        2.1280    2.2619   -1.4515 H         1 RES1    0.0000
     38 H14        0.8482    3.1720   -1.5902 H         1 RES1    0.0000
     39 H15        0.1338   -1.7265    2.9520 H         1 RES1    0.0000
     40 H16       -1.2886   -1.2046    3.2048 H         1 RES1    0.0000
     41 H17        4.5524    8.0839   -2.0468 H         2 RES2    0.0000
     42 H18        5.8176    9.1413   -1.9082 H         2 RES2    0.0000
     43 H19        7.9540    5.5811    3.4412 H         2 RES2    0.0000
     44 H20        8.8387    6.8928    3.1151 H         2 RES2    0.0000
     45 C12B       0.6153    1.3076   -2.5206 C.3       1 RES1    0.0000
     46 C11B      -1.1503   -2.2619    1.3895 C.3       1 RES1    0.0000
     47 C1B        0.1561   -0.0187   -1.9759 C.ar      1 RES1    0.0000
     48 H15B      -0.1338    1.7265   -2.9520 H         1 RES1    0.0000
     49 H16B       1.2886    1.2046   -3.2048 H         1 RES1    0.0000
     50 C4B       -0.7501   -1.8189    0.0082 C.ar      1 RES1    0.0000
     51 H13B      -2.1280   -2.2619    1.4515 H         1 RES1    0.0000
     52 H14B      -0.8482   -3.1720    1.5902 H         1 RES1    0.0000
     53 C2B       -1.1733   -0.2222   -1.7606 C.ar      1 RES1    0.0000
     54 C9B        1.0721   -0.9556   -1.4116 C.ar      1 RES1    0.0000
     55 C3B       -1.6205   -1.1176   -0.7731 C.ar      1 RES1    0.0000
     56 C10B       0.6232   -1.8671   -0.4134 C.ar      1 RES1    0.0000
     57 H1B       -1.8491    0.3881   -2.1528 H         1 RES1    0.0000
     58 C8B        2.4500   -0.9556   -1.7386 C.ar      1 RES1    0.0000
     59 H2B       -2.5675   -1.1109   -0.5137 H         1 RES1    0.0000
     60 C5B        1.5659   -2.7263    0.1851 C.ar      1 RES1    0.0000
     61 C7B        3.3217   -1.8189   -1.1580 C.ar      1 RES1    0.0000
     62 H6B        2.7101   -0.3480   -2.4138 H         1 RES1    0.0000
     63 C6B        2.8795   -2.7170   -0.1884 C.ar      1 RES1    0.0000
     64 H3B        1.2886   -3.3326    0.8481 H         1 RES1    0.0000
     65 H5B        4.2420   -1.8202   -1.4026 H         1 RES1    0.0000
     66 H4B        3.4654   -3.3326    0.2365 H         1 RES1    0.0000
     67 C24B       6.3570    7.2394   -2.7041 C.3       2 RES2    0.0000
     68 C23B       9.0544    5.2037    1.7557 C.3       2 RES2    0.0000
     69 C13B       7.4870    6.5327   -1.9742 C.ar      2 RES2    0.0000
     70 H19B       6.6350    7.8029   -3.4412 H         2 RES2    0.0000
     71 H20B       5.7503    6.4912   -3.1151 H         2 RES2    0.0000
     72 C16B       8.8339    5.5155    0.2960 C.ar      2 RES2    0.0000
     73 H17B      10.0366    5.3001    2.0468 H         2 RES2    0.0000
     74 H18B       8.7714    4.2427    1.9082 H         2 RES2    0.0000
     75 C14B       7.3269    5.2412   -1.5820 C.ar      2 RES2    0.0000
     76 C21B       8.5845    7.2568   -1.4287 C.ar      2 RES2    0.0000
     77 C15B       8.0036    4.7326   -0.4599 C.ar      2 RES2    0.0000
     78 C22B       9.2546    6.7522   -0.2797 C.ar      2 RES2    0.0000
     79 H7B        6.6226    4.7379   -1.9979 H         2 RES2    0.0000
     80 C20B       8.9902    8.5136   -1.9392 C.ar      2 RES2    0.0000
     81 H8B        7.7056    3.8546   -0.0897 H         2 RES2    0.0000
     82 C17B      10.2647    7.5419    0.3066 C.ar      2 RES2    0.0000
     83 C19B       9.9944    9.2243   -1.3496 C.ar      2 RES2    0.0000
     84 H12B       8.5262    8.8334   -2.7481 H         2 RES2    0.0000
     85 C18B      10.6344    8.7357   -0.2177 C.ar      2 RES2    0.0000
     86 H9B       10.7049    7.2006    1.1335 H         2 RES2    0.0000
     87 H11B      10.3357   10.0514   -1.7532 H         2 RES2    0.0000
     88 H10B      11.3583    9.2350    0.2283 H         2 RES2    0.0000
@<TRIPOS>BOND
     1    1    2 ar
     2    2    3 ar
     3    3    4 ar
     4    4   10 ar
     5    5    6 ar
     6    6    7 ar
     7    7    8 ar
     8    8    9 ar
     9    9    1 ar
    10   10    5 ar
    11   11    4 1
    12   12    1 1
    13   13   14 ar
    14   14   15 ar
    15   15   16 ar
    16   16   22 ar
    17   17   18 ar
    18   18   19 ar
    19   19   20 ar
    20   20   21 ar
    21   21   13 ar
    22   22   17 ar
    23   23   16 1
    24   24   13 1
    25   25    2 1
    26   26    3 1
    27   27    5 1
    28   28    6 1
    29   29    7 1
    30   30    8 1
    31   31   14 1
    32   32   15 1
    33   33   17 1
    34   34   18 1
    35   35   19 1
    36   36   20 1
    37   37   11 1
    38   38   11 1
    39   39   12 1
    40   40   12 1
    41   41   23 1
    42   42   23 1
    43   43   24 1
    44   44   24 1
    45   45   11 1
    46   46   12 1
    47   47   45 1
    48   48   45 1
    49   49   45 1
    50   50   46 1
    51   51   46 1
    52   52   46 1
    53   53   47 ar
    54   54   47 ar
    55   55   50 ar
    56   56   50 ar
    57   57   53 1
    58   58   54 ar
    59   59   55 1
    60   60   56 ar
    61   61   58 ar
    62   62   58 1
    63   63   60 ar
    64   64   60 1
    65   65   61 1
    66   66   63 1
    67   67   23 1
    68   68   24 1
    69   69   67 1
    70   70   67 1
    71   71   67 1
    72   72   68 1
    73   73   68 1
    74   74   68 1
    75   75   69 ar
    76   76   69 ar
    77   77   72 ar
    78   78   72 ar
    79   79   75 1
    80   80   76 ar
    81   81   77 1
    82   82   78 ar
    83   83   80 ar
    84   84   80 1
    85   85   82 ar
    86   86   82 1
    87   87   83 1
    88   88   85 1
    89    9   10 ar
    90   21   22 ar
    91   53   55 ar
    92   54   56 ar
    93   61   63 ar
    94   75   77 ar
    95   76   78 ar
    96   83   85 ar
@<TRIPOS>SUBSTRUCTURE
     1 RES1 1
     2 RES2 13

@<TRIPOS>CRYSIN
  14.5890   13.3840    8.1580  90.0000  91.6500  90.0000  14 1

