# MOL2 file generated by ConQuest
# Please check atom types

@<TRIPOS>MOLECULE
YOWSIM
    44    48     1
SMALL
NO_CHARGES
****
Generated from CSD

@<TRIPOS>ATOM
      1 C1         0.9838    0.4876   10.3209 C.ar      1 RES1    0.0000
      2 C2         1.0812   -0.0035   11.5862 C.ar      1 RES1    0.0000
      3 C3         1.9115    0.6022   12.5462 C.ar      1 RES1    0.0000
      4 C4         2.6790    1.6849   12.2327 C.ar      1 RES1    0.0000
      5 C5         3.8371    2.8986   10.3924 C.ar      1 RES1    0.0000
      6 C6         3.9882    3.1855    9.0783 C.ar      1 RES1    0.0000
      7 C7         3.1653    2.5881    8.1329 C.ar      1 RES1    0.0000
      8 C8         2.1883    1.7238    8.5277 C.ar      1 RES1    0.0000
      9 C9         2.0089    1.3826    9.8758 C.ar      1 RES1    0.0000
     10 C10        2.8682    1.9848   10.8407 C.ar      1 RES1    0.0000
     11 C11       -0.2892    0.2975    9.5347 C.3       1 RES1    0.0000
     12 C12       -1.4473    1.2362   10.0042 C.3       1 RES1    0.0000
     13 C13       -1.0006    2.3177   10.9544 C.ar      1 RES1    0.0000
     14 C14       -1.0125    2.1182   12.3058 C.ar      1 RES1    0.0000
     15 C15       -0.1216    2.7994   13.1423 C.ar      1 RES1    0.0000
     16 C16        0.7953    3.6614   12.6664 C.ar      1 RES1    0.0000
     17 C17        1.3273    5.2234   10.8049 C.ar      1 RES1    0.0000
     18 C18        1.0957    5.6910    9.5542 C.ar      1 RES1    0.0000
     19 C19        0.1725    5.0723    8.7372 C.ar      1 RES1    0.0000
     20 C20       -0.4878    3.9825    9.1693 C.ar      1 RES1    0.0000
     21 C21       -0.3148    3.4783   10.4720 C.ar      1 RES1    0.0000
     22 C22        0.6076    4.1313   11.3345 C.ar      1 RES1    0.0000
     23 C23        2.0850    3.8833   13.4282 C.3       1 RES1    0.0000
     24 C24        3.0807    2.6684   13.3080 C.3       1 RES1    0.0000
     25 H1         0.4308   -0.5667   11.9874 H         1 RES1    0.0000
     26 H2         1.8939    0.3306   13.5305 H         1 RES1    0.0000
     27 H3         4.3903    3.1997   11.0453 H         1 RES1    0.0000
     28 H4         4.6602    3.7782    8.8038 H         1 RES1    0.0000
     29 H5         3.2791    2.7510    7.1632 H         1 RES1    0.0000
     30 H6         1.5802    1.3342    7.8942 H         1 RES1    0.0000
     31 H7        -1.5661    1.3932   12.6697 H         1 RES1    0.0000
     32 H8        -0.1265    2.4913   14.0666 H         1 RES1    0.0000
     33 H9         1.9338    5.5965   11.3052 H         1 RES1    0.0000
     34 H10        1.6150    6.4584    9.1449 H         1 RES1    0.0000
     35 H11       -0.0482    5.4903    7.8779 H         1 RES1    0.0000
     36 H12       -1.0948    3.5421    8.5764 H         1 RES1    0.0000
     37 H13       -0.5863   -0.5903    9.6322 H         1 RES1    0.0000
     38 H14       -2.0251    0.6730   10.3956 H         1 RES1    0.0000
     39 H15       -1.9884    1.5585    9.1611 H         1 RES1    0.0000
     40 H16        1.8548    4.0498   14.3914 H         1 RES1    0.0000
     41 H17        4.0015    3.1525   13.1894 H         1 RES1    0.0000
     42 H18        3.1103    2.1607   14.1478 H         1 RES1    0.0000
     43 H19       -0.1533    0.4369    8.5601 H         1 RES1    0.0000
     44 H20        2.6709    4.6520   12.9783 H         1 RES1    0.0000
@<TRIPOS>BOND
     1    1    2 ar
     2    2    3 ar
     3    3    4 ar
     4    4   10 ar
     5    5    6 ar
     6    6    7 ar
     7    7    8 ar
     8    8    9 ar
     9    9    1 ar
    10   10    5 ar
    11   11    1 1
    12   12   11 1
    13   13   12 1
    14   14   13 ar
    15   15   14 ar
    16   16   15 ar
    17   17   18 ar
    18   18   19 ar
    19   19   20 ar
    20   20   21 ar
    21   21   13 ar
    22   22   16 ar
    23   23   16 1
    24   24    4 1
    25   25    2 1
    26   26    3 1
    27   27    5 1
    28   28    6 1
    29   29    7 1
    30   30    8 1
    31   31   14 1
    32   32   15 1
    33   33   17 1
    34   34   18 1
    35   35   19 1
    36   36   20 1
    37   37   11 1
    38   38   12 1
    39   39   12 1
    40   40   23 1
    41   41   24 1
    42   42   24 1
    43   43   11 1
    44   44   23 1
    45    9   10 ar
    46   17   22 ar
    47   21   22 ar
    48   23   24 1
@<TRIPOS>SUBSTRUCTURE
     1 RES1 1

@<TRIPOS>CRYSIN
   8.3710   11.8070   16.7040  90.0000 103.4900  90.0000 231 1

