# MOL2 file generated by ConQuest
# Please check atom types

@<TRIPOS>MOLECULE
YUNYAJ
    50    59     1
SMALL
NO_CHARGES
****
Generated from CSD

@<TRIPOS>ATOM
      1 C1        10.0918   -1.7724   -1.1423 C.ar      1 RES1    0.0000
      2 C2         9.0189   -2.5706   -1.5903 C.ar      1 RES1    0.0000
      3 H1         9.1765   -3.2487   -2.2367 H         1 RES1    0.0000
      4 C3         7.7493   -2.3786   -1.1034 C.ar      1 RES1    0.0000
      5 H2         7.0325   -2.9089   -1.4316 H         1 RES1    0.0000
      6 C4         7.5085   -1.4121   -0.1337 C.ar      1 RES1    0.0000
      7 H3         6.6270   -1.2956    0.2005 H         1 RES1    0.0000
      8 C5         8.5377   -0.6119    0.3552 C.ar      1 RES1    0.0000
      9 C6         8.2870    0.3881    1.4059 C.ar      1 RES1    0.0000
     10 C7         7.0539    0.5287    2.0182 C.ar      1 RES1    0.0000
     11 H4         6.3408   -0.0467    1.7658 H         1 RES1    0.0000
     12 C8         6.8352    1.5040    3.0041 C.ar      1 RES1    0.0000
     13 H5         5.9804    1.5774    3.4134 H         1 RES1    0.0000
     14 C9         7.8414    2.3478    3.3789 C.ar      1 RES1    0.0000
     15 H6         7.6823    3.0090    4.0429 H         1 RES1    0.0000
     16 C10        9.1128    2.2416    2.7865 C.ar      1 RES1    0.0000
     17 C11       10.1620    3.1173    3.1466 C.ar      1 RES1    0.0000
     18 H7         9.9969    3.8118    3.7740 H         1 RES1    0.0000
     19 C12       11.4078    2.9818    2.6084 C.ar      1 RES1    0.0000
     20 H8        12.0948    3.5844    2.8678 H         1 RES1    0.0000
     21 C13       11.6978    1.9593    1.6700 C.ar      1 RES1    0.0000
     22 C14       10.6678    1.1021    1.2460 C.ar      1 RES1    0.0000
     23 C15       10.9269    0.0837    0.2697 C.ar      1 RES1    0.0000
     24 C16        9.8436   -0.7669   -0.1747 C.ar      1 RES1    0.0000
     25 C17        9.3546    1.2376    1.8057 C.ar      1 RES1    0.0000
     26 C1B       13.0400    1.7724    1.1423 C.ar      1 RES1    0.0000
     27 C2B       14.1129    2.5706    1.5903 C.ar      1 RES1    0.0000
     28 H1B       13.9553    3.2487    2.2367 H         1 RES1    0.0000
     29 C3B       15.3825    2.3786    1.1034 C.ar      1 RES1    0.0000
     30 H2B       16.0993    2.9089    1.4316 H         1 RES1    0.0000
     31 C4B       15.6233    1.4121    0.1337 C.ar      1 RES1    0.0000
     32 H3B       16.5048    1.2956   -0.2005 H         1 RES1    0.0000
     33 C5B       14.5941    0.6119   -0.3552 C.ar      1 RES1    0.0000
     34 C6B       14.8448   -0.3881   -1.4059 C.ar      1 RES1    0.0000
     35 C7B       16.0779   -0.5287   -2.0182 C.ar      1 RES1    0.0000
     36 H4B       16.7910    0.0467   -1.7658 H         1 RES1    0.0000
     37 C8B       16.2966   -1.5040   -3.0041 C.ar      1 RES1    0.0000
     38 H5B       17.1514   -1.5774   -3.4134 H         1 RES1    0.0000
     39 C9B       15.2904   -2.3478   -3.3789 C.ar      1 RES1    0.0000
     40 H6B       15.4495   -3.0090   -4.0429 H         1 RES1    0.0000
     41 C10B      14.0190   -2.2416   -2.7865 C.ar      1 RES1    0.0000
     42 C11B      12.9698   -3.1173   -3.1466 C.ar      1 RES1    0.0000
     43 H7B       13.1349   -3.8118   -3.7740 H         1 RES1    0.0000
     44 C12B      11.7240   -2.9818   -2.6084 C.ar      1 RES1    0.0000
     45 H8B       11.0370   -3.5844   -2.8678 H         1 RES1    0.0000
     46 C13B      11.4340   -1.9593   -1.6700 C.ar      1 RES1    0.0000
     47 C14B      12.4640   -1.1021   -1.2460 C.ar      1 RES1    0.0000
     48 C15B      12.2049   -0.0837   -0.2697 C.ar      1 RES1    0.0000
     49 C16B      13.2882    0.7669    0.1747 C.ar      1 RES1    0.0000
     50 C17B      13.7772   -1.2376   -1.8057 C.ar      1 RES1    0.0000
@<TRIPOS>BOND
     1    1    2 ar
     2    2    3 1
     3    4    2 ar
     4    5    4 1
     5    6    4 ar
     6    7    6 1
     7    8    6 ar
     8    9    8 ar
     9   10    9 ar
    10   11   10 1
    11   12   10 ar
    12   13   12 1
    13   14   12 ar
    14   15   14 1
    15   16   14 ar
    16   17   16 ar
    17   18   17 1
    18   19   17 ar
    19   20   19 1
    20   21   19 ar
    21   22   21 ar
    22   23   22 ar
    23   24    1 ar
    24   25    9 ar
    25   26   21 ar
    26   27   26 ar
    27   28   27 1
    28   29   27 ar
    29   30   29 1
    30   31   29 ar
    31   32   31 1
    32   33   31 ar
    33   34   33 ar
    34   35   34 ar
    35   36   35 1
    36   37   35 ar
    37   38   37 1
    38   39   37 ar
    39   40   39 1
    40   41   39 ar
    41   42   41 ar
    42   43   42 1
    43   44   42 ar
    44   45   44 1
    45   46    1 ar
    46   47   46 ar
    47   48   23 ar
    48   49   26 ar
    49   50   34 ar
    50    8   24 ar
    51   16   25 ar
    52   22   25 ar
    53   23   24 ar
    54   33   49 ar
    55   41   50 ar
    56   44   46 ar
    57   47   48 ar
    58   47   50 ar
    59   48   49 ar
@<TRIPOS>SUBSTRUCTURE
     1 RES1 1

@<TRIPOS>CRYSIN
  11.5659    5.1330   15.5436  90.0000  90.0630  90.0000  14 1

