# MOL2 file generated by ConQuest
# Please check atom types

@<TRIPOS>MOLECULE
YUXJIL
    60    62     1
SMALL
NO_CHARGES
****
Generated from CSD

@<TRIPOS>ATOM
      1 C1         2.0716    9.2319    4.9522 C.ar      1 RES1    0.0000
      2 C2         1.6205    9.9288    3.7742 C.ar      1 RES1    0.0000
      3 C3         1.2324   11.3050    3.9127 C.ar      1 RES1    0.0000
      4 C4         1.2514   11.9371    5.1173 C.ar      1 RES1    0.0000
      5 C5         1.6368   11.2339    6.2848 C.ar      1 RES1    0.0000
      6 C6         2.0294    9.9331    6.2047 C.ar      1 RES1    0.0000
      7 C7         2.5229    7.8980    4.8617 C.ar      1 RES1    0.0000
      8 C8         3.0141    7.1671    6.0928 C.3       1 RES1    0.0000
      9 C9         1.9133    6.3698    6.8029 C.3       1 RES1    0.0000
     10 C10        2.3835    5.7275    8.1084 C.3       1 RES1    0.0000
     11 C11        2.4843    6.6976    9.2801 C.3       1 RES1    0.0000
     12 C12        2.9427    6.0105   10.5621 C.3       1 RES1    0.0000
     13 C13        2.9387    6.9288   11.7766 C.3       1 RES1    0.0000
     14 H1         1.5783    7.1094    9.4347 H         1 RES1    0.0000
     15 H2         1.1376    6.9634    6.9813 H         1 RES1    0.0000
     16 H3         3.4407    7.7946    6.7295 H         1 RES1    0.0000
     17 H4         0.9895   12.8639    5.1889 H         1 RES1    0.0000
     18 H5         2.2584    9.4586    7.0234 H         1 RES1    0.0000
     19 H6         1.7384    5.0144    8.3808 H         1 RES1    0.0000
     20 H7         0.9607   11.8009    3.1166 H         1 RES1    0.0000
     21 H8         1.5705    5.6738    6.1800 H         1 RES1    0.0000
     22 H9         3.8472    5.6446   10.4221 H         1 RES1    0.0000
     23 H10        3.2707    5.3235    7.9569 H         1 RES1    0.0000
     24 H11        3.7350    6.5444    5.8447 H         1 RES1    0.0000
     25 H12        1.5955   11.6618    7.1489 H         1 RES1    0.0000
     26 H13        2.3254    5.2496   10.7330 H         1 RES1    0.0000
     27 H14        3.5444    7.6847   11.6318 H         1 RES1    0.0000
     28 H15        3.1267    7.4529    9.0470 H         1 RES1    0.0000
     29 H16        2.0192    7.2897   11.9494 H         1 RES1    0.0000
     30 H17        3.2160    6.4586   12.6141 H         1 RES1    0.0000
     31 C1B        2.0346    7.9406    2.4331 C.ar      1 RES1    0.0000
     32 C2B        2.4858    7.2437    3.6111 C.ar      1 RES1    0.0000
     33 C3B        2.8738    5.8675    3.4726 C.ar      1 RES1    0.0000
     34 C4B        2.8549    5.2354    2.2679 C.ar      1 RES1    0.0000
     35 C5B        2.4695    5.9386    1.1005 C.ar      1 RES1    0.0000
     36 C6B        2.0769    7.2394    1.1805 C.ar      1 RES1    0.0000
     37 C7B        1.5833    9.2745    2.5236 C.ar      1 RES1    0.0000
     38 C8B        1.0922   10.0054    1.2925 C.3       1 RES1    0.0000
     39 C9B        2.1930   10.8027    0.5824 C.3       1 RES1    0.0000
     40 C10B       1.7227   11.4450   -0.7232 C.3       1 RES1    0.0000
     41 C11B       1.6220   10.4749   -1.8948 C.3       1 RES1    0.0000
     42 C12B       1.1635   11.1620   -3.1769 C.3       1 RES1    0.0000
     43 C13B       1.1676   10.2437   -4.3914 C.3       1 RES1    0.0000
     44 H1B        2.5280   10.0631   -2.0494 H         1 RES1    0.0000
     45 H2B        2.9687   10.2091    0.4040 H         1 RES1    0.0000
     46 H3B        0.6656    9.3779    0.6558 H         1 RES1    0.0000
     47 H4B        3.1168    4.3086    2.1964 H         1 RES1    0.0000
     48 H5B        1.8478    7.7139    0.3619 H         1 RES1    0.0000
     49 H6B        2.3678   12.1581   -0.9955 H         1 RES1    0.0000
     50 H7B        3.1455    5.3716    4.2687 H         1 RES1    0.0000
     51 H8B        2.5358   11.4987    1.2053 H         1 RES1    0.0000
     52 H9B        0.2591   11.5279   -3.0368 H         1 RES1    0.0000
     53 H10B       0.8356   11.8490   -0.5716 H         1 RES1    0.0000
     54 H11B       0.3712   10.6281    1.5406 H         1 RES1    0.0000
     55 H12B       2.5107    5.5107    0.2363 H         1 RES1    0.0000
     56 H13B       1.7809   11.9229   -3.3477 H         1 RES1    0.0000
     57 H14B       0.5618    9.4878   -4.2465 H         1 RES1    0.0000
     58 H15B       0.9795    9.7196   -1.6617 H         1 RES1    0.0000
     59 H16B       2.0870    9.8828   -4.5641 H         1 RES1    0.0000
     60 H17B       0.8902   10.7139   -5.2288 H         1 RES1    0.0000
@<TRIPOS>BOND
     1    1    2 ar
     2    2    3 ar
     3    3    4 ar
     4    4    5 ar
     5    5    6 ar
     6    6    1 ar
     7    7    1 ar
     8    8    7 1
     9    9    8 1
    10   10    9 1
    11   11   10 1
    12   12   11 1
    13   13   12 1
    14   14   11 1
    15   15    9 1
    16   16    8 1
    17   17    4 1
    18   18    6 1
    19   19   10 1
    20   20    3 1
    21   21    9 1
    22   22   12 1
    23   23   10 1
    24   24    8 1
    25   25    5 1
    26   26   12 1
    27   27   13 1
    28   28   11 1
    29   29   13 1
    30   30   13 1
    31   31   32 ar
    32   32    7 ar
    33   33   32 ar
    34   34   33 ar
    35   35   34 ar
    36   36   31 ar
    37   37    2 ar
    38   38   37 1
    39   39   38 1
    40   40   39 1
    41   41   40 1
    42   42   41 1
    43   43   42 1
    44   44   41 1
    45   45   39 1
    46   46   38 1
    47   47   34 1
    48   48   36 1
    49   49   40 1
    50   50   33 1
    51   51   39 1
    52   52   42 1
    53   53   40 1
    54   54   38 1
    55   55   35 1
    56   56   42 1
    57   57   43 1
    58   58   41 1
    59   59   43 1
    60   60   43 1
    61   31   37 ar
    62   35   36 ar
@<TRIPOS>SUBSTRUCTURE
     1 RES1 1

@<TRIPOS>CRYSIN
   7.8785   17.1725    8.2929  90.0000 117.0570  90.0000 231 1

