# MOL2 file generated by ConQuest
# Please check atom types

@<TRIPOS>MOLECULE
YUZZUQ
   138   153     3
SMALL
NO_CHARGES
****
Generated from CSD

@<TRIPOS>ATOM
      1 C1        -3.2705    8.4111   11.8976 C.ar      1 RES1    0.0000
      2 C2        -3.8280    9.6253   11.3942 C.ar      1 RES1    0.0000
      3 C3        -3.9355   10.7734   12.2264 C.ar      1 RES1    0.0000
      4 C4        -4.5108   11.9440   11.7161 C.ar      1 RES1    0.0000
      5 H1        -4.5858   12.7389   12.3077 H         1 RES1    0.0000
      6 C5        -4.9459   12.0102   10.4021 C.ar      1 RES1    0.0000
      7 H2        -5.3856   12.8514   10.0790 H         1 RES1    0.0000
      8 C6        -4.8171   10.9108    9.5682 C.ar      1 RES1    0.0000
      9 H3        -5.1309   10.9618    8.5895 H         1 RES1    0.0000
     10 C7        -4.2769    9.7105   10.0376 C.ar      1 RES1    0.0000
     11 C8        -4.1323    8.5583    9.2040 C.ar      1 RES1    0.0000
     12 H4        -4.4271    8.6303    8.2352 H         1 RES1    0.0000
     13 C9        -3.6454    7.3929    9.6901 C.ar      1 RES1    0.0000
     14 H5        -3.5605    6.6121    9.0806 H         1 RES1    0.0000
     15 C10       -3.2104    7.2598   11.0534 C.ar      1 RES1    0.0000
     16 C11       -2.6642    6.0643   11.5610 C.ar      1 RES1    0.0000
     17 C12       -2.1352    6.0541   12.8552 C.ar      1 RES1    0.0000
     18 H6        -1.7586    5.2108   13.2127 H         1 RES1    0.0000
     19 C13       -2.1536    7.1732   13.6895 C.ar      1 RES1    0.0000
     20 C14       -2.7473    8.3696   13.2267 C.ar      1 RES1    0.0000
     21 C15       -2.8133    9.5696   14.0185 C.ar      1 RES1    0.0000
     22 H7        -2.4111    9.5425   14.8907 H         1 RES1    0.0000
     23 C16       -3.3959   10.7001   13.5541 C.ar      1 RES1    0.0000
     24 H8        -3.4401   11.5059   14.1290 H         1 RES1    0.0000
     25 C17       -2.5886    4.8127   10.7586 C.ar      1 RES1    0.0000
     26 C18       -3.7102    4.3146   10.0876 C.ar      1 RES1    0.0000
     27 H9        -4.5472    4.8385   10.1370 H         1 RES1    0.0000
     28 C19       -3.6234    3.1494    9.3372 C.ar      1 RES1    0.0000
     29 H10       -4.4330    2.7856    8.8568 H         1 RES1    0.0000
     30 C20       -2.4231    2.4579    9.2489 C.ar      1 RES1    0.0000
     31 H11       -2.3522    1.6103    8.7151 H         1 RES1    0.0000
     32 C21       -1.3063    2.9275    9.9277 C.ar      1 RES1    0.0000
     33 H12       -0.4508    2.4227    9.8906 H         1 RES1    0.0000
     34 C22       -1.3932    4.0941   10.6774 C.ar      1 RES1    0.0000
     35 H13       -0.5854    4.4275   11.1805 H         1 RES1    0.0000
     36 C23       -1.5072    7.0439   15.0237 C.ar      1 RES1    0.0000
     37 C24       -0.1983    6.5591   15.1052 C.ar      1 RES1    0.0000
     38 H14        0.2956    6.3328   14.2610 H         1 RES1    0.0000
     39 C25        0.4340    6.3972   16.3281 C.ar      1 RES1    0.0000
     40 H15        1.3381    6.0614   16.3947 H         1 RES1    0.0000
     41 C26       -0.2429    6.7162   17.5023 C.ar      1 RES1    0.0000
     42 H16        0.2557    6.5755   18.3352 H         1 RES1    0.0000
     43 C27       -1.5492    7.1782   17.4385 C.ar      1 RES1    0.0000
     44 H17       -2.0400    7.3702   18.2820 H         1 RES1    0.0000
     45 C28       -2.1810    7.3417   16.2144 C.ar      1 RES1    0.0000
     46 H18       -3.1476    7.6760   16.1934 H         1 RES1    0.0000
     47 C29        3.1333    5.6412   13.2884 C.ar      2 RES2    0.0000
     48 C30        3.6845    5.9825   14.5591 C.ar      2 RES2    0.0000
     49 C31        4.2683    4.9814   15.3915 C.ar      2 RES2    0.0000
     50 C32        4.7536    5.3286   16.6495 C.ar      2 RES2    0.0000
     51 H19        5.1792    4.6483   17.1886 H         2 RES2    0.0000
     52 C33        4.6920    6.6433   17.0988 C.ar      2 RES2    0.0000
     53 H20        5.0397    6.9043   18.0115 H         2 RES2    0.0000
     54 C34        4.1729    7.6360   16.2797 C.ar      2 RES2    0.0000
     55 H21        4.1459    8.5686   16.6202 H         2 RES2    0.0000
     56 C35        3.6586    7.3321   15.0179 C.ar      2 RES2    0.0000
     57 C36        3.0977    8.3263   14.1565 C.ar      2 RES2    0.0000
     58 H22        3.0770    9.2423   14.4688 H         2 RES2    0.0000
     59 C37        2.5831    8.0185   12.9496 C.ar      2 RES2    0.0000
     60 H23        2.1960    8.7142   12.3705 H         2 RES2    0.0000
     61 C38        2.5640    6.6603   12.4644 C.ar      2 RES2    0.0000
     62 C39        2.0302    6.3143   11.2143 C.ar      2 RES2    0.0000
     63 C40        2.0532    4.9802   10.8050 C.ar      2 RES2    0.0000
     64 H24        1.6320    4.7148    9.9116 H         2 RES2    0.0000
     65 C41        2.5688    3.9546   11.6093 C.ar      2 RES2    0.0000
     66 C42        3.1581    4.2817   12.8459 C.ar      2 RES2    0.0000
     67 C43        3.8361    3.3161   13.6749 C.ar      2 RES2    0.0000
     68 H25        3.9534    2.3879   13.3110 H         2 RES2    0.0000
     69 C44        4.3665    3.6453   14.8701 C.ar      2 RES2    0.0000
     70 H26        4.8606    3.0002   15.4060 H         2 RES2    0.0000
     71 C45        1.4282    7.3462   10.3096 C.ar      2 RES2    0.0000
     72 C46        0.2735    8.0453   10.6856 C.ar      2 RES2    0.0000
     73 H27       -0.0979    7.8938   11.5976 H         2 RES2    0.0000
     74 C47       -0.2731    9.0054    9.8447 C.ar      2 RES2    0.0000
     75 H28       -1.0747    9.5018   10.1756 H         2 RES2    0.0000
     76 C48        0.3238    9.2979    8.6275 C.ar      2 RES2    0.0000
     77 H29       -0.0737   10.0133    8.0001 H         2 RES2    0.0000
     78 C49        1.4611    8.6049    8.2389 C.ar      2 RES2    0.0000
     79 H30        1.8738    8.8340    7.3270 H         2 RES2    0.0000
     80 C50        1.9951    7.6299    9.0742 C.ar      2 RES2    0.0000
     81 H31        2.7860    7.1130    8.7731 H         2 RES2    0.0000
     82 C51        2.4506    2.5471   11.1354 C.ar      2 RES2    0.0000
     83 C52        2.7284    2.2085    9.8159 C.ar      2 RES2    0.0000
     84 H32        3.0455    2.9008    9.1837 H         2 RES2    0.0000
     85 C53        2.5995    0.8987    9.3644 C.ar      2 RES2    0.0000
     86 H33        2.8263    0.6815    8.4123 H         2 RES2    0.0000
     87 C54        2.1802   -0.0992   10.2409 C.ar      2 RES2    0.0000
     88 H34        2.0900   -1.0355    9.9051 H         2 RES2    0.0000
     89 C55        1.8927    0.2196   11.5509 C.ar      2 RES2    0.0000
     90 H35        1.6084   -0.5199   12.1837 H         2 RES2    0.0000
     91 C56        2.0125    1.5260   11.9989 C.ar      2 RES2    0.0000
     92 H36        1.7710    1.7757   12.9261 H         2 RES2    0.0000
     93 C57        6.8296    4.4189   12.5177 C.ar      3 RES3    0.0000
     94 C58        6.4081    5.6274   11.8771 C.ar      3 RES3    0.0000
     95 C59        6.5360    6.8789   12.5406 C.ar      3 RES3    0.0000
     96 C60        6.1118    8.0451   11.8937 C.ar      3 RES3    0.0000
     97 H37        6.1988    8.8921   12.3737 H         3 RES3    0.0000
     98 C61        5.5745    7.9920   10.6145 C.ar      3 RES3    0.0000
     99 H38        5.2729    8.8546   10.1918 H         3 RES3    0.0000
    100 C62        5.4465    6.7798    9.9616 C.ar      3 RES3    0.0000
    101 H39        5.0586    6.7170    9.0677 H         3 RES3    0.0000
    102 C63        5.8480    5.5881   10.5673 C.ar      3 RES3    0.0000
    103 C64        5.7253    4.3220    9.9104 C.ar      3 RES3    0.0000
    104 H40        5.3498    4.2985    8.9679 H         3 RES3    0.0000
    105 C65        6.1051    3.1752   10.5148 C.ar      3 RES3    0.0000
    106 H41        6.0179    2.3238   10.0146 H         3 RES3    0.0000
    107 C66        6.6591    3.1745   11.8415 C.ar      3 RES3    0.0000
    108 C67        7.0601    1.9856   12.4886 C.ar      3 RES3    0.0000
    109 C68        7.6106    2.0603   13.7607 C.ar      3 RES3    0.0000
    110 H42        7.8756    1.2234   14.2063 H         3 RES3    0.0000
    111 C69        7.7988    3.2653   14.4437 C.ar      3 RES3    0.0000
    112 C70        7.4043    4.4734   13.8216 C.ar      3 RES3    0.0000
    113 C71        7.4956    5.7572   14.4702 C.ar      3 RES3    0.0000
    114 H43        7.8629    5.8125   15.3818 H         3 RES3    0.0000
    115 C72        7.0873    6.8941   13.8633 C.ar      3 RES3    0.0000
    116 H44        7.1373    7.7483   14.3496 H         3 RES3    0.0000
    117 C73        6.9241    0.6458   11.8443 C.ar      3 RES3    0.0000
    118 C74        5.6752    0.0915   11.5749 C.ar      3 RES3    0.0000
    119 H45        4.8513    0.6362   11.7602 H         3 RES3    0.0000
    120 C75        5.5681   -1.1834   11.0391 C.ar      3 RES3    0.0000
    121 H46        4.6630   -1.5691   10.8182 H         3 RES3    0.0000
    122 C76        6.7045   -1.9245   10.7586 C.ar      3 RES3    0.0000
    123 H47        6.6116   -2.8276   10.3624 H         3 RES3    0.0000
    124 C77        7.9534   -1.3792   11.0092 C.ar      3 RES3    0.0000
    125 H48        8.7987   -1.9274   10.8005 H         3 RES3    0.0000
    126 C78        8.0635   -0.1037   11.5472 C.ar      3 RES3    0.0000
    127 H49        8.9918    0.2701   11.7634 H         3 RES3    0.0000
    128 C79        8.3883    3.2002   15.8074 C.ar      3 RES3    0.0000
    129 C80        7.8793    2.2939   16.7432 C.ar      3 RES3    0.0000
    130 H50        7.0943    1.7585   16.5058 H         3 RES3    0.0000
    131 C81        8.4685    2.1485   17.9898 C.ar      3 RES3    0.0000
    132 H51        8.0979    1.5144   18.6556 H         3 RES3    0.0000
    133 C82        9.5824    2.9015   18.3342 C.ar      3 RES3    0.0000
    134 H52       10.0217    2.7527   19.2128 H         3 RES3    0.0000
    135 C83       10.0945    3.8099   17.4154 C.ar      3 RES3    0.0000
    136 H53       10.8931    4.3349   17.6749 H         3 RES3    0.0000
    137 C84        9.5074    3.9612   16.1661 C.ar      3 RES3    0.0000
    138 H54        9.9185    4.5808   15.4865 H         3 RES3    0.0000
@<TRIPOS>BOND
     1    1    2 ar
     2    2    3 ar
     3    3    4 ar
     4    4    5 1
     5    6    4 ar
     6    7    6 1
     7    8    6 ar
     8    9    8 1
     9   10    2 ar
    10   11   10 ar
    11   12   11 1
    12   13   11 ar
    13   14   13 1
    14   15    1 ar
    15   16   15 ar
    16   17   16 ar
    17   18   17 1
    18   19   17 ar
    19   20    1 ar
    20   21   20 ar
    21   22   21 1
    22   23    3 ar
    23   24   23 1
    24   25   16 1
    25   26   25 ar
    26   27   26 1
    27   28   26 ar
    28   29   28 1
    29   30   28 ar
    30   31   30 1
    31   32   30 ar
    32   33   32 1
    33   34   25 ar
    34   35   34 1
    35   36   19 1
    36   37   36 ar
    37   38   37 1
    38   39   37 ar
    39   40   39 1
    40   41   39 ar
    41   42   41 1
    42   43   41 ar
    43   44   43 1
    44   45   36 ar
    45   46   45 1
    46   47   48 ar
    47   48   49 ar
    48   49   50 ar
    49   50   51 1
    50   52   50 ar
    51   53   52 1
    52   54   52 ar
    53   55   54 1
    54   56   48 ar
    55   57   56 ar
    56   58   57 1
    57   59   57 ar
    58   60   59 1
    59   61   47 ar
    60   62   61 ar
    61   63   62 ar
    62   64   63 1
    63   65   63 ar
    64   66   47 ar
    65   67   66 ar
    66   68   67 1
    67   69   49 ar
    68   70   69 1
    69   71   62 1
    70   72   71 ar
    71   73   72 1
    72   74   72 ar
    73   75   74 1
    74   76   74 ar
    75   77   76 1
    76   78   76 ar
    77   79   78 1
    78   80   71 ar
    79   81   80 1
    80   82   65 1
    81   83   82 ar
    82   84   83 1
    83   85   83 ar
    84   86   85 1
    85   87   85 ar
    86   88   87 1
    87   89   87 ar
    88   90   89 1
    89   91   82 ar
    90   92   91 1
    91   93   94 ar
    92   94   95 ar
    93   95   96 ar
    94   96   97 1
    95   98   96 ar
    96   99   98 1
    97  100   98 ar
    98  101  100 1
    99  102   94 ar
   100  103  102 ar
   101  104  103 1
   102  105  103 ar
   103  106  105 1
   104  107   93 ar
   105  108  107 ar
   106  109  108 ar
   107  110  109 1
   108  111  109 ar
   109  112   93 ar
   110  113  112 ar
   111  114  113 1
   112  115   95 ar
   113  116  115 1
   114  117  108 1
   115  118  117 ar
   116  119  118 1
   117  120  118 ar
   118  121  120 1
   119  122  120 ar
   120  123  122 1
   121  124  122 ar
   122  125  124 1
   123  126  117 ar
   124  127  126 1
   125  128  111 1
   126  129  128 ar
   127  130  129 1
   128  131  129 ar
   129  132  131 1
   130  133  131 ar
   131  134  133 1
   132  135  133 ar
   133  136  135 1
   134  137  128 ar
   135  138  137 1
   136    8   10 ar
   137   13   15 ar
   138   19   20 ar
   139   21   23 ar
   140   32   34 ar
   141   43   45 ar
   142   54   56 ar
   143   59   61 ar
   144   65   66 ar
   145   67   69 ar
   146   78   80 ar
   147   89   91 ar
   148  100  102 ar
   149  105  107 ar
   150  111  112 ar
   151  113  115 ar
   152  124  126 ar
   153  135  137 ar
@<TRIPOS>SUBSTRUCTURE
     1 RES1 1
     2 RES2 47
     3 RES3 93

@<TRIPOS>CRYSIN
  13.1052   13.4575   16.6219 102.8290  92.9960 104.2070   2 1

