# MOL2 file generated by ConQuest
# Please check atom types

@<TRIPOS>MOLECULE
ZAKJAZ
    48    49     1
SMALL
NO_CHARGES
****
Generated from CSD

@<TRIPOS>ATOM
      1 C1         6.1224   12.7589    0.1046 C.ar      1 RES1    0.0000
      2 C2         5.3842   12.2367    1.1323 C.ar      1 RES1    0.0000
      3 H1         4.4759   12.4884    1.2517 H         1 RES1    0.0000
      4 C3         5.9796   11.3470    1.9832 C.ar      1 RES1    0.0000
      5 H2         5.4648   10.9984    2.7008 H         1 RES1    0.0000
      6 C4         7.3257   10.9166    1.8519 C.ar      1 RES1    0.0000
      7 C5         8.0380   11.4212    0.8361 C.ar      1 RES1    0.0000
      8 H3         8.9375   11.1419    0.7157 H         1 RES1    0.0000
      9 C6         7.8674    9.8822    2.8301 C.3       1 RES1    0.0000
     10 C7         9.3367    9.6796    2.6939 C.3       1 RES1    0.0000
     11 H4         9.5244    9.2002    1.8608 H         1 RES1    0.0000
     12 H5         9.6664    9.1561    3.4540 H         1 RES1    0.0000
     13 H6         9.7864   10.5504    2.6781 H         1 RES1    0.0000
     14 C8         7.1066    8.5609    2.6386 C.3       1 RES1    0.0000
     15 H7         6.1445    8.7195    2.7423 H         1 RES1    0.0000
     16 H8         7.4047    7.9116    3.3099 H         1 RES1    0.0000
     17 H9         7.2846    8.2085    1.7423 H         1 RES1    0.0000
     18 C9         7.5754   10.3201    4.2941 C.3       1 RES1    0.0000
     19 H10        6.5943   10.3126    4.4264 H         1 RES1    0.0000
     20 H11        7.9588    9.6381    4.9002 H         1 RES1    0.0000
     21 C10        8.0864   11.6515    4.7176 C.3       1 RES1    0.0000
     22 H12        9.0374   11.7233    4.4915 H         1 RES1    0.0000
     23 H13        7.9725   11.7522    5.6859 H         1 RES1    0.0000
     24 H14        7.5863   12.3562    4.2546 H         1 RES1    0.0000
     25 C1B        7.4496   12.4091   -0.1046 C.ar      1 RES1    0.0000
     26 C2B        8.1878   12.9313   -1.1323 C.ar      1 RES1    0.0000
     27 H1B        9.0961   12.6796   -1.2517 H         1 RES1    0.0000
     28 C3B        7.5924   13.8210   -1.9832 C.ar      1 RES1    0.0000
     29 H2B        8.1072   14.1696   -2.7008 H         1 RES1    0.0000
     30 C4B        6.2463   14.2514   -1.8519 C.ar      1 RES1    0.0000
     31 C5B        5.5340   13.7468   -0.8361 C.ar      1 RES1    0.0000
     32 H3B        4.6345   14.0261   -0.7157 H         1 RES1    0.0000
     33 C6B        5.7046   15.2858   -2.8301 C.3       1 RES1    0.0000
     34 C7B        4.2353   15.4884   -2.6939 C.3       1 RES1    0.0000
     35 H4B        4.0476   15.9678   -1.8608 H         1 RES1    0.0000
     36 H5B        3.9056   16.0119   -3.4540 H         1 RES1    0.0000
     37 H6B        3.7856   14.6176   -2.6781 H         1 RES1    0.0000
     38 C8B        6.4654   16.6071   -2.6386 C.3       1 RES1    0.0000
     39 H7B        7.4275   16.4485   -2.7423 H         1 RES1    0.0000
     40 H8B        6.1673   17.2564   -3.3099 H         1 RES1    0.0000
     41 H9B        6.2874   16.9595   -1.7423 H         1 RES1    0.0000
     42 C9B        5.9966   14.8479   -4.2941 C.3       1 RES1    0.0000
     43 H10B       6.9777   14.8554   -4.4264 H         1 RES1    0.0000
     44 H11B       5.6132   15.5299   -4.9002 H         1 RES1    0.0000
     45 C10B       5.4856   13.5165   -4.7176 C.3       1 RES1    0.0000
     46 H12B       4.5346   13.4447   -4.4915 H         1 RES1    0.0000
     47 H13B       5.5995   13.4158   -5.6859 H         1 RES1    0.0000
     48 H14B       5.9857   12.8118   -4.2546 H         1 RES1    0.0000
@<TRIPOS>BOND
     1    1    2 ar
     2    2    3 1
     3    4    2 ar
     4    5    4 1
     5    6    4 ar
     6    7    6 ar
     7    8    7 1
     8    9    6 1
     9   10    9 1
    10   11   10 1
    11   12   10 1
    12   13   10 1
    13   14    9 1
    14   15   14 1
    15   16   14 1
    16   17   14 1
    17   18    9 1
    18   19   18 1
    19   20   18 1
    20   21   18 1
    21   22   21 1
    22   23   21 1
    23   24   21 1
    24   25    1 ar
    25   26   25 ar
    26   27   26 1
    27   28   26 ar
    28   29   28 1
    29   30   28 ar
    30   31    1 ar
    31   32   31 1
    32   33   30 1
    33   34   33 1
    34   35   34 1
    35   36   34 1
    36   37   34 1
    37   38   33 1
    38   39   38 1
    39   40   38 1
    40   41   38 1
    41   42   33 1
    42   43   42 1
    43   44   42 1
    44   45   42 1
    45   46   45 1
    46   47   45 1
    47   48   45 1
    48    7   25 ar
    49   30   31 ar
@<TRIPOS>SUBSTRUCTURE
     1 RES1 1

@<TRIPOS>CRYSIN
   6.7860   12.5840    9.8960  90.0000  94.0380  90.0000 231 1

