# MOL2 file generated by ConQuest
# Please check atom types

@<TRIPOS>MOLECULE
ZALYIU
    62    70     2
SMALL
NO_CHARGES
****
Generated from CSD

@<TRIPOS>ATOM
      1 C1         1.5351   -3.3247    1.1091 C.3       1 RES1    0.0000
      2 H1         1.1187   -3.8589    1.7895 H         1 RES1    0.0000
      3 C2         3.0016   -3.0122    1.3216 C.2       1 RES1    0.0000
      4 H2         3.4731   -3.0343    2.1575 H         1 RES1    0.0000
      5 C3         3.5217   -2.7051    0.1410 C.2       1 RES1    0.0000
      6 H3         4.4324   -2.4511   -0.0258 H         1 RES1    0.0000
      7 C4         2.4241   -2.8110   -0.8902 C.3       1 RES1    0.0000
      8 H4         2.7114   -2.9370   -1.7975 H         1 RES1    0.0000
      9 C5         1.4473   -1.6099   -0.6341 C.3       1 RES1    0.0000
     10 H5         0.7671   -1.5786   -1.3108 H         1 RES1    0.0000
     11 C6         0.8265   -1.9691    0.7717 C.3       1 RES1    0.0000
     12 H6        -0.1227   -2.0933    0.7007 H         1 RES1    0.0000
     13 C7         1.5816   -3.9501   -0.2950 C.3       1 RES1    0.0000
     14 H7         2.0317   -4.7978   -0.3120 H         1 RES1    0.0000
     15 H8         0.7146   -4.0266   -0.7001 H         1 RES1    0.0000
     16 C8         1.1333   -0.7731    1.6447 C.ar      1 RES1    0.0000
     17 C9         1.8428    0.1780    0.8781 C.ar      1 RES1    0.0000
     18 C10        2.0667   -0.2454   -0.4502 C.ar      1 RES1    0.0000
     19 C11        2.7508    0.5860   -1.2982 C.ar      1 RES1    0.0000
     20 H9         2.9181    0.3193   -2.2051 H         1 RES1    0.0000
     21 C12        3.2000    1.8437   -0.8160 C.ar      1 RES1    0.0000
     22 H10        3.6779    2.4259   -1.4112 H         1 RES1    0.0000
     23 C13        2.9715    2.2623    0.4728 C.ar      1 RES1    0.0000
     24 H11        3.2929    3.1168    0.7699 H         1 RES1    0.0000
     25 C14        2.2699    1.4257    1.3777 C.ar      1 RES1    0.0000
     26 C15        1.9422    1.7007    2.7342 C.ar      1 RES1    0.0000
     27 H12        2.1999    2.5344    3.1344 H         1 RES1    0.0000
     28 C16        1.2639    0.7691    3.4863 C.ar      1 RES1    0.0000
     29 H13        1.0599    0.9696    4.4028 H         1 RES1    0.0000
     30 C17        0.8449   -0.4807    2.9535 C.ar      1 RES1    0.0000
     31 H14        0.3743   -1.1127    3.5018 H         1 RES1    0.0000
     32 C18        5.9989   -5.8290    4.2582 C.3       2 RES2    0.0000
     33 H15        5.5181   -5.9385    5.0819 H         2 RES2    0.0000
     34 C19        6.3414   -4.4028    3.8793 C.2       2 RES2    0.0000
     35 H16        6.4017   -3.6534    4.4762 H         2 RES2    0.0000
     36 C20        6.5483   -4.3695    2.5661 C.2       2 RES2    0.0000
     37 H17        6.7751   -3.5971    2.0432 H         2 RES2    0.0000
     38 C21        6.3620   -5.7787    2.0391 C.3       2 RES2    0.0000
     39 H18        6.1716   -5.8518    1.1010 H         2 RES2    0.0000
     40 C22        7.5736   -6.6234    2.5566 C.3       2 RES2    0.0000
     41 H19        7.5536   -7.5035    2.1737 H         2 RES2    0.0000
     42 C23        7.3022   -6.6833    4.1089 C.3       2 RES2    0.0000
     43 H20        7.1456   -7.5872    4.3916 H         2 RES2    0.0000
     44 C24        5.2549   -6.2726    2.9862 C.3       2 RES2    0.0000
     45 H21        4.4238   -5.8094    2.8593 H         2 RES2    0.0000
     46 H22        5.1182   -7.2217    2.9385 H         2 RES2    0.0000
     47 C25        8.5597   -6.1446    4.7419 C.ar      2 RES2    0.0000
     48 C26        9.4783   -5.8009    3.7302 C.ar      2 RES2    0.0000
     49 C27        8.9604   -6.0310    2.4306 C.ar      2 RES2    0.0000
     50 C28        9.7590   -5.7371    1.3524 C.ar      2 RES2    0.0000
     51 H23        9.4322   -5.8593    0.4580 H         2 RES2    0.0000
     52 C29       11.0735   -5.2474    1.5843 C.ar      2 RES2    0.0000
     53 H24       11.6310   -5.0464    0.8291 H         2 RES2    0.0000
     54 C30       11.5805   -5.0568    2.8470 C.ar      2 RES2    0.0000
     55 H25       12.4782   -4.7359    2.9589 H         2 RES2    0.0000
     56 C31       10.7722   -5.3154    3.9814 C.ar      2 RES2    0.0000
     57 C32       11.1307   -5.1659    5.3480 C.ar      2 RES2    0.0000
     58 H26       11.9983   -4.8247    5.5774 H         2 RES2    0.0000
     59 C33       10.2316   -5.4843    6.3355 C.ar      2 RES2    0.0000
     60 H27       10.4975   -5.3736    7.2512 H         2 RES2    0.0000
     61 C34        8.9365   -5.9850    6.0556 C.ar      2 RES2    0.0000
     62 H28        8.3272   -6.2057    6.7638 H         2 RES2    0.0000
@<TRIPOS>BOND
     1    1    2 1
     2    3    1 1
     3    4    3 1
     4    5    3 2
     5    6    5 1
     6    7    5 1
     7    8    7 1
     8    9    7 1
     9   10    9 1
    10   11    1 1
    11   12   11 1
    12   13    1 1
    13   14   13 1
    14   15   13 1
    15   16   11 1
    16   17   16 ar
    17   18    9 1
    18   19   18 ar
    19   20   19 1
    20   21   19 ar
    21   22   21 1
    22   23   21 ar
    23   24   23 1
    24   25   17 ar
    25   26   25 ar
    26   27   26 1
    27   28   26 ar
    28   29   28 1
    29   30   16 ar
    30   31   30 1
    31   32   33 1
    32   34   32 1
    33   35   34 1
    34   36   34 2
    35   37   36 1
    36   38   36 1
    37   39   38 1
    38   40   38 1
    39   41   40 1
    40   42   32 1
    41   43   42 1
    42   44   32 1
    43   45   44 1
    44   46   44 1
    45   47   42 1
    46   48   47 ar
    47   49   40 1
    48   50   49 ar
    49   51   50 1
    50   52   50 ar
    51   53   52 1
    52   54   52 ar
    53   55   54 1
    54   56   48 ar
    55   57   56 ar
    56   58   57 1
    57   59   57 ar
    58   60   59 1
    59   61   47 ar
    60   62   61 1
    61    7   13 1
    62    9   11 1
    63   17   18 ar
    64   23   25 ar
    65   28   30 ar
    66   38   44 1
    67   40   42 1
    68   48   49 ar
    69   54   56 ar
    70   59   61 ar
@<TRIPOS>SUBSTRUCTURE
     1 RES1 1
     2 RES2 32

@<TRIPOS>CRYSIN
  17.0490    9.6870   14.2090  90.0000  91.8500  90.0000  14 1

