# MOL2 file generated by ConQuest
# Please check atom types

@<TRIPOS>MOLECULE
ZAXJEP
    76    82     2
SMALL
NO_CHARGES
****
Generated from CSD

@<TRIPOS>ATOM
      1 C1         4.2977    3.1366    8.8173 C.ar      1 RES1    0.0000
      2 C2         4.4763    3.5344   10.1261 C.ar      1 RES1    0.0000
      3 H1         3.8913    3.1946   10.7945 H         1 RES1    0.0000
      4 C3         5.4951    4.4265   10.4988 C.ar      1 RES1    0.0000
      5 H2         5.5735    4.6851   11.4094 H         1 RES1    0.0000
      6 C4         6.3837    4.9367    9.5742 C.ar      1 RES1    0.0000
      7 C5         7.1811    4.9456    7.2127 C.ar      1 RES1    0.0000
      8 H3         7.9401    5.4588    7.4665 H         1 RES1    0.0000
      9 C6         7.0023    4.6319    5.8852 C.ar      1 RES1    0.0000
     10 H4         7.6153    4.9468    5.2307 H         1 RES1    0.0000
     11 C7         5.9019    3.8404    5.5032 C.ar      1 RES1    0.0000
     12 H5         5.7623    3.6404    4.5856 H         1 RES1    0.0000
     13 C8         5.0381    3.3586    6.4348 C.ar      1 RES1    0.0000
     14 H6         4.3121    2.8140    6.1553 H         1 RES1    0.0000
     15 C9         5.1918    3.6487    7.8182 C.ar      1 RES1    0.0000
     16 C10        6.2709    4.5247    8.2048 C.ar      1 RES1    0.0000
     17 C11        3.2067    2.1712    8.5052 C.ar      1 RES1    0.0000
     18 C12        1.9112    2.4245    8.9361 C.ar      1 RES1    0.0000
     19 H7         1.7173    3.2325    9.3972 H         1 RES1    0.0000
     20 C13        0.8973    1.5136    8.7008 C.ar      1 RES1    0.0000
     21 H8         0.0163    1.7024    9.0013 H         1 RES1    0.0000
     22 C14        1.1541    0.3262    8.0278 C.ar      1 RES1    0.0000
     23 H9         0.4553   -0.2977    7.8694 H         1 RES1    0.0000
     24 C15        2.4453    0.0622    7.5923 C.ar      1 RES1    0.0000
     25 H10        2.6306   -0.7452    7.1265 H         1 RES1    0.0000
     26 C16        3.4667    0.9660    7.8298 C.ar      1 RES1    0.0000
     27 H11        4.3489    0.7707    7.5364 H         1 RES1    0.0000
     28 C17        7.4215    5.9027   10.0143 C.ar      1 RES1    0.0000
     29 C18        8.2548    5.6358   11.1019 C.ar      1 RES1    0.0000
     30 H12        8.1532    4.8165   11.5724 H         1 RES1    0.0000
     31 C19        9.2279    6.5361   11.5142 C.ar      1 RES1    0.0000
     32 H13        9.7783    6.3342   12.2617 H         1 RES1    0.0000
     33 C20        9.3956    7.7306   10.8295 C.ar      1 RES1    0.0000
     34 H14       10.0764    8.3379   11.0903 H         1 RES1    0.0000
     35 C21        8.5605    8.0343    9.7651 C.ar      1 RES1    0.0000
     36 H15        8.6612    8.8600    9.3064 H         1 RES1    0.0000
     37 C22        7.5800    7.1387    9.3646 C.ar      1 RES1    0.0000
     38 H16        7.0074    7.3648    8.6426 H         1 RES1    0.0000
     39 C23        1.2022    0.1942    2.7994 C.ar      2 RES2    0.0000
     40 C24        0.3666    0.6032    1.7886 C.ar      2 RES2    0.0000
     41 H17       -0.5289    0.2841    1.7723 H         2 RES2    0.0000
     42 C25        0.8038    1.4857    0.7755 C.ar      2 RES2    0.0000
     43 H18        0.1931    1.7568    0.1001 H         2 RES2    0.0000
     44 C26        2.0913    1.9581    0.7499 C.ar      2 RES2    0.0000
     45 C27        4.3596    1.9634    1.7793 C.ar      2 RES2    0.0000
     46 H19        4.6812    2.4891    1.0573 H         2 RES2    0.0000
     47 C28        5.2155    1.6343    2.7877 C.ar      2 RES2    0.0000
     48 H20        6.1181    1.9327    2.7691 H         2 RES2    0.0000
     49 C29        4.7447    0.8411    3.8660 C.ar      2 RES2    0.0000
     50 H21        5.3270    0.6328    4.5856 H         2 RES2    0.0000
     51 C30        3.4656    0.3747    3.8730 C.ar      2 RES2    0.0000
     52 H22        3.1751   -0.1681    4.5973 H         2 RES2    0.0000
     53 C31        2.5481    0.6807    2.8203 C.ar      2 RES2    0.0000
     54 C32        3.0052    1.5491    1.7723 C.ar      2 RES2    0.0000
     55 C33        0.6805   -0.7624    3.8287 C.ar      2 RES2    0.0000
     56 C34        1.3412   -1.9587    4.1152 C.ar      2 RES2    0.0000
     57 H23        2.1562   -2.1629    3.6750 H         2 RES2    0.0000
     58 C35        0.8172   -2.8549    5.0444 C.ar      2 RES2    0.0000
     59 H24        1.2784   -3.6629    5.2354 H         2 RES2    0.0000
     60 C36       -0.3781   -2.5708    5.6919 C.ar      2 RES2    0.0000
     61 H25       -0.7340   -3.1798    6.3277 H         2 RES2    0.0000
     62 C37       -1.0421   -1.3999    5.4031 C.ar      2 RES2    0.0000
     63 H26       -1.8668   -1.2099    5.8363 H         2 RES2    0.0000
     64 C38       -0.5202   -0.4860    4.4832 C.ar      2 RES2    0.0000
     65 H27       -0.9823    0.3238    4.3038 H         2 RES2    0.0000
     66 C39        2.5084    2.9087   -0.3284 C.ar      2 RES2    0.0000
     67 C40        2.3422    2.5560   -1.6698 C.ar      2 RES2    0.0000
     68 H28        1.9557    1.7172   -1.8934 H         2 RES2    0.0000
     69 C41        2.7365    3.4214   -2.6829 C.ar      2 RES2    0.0000
     70 H29        2.6120    3.1739   -3.5912 H         2 RES2    0.0000
     71 C42        3.3096    4.6395   -2.3732 C.ar      2 RES2    0.0000
     72 H30        3.6026    5.2202   -3.0649 H         2 RES2    0.0000
     73 C43        3.4552    5.0083   -1.0480 C.ar      2 RES2    0.0000
     74 H31        3.8320    5.8536   -0.8314 H         2 RES2    0.0000
     75 C44        3.0587    4.1577   -0.0349 C.ar      2 RES2    0.0000
     76 H32        3.1607    4.4259    0.8710 H         2 RES2    0.0000
@<TRIPOS>BOND
     1    1    2 ar
     2    2    3 1
     3    4    2 ar
     4    5    4 1
     5    6    4 ar
     6    7    8 1
     7    9    7 ar
     8   10    9 1
     9   11    9 ar
    10   12   11 1
    11   13   11 ar
    12   14   13 1
    13   15    1 ar
    14   16    6 ar
    15   17    1 1
    16   18   17 ar
    17   19   18 1
    18   20   18 ar
    19   21   20 1
    20   22   20 ar
    21   23   22 1
    22   24   22 ar
    23   25   24 1
    24   26   17 ar
    25   27   26 1
    26   28    6 1
    27   29   28 ar
    28   30   29 1
    29   31   29 ar
    30   32   31 1
    31   33   31 ar
    32   34   33 1
    33   35   33 ar
    34   36   35 1
    35   37   28 ar
    36   38   37 1
    37   39   40 ar
    38   40   41 1
    39   42   40 ar
    40   43   42 1
    41   44   42 ar
    42   45   46 1
    43   47   45 ar
    44   48   47 1
    45   49   47 ar
    46   50   49 1
    47   51   49 ar
    48   52   51 1
    49   53   39 ar
    50   54   44 ar
    51   55   39 1
    52   56   55 ar
    53   57   56 1
    54   58   56 ar
    55   59   58 1
    56   60   58 ar
    57   61   60 1
    58   62   60 ar
    59   63   62 1
    60   64   55 ar
    61   65   64 1
    62   66   44 1
    63   67   66 ar
    64   68   67 1
    65   69   67 ar
    66   70   69 1
    67   71   69 ar
    68   72   71 1
    69   73   71 ar
    70   74   73 1
    71   75   66 ar
    72   76   75 1
    73    7   16 ar
    74   13   15 ar
    75   15   16 ar
    76   24   26 ar
    77   35   37 ar
    78   45   54 ar
    79   51   53 ar
    80   53   54 ar
    81   62   64 ar
    82   73   75 ar
@<TRIPOS>SUBSTRUCTURE
     1 RES1 1
     2 RES2 39

@<TRIPOS>CRYSIN
  21.4450    5.9193   25.5240  90.0000 114.1550  90.0000  14 1

