# MOL2 file generated by ConQuest
# Please check atom types

@<TRIPOS>MOLECULE
ZEDKAW
    64    68     1
SMALL
NO_CHARGES
****
Generated from CSD

@<TRIPOS>ATOM
      1 C1         2.3996   21.4262    2.9873 C.3       1 RES1    0.0000
      2 H1         1.7867   21.0134    3.6003 H         1 RES1    0.0000
      3 H2         2.1304   21.2312    2.0863 H         1 RES1    0.0000
      4 H3         2.3989   22.3752    3.1234 H         1 RES1    0.0000
      5 C2         3.7907   20.8840    3.2252 C.ar      1 RES1    0.0000
      6 C3         4.5987   21.4078    4.2159 C.ar      1 RES1    0.0000
      7 H4         4.2848   22.1176    4.7287 H         1 RES1    0.0000
      8 C4         5.8618   20.9042    4.4632 C.ar      1 RES1    0.0000
      9 C5         6.7350   21.4906    5.5306 C.3       1 RES1    0.0000
     10 H5         7.4927   20.9183    5.6751 H         1 RES1    0.0000
     11 H6         6.2345   21.5716    6.3460 H         1 RES1    0.0000
     12 H7         7.0380   22.3599    5.2551 H         1 RES1    0.0000
     13 C6         6.3052   19.8390    3.6848 C.ar      1 RES1    0.0000
     14 H8         7.1506   19.4829    3.8402 H         1 RES1    0.0000
     15 C7         5.5160   19.2930    2.6815 C.ar      1 RES1    0.0000
     16 C8         4.2690   19.8429    2.4708 C.ar      1 RES1    0.0000
     17 H9         3.7336   19.4951    1.7936 H         1 RES1    0.0000
     18 C9         5.9239   18.1719    1.7941 C.2       1 RES1    0.0000
     19 H10        5.3226   17.9493    1.1211 H         1 RES1    0.0000
     20 C10        6.9848   17.4815    1.8353 C.2       1 RES1    0.0000
     21 H11        7.5986   17.6793    2.5057 H         1 RES1    0.0000
     22 C11        7.3261   16.3816    0.8968 C.ar      1 RES1    0.0000
     23 C12        8.4994   16.4954    0.1372 C.ar      1 RES1    0.0000
     24 C13        9.3195   17.6594    0.2087 C.ar      1 RES1    0.0000
     25 H12        9.0865   18.3419    0.7961 H         1 RES1    0.0000
     26 C14       10.4261   17.7977   -0.5556 C.ar      1 RES1    0.0000
     27 H13       10.9564   18.5566   -0.4742 H         1 RES1    0.0000
     28 C15       10.7741   16.7929   -1.4728 C.ar      1 RES1    0.0000
     29 H14       11.5262   16.9003   -2.0096 H         1 RES1    0.0000
     30 C16       10.0298   15.6709   -1.5844 C.ar      1 RES1    0.0000
     31 H15       10.2720   15.0231   -2.2073 H         1 RES1    0.0000
     32 C17        8.8836   15.4565   -0.7711 C.ar      1 RES1    0.0000
     33 C1B       13.0146    9.2458   -2.9873 C.3       1 RES1    0.0000
     34 H1B       13.6275    9.6586   -3.6003 H         1 RES1    0.0000
     35 H2B       13.2838    9.4408   -2.0863 H         1 RES1    0.0000
     36 H3B       13.0153    8.2968   -3.1234 H         1 RES1    0.0000
     37 C2B       11.6235    9.7880   -3.2252 C.ar      1 RES1    0.0000
     38 C3B       10.8155    9.2642   -4.2159 C.ar      1 RES1    0.0000
     39 H4B       11.1294    8.5544   -4.7287 H         1 RES1    0.0000
     40 C4B        9.5524    9.7678   -4.4632 C.ar      1 RES1    0.0000
     41 C5B        8.6792    9.1814   -5.5306 C.3       1 RES1    0.0000
     42 H5B        7.9215    9.7537   -5.6751 H         1 RES1    0.0000
     43 H6B        9.1797    9.1004   -6.3460 H         1 RES1    0.0000
     44 H7B        8.3762    8.3121   -5.2551 H         1 RES1    0.0000
     45 C6B        9.1090   10.8330   -3.6848 C.ar      1 RES1    0.0000
     46 H8B        8.2636   11.1891   -3.8402 H         1 RES1    0.0000
     47 C7B        9.8982   11.3790   -2.6815 C.ar      1 RES1    0.0000
     48 C8B       11.1452   10.8291   -2.4708 C.ar      1 RES1    0.0000
     49 H9B       11.6806   11.1769   -1.7936 H         1 RES1    0.0000
     50 C9B        9.4903   12.5001   -1.7941 C.2       1 RES1    0.0000
     51 H10B      10.0916   12.7227   -1.1211 H         1 RES1    0.0000
     52 C10B       8.4294   13.1905   -1.8353 C.2       1 RES1    0.0000
     53 H11B       7.8156   12.9927   -2.5057 H         1 RES1    0.0000
     54 C11B       8.0881   14.2904   -0.8968 C.ar      1 RES1    0.0000
     55 C12B       6.9148   14.1766   -0.1372 C.ar      1 RES1    0.0000
     56 C13B       6.0947   13.0126   -0.2087 C.ar      1 RES1    0.0000
     57 H12B       6.3277   12.3301   -0.7961 H         1 RES1    0.0000
     58 C14B       4.9881   12.8743    0.5556 C.ar      1 RES1    0.0000
     59 H13B       4.4578   12.1154    0.4742 H         1 RES1    0.0000
     60 C15B       4.6401   13.8791    1.4728 C.ar      1 RES1    0.0000
     61 H14B       3.8880   13.7717    2.0096 H         1 RES1    0.0000
     62 C16B       5.3844   15.0011    1.5844 C.ar      1 RES1    0.0000
     63 H15B       5.1422   15.6489    2.2073 H         1 RES1    0.0000
     64 C17B       6.5306   15.2155    0.7711 C.ar      1 RES1    0.0000
@<TRIPOS>BOND
     1    1    2 1
     2    3    1 1
     3    4    1 1
     4    5    1 1
     5    6    5 ar
     6    7    6 1
     7    8    6 ar
     8    9    8 1
     9   10    9 1
    10   11    9 1
    11   12    9 1
    12   13    8 ar
    13   14   13 1
    14   15   13 ar
    15   16    5 ar
    16   17   16 1
    17   18   15 1
    18   19   18 1
    19   20   18 2
    20   21   20 1
    21   22   20 1
    22   23   22 ar
    23   24   23 ar
    24   25   24 1
    25   26   24 ar
    26   27   26 1
    27   28   26 ar
    28   29   28 1
    29   30   28 ar
    30   31   30 1
    31   32   23 ar
    32   33   34 1
    33   35   33 1
    34   36   33 1
    35   37   33 1
    36   38   37 ar
    37   39   38 1
    38   40   38 ar
    39   41   40 1
    40   42   41 1
    41   43   41 1
    42   44   41 1
    43   45   40 ar
    44   46   45 1
    45   47   45 ar
    46   48   37 ar
    47   49   48 1
    48   50   47 1
    49   51   50 1
    50   52   50 2
    51   53   52 1
    52   54   32 ar
    53   55   54 ar
    54   56   55 ar
    55   57   56 1
    56   58   56 ar
    57   59   58 1
    58   60   58 ar
    59   61   60 1
    60   62   60 ar
    61   63   62 1
    62   64   22 ar
    63   15   16 ar
    64   30   32 ar
    65   47   48 ar
    66   52   54 1
    67   55   64 ar
    68   62   64 ar
@<TRIPOS>SUBSTRUCTURE
     1 RES1 1

@<TRIPOS>CRYSIN
   7.7071   30.6720    5.2356  90.0000  94.8300  90.0000  14 1

