# MOL2 file generated by ConQuest
# Please check atom types

@<TRIPOS>MOLECULE
ZEFYAK
    52    58     1
SMALL
NO_CHARGES
****
Generated from CSD

@<TRIPOS>ATOM
      1 C1        11.2780   15.9529    0.7661 C.3       1 RES1    0.0000
      2 C2        11.6555   15.3577    2.1032 C.ar      1 RES1    0.0000
      3 C3        12.7259   15.9042    2.7965 C.ar      1 RES1    0.0000
      4 C4        13.1298   15.3114    3.9751 C.ar      1 RES1    0.0000
      5 C5        12.5085   14.1837    4.4792 C.ar      1 RES1    0.0000
      6 C6        11.4357   13.6603    3.7699 C.ar      1 RES1    0.0000
      7 C7        10.9984   14.2392    2.5826 C.ar      1 RES1    0.0000
      8 C8         9.8802   13.6094    1.7627 C.3       1 RES1    0.0000
      9 C9        10.5946   12.6182    0.8279 C.3       1 RES1    0.0000
     10 C10        9.1251   14.6491    0.9385 C.ar      1 RES1    0.0000
     11 C11        7.7751   14.5426    0.6271 C.ar      1 RES1    0.0000
     12 C12        7.1276   15.4874   -0.1673 C.ar      1 RES1    0.0000
     13 C13        7.8253   16.5573   -0.6635 C.ar      1 RES1    0.0000
     14 C14        9.1729   16.6916   -0.3281 C.ar      1 RES1    0.0000
     15 C15        9.8228   15.7607    0.4452 C.ar      1 RES1    0.0000
     16 C16        8.8073   10.9046    1.0731 C.ar      1 RES1    0.0000
     17 C17        9.6460   11.6688    0.0931 C.3       1 RES1    0.0000
     18 C18        8.3868    9.5893    0.8003 C.ar      1 RES1    0.0000
     19 C19        8.7189    8.8946   -0.4023 C.ar      1 RES1    0.0000
     20 C20        8.3510    7.5955   -0.5885 C.ar      1 RES1    0.0000
     21 C21        7.6102    6.9008    0.3812 C.ar      1 RES1    0.0000
     22 C22        7.2255    7.5237    1.5110 C.ar      1 RES1    0.0000
     23 C23        7.6294    8.8807    1.7533 C.ar      1 RES1    0.0000
     24 C24        7.2112    9.4990    2.9318 C.ar      1 RES1    0.0000
     25 C25        7.5720   10.8120    3.1879 C.ar      1 RES1    0.0000
     26 C26        7.1013   11.4928    4.3424 C.ar      1 RES1    0.0000
     27 C27        7.4478   12.7780    4.5978 C.ar      1 RES1    0.0000
     28 C28        8.3486   13.4357    3.7481 C.ar      1 RES1    0.0000
     29 C29        8.8575   12.8429    2.6154 C.ar      1 RES1    0.0000
     30 C30        8.4441   11.5206    2.2953 C.ar      1 RES1    0.0000
     31 H1        11.8275   15.5615    0.0946 H         1 RES1    0.0000
     32 H2        11.4930   16.9046    0.7784 H         1 RES1    0.0000
     33 H3        13.1895   16.6962    2.4226 H         1 RES1    0.0000
     34 H4        13.8824   15.7468    4.4741 H         1 RES1    0.0000
     35 H5        12.8311   13.8016    5.3326 H         1 RES1    0.0000
     36 H6        10.9912   12.8290    4.1031 H         1 RES1    0.0000
     37 H7        11.2063   13.0837    0.2110 H         1 RES1    0.0000
     38 H8        11.2302   12.0416    1.3677 H         1 RES1    0.0000
     39 H9         7.2877   13.7321    0.9749 H         1 RES1    0.0000
     40 H10        6.1647   15.3994   -0.3783 H         1 RES1    0.0000
     41 H11        7.3594   17.2288   -1.2222 H         1 RES1    0.0000
     42 H12        9.6771   17.4835   -0.6693 H         1 RES1    0.0000
     43 H13        9.0797   12.2501   -0.4656 H         1 RES1    0.0000
     44 H14       10.1311   11.1154   -0.5165 H         1 RES1    0.0000
     45 H15        9.2709    9.3786   -1.0840 H         1 RES1    0.0000
     46 H16        8.6018    7.1092   -1.4405 H         1 RES1    0.0000
     47 H17        7.3355    5.9745    0.2037 H         1 RES1    0.0000
     48 H18        6.6903    7.0166    2.1752 H         1 RES1    0.0000
     49 H19        6.6186    9.0312    3.5502 H         1 RES1    0.0000
     50 H20        6.5231   11.0227    4.9979 H         1 RES1    0.0000
     51 H21        7.0726   13.3153    5.3544 H         1 RES1    0.0000
     52 H22        8.6496   14.3573    3.9358 H         1 RES1    0.0000
@<TRIPOS>BOND
     1    1    2 1
     2    2    3 ar
     3    3    4 ar
     4    4    5 ar
     5    5    6 ar
     6    6    7 ar
     7    7    2 ar
     8    8    7 1
     9    9    8 1
    10   10    8 1
    11   11   10 ar
    12   12   11 ar
    13   13   12 ar
    14   14   13 ar
    15   15    1 1
    16   16   17 1
    17   17    9 1
    18   18   16 ar
    19   19   18 ar
    20   20   19 ar
    21   21   20 ar
    22   22   21 ar
    23   23   18 ar
    24   24   23 ar
    25   25   24 ar
    26   26   25 ar
    27   27   26 ar
    28   28   27 ar
    29   29    8 1
    30   30   16 ar
    31   31    1 1
    32   32    1 1
    33   33    3 1
    34   34    4 1
    35   35    5 1
    36   36    6 1
    37   37    9 1
    38   38    9 1
    39   39   11 1
    40   40   12 1
    41   41   13 1
    42   42   14 1
    43   43   17 1
    44   44   17 1
    45   45   19 1
    46   46   20 1
    47   47   21 1
    48   48   22 1
    49   49   24 1
    50   50   26 1
    51   51   27 1
    52   52   28 1
    53   10   15 ar
    54   14   15 ar
    55   22   23 ar
    56   25   30 ar
    57   28   29 ar
    58   29   30 ar
@<TRIPOS>SUBSTRUCTURE
     1 RES1 1

@<TRIPOS>CRYSIN
  23.8940   23.1570    7.2750  90.0000  90.0000  90.0000  56 1

