# MOL2 file generated by ConQuest
# Please check atom types

@<TRIPOS>MOLECULE
ZEFYER
    80    88     2
SMALL
NO_CHARGES
****
Generated from CSD

@<TRIPOS>ATOM
      1 C1         4.6261   -1.0554   14.2057 C.ar      1 RES1    0.0000
      2 H1         4.9977   -1.8561   13.8547 H         1 RES1    0.0000
      3 C2         5.3462   -0.2884   15.1026 C.ar      1 RES1    0.0000
      4 H2         6.2123   -0.5683   15.3734 H         1 RES1    0.0000
      5 C3         4.8141    0.8827   15.6092 C.ar      1 RES1    0.0000
      6 H3         5.3276    1.4098   16.2107 H         1 RES1    0.0000
      7 C4         3.5270    1.3030   15.2475 C.ar      1 RES1    0.0000
      8 C5         2.8120    0.5155   14.3458 C.ar      1 RES1    0.0000
      9 H4         1.9378    0.7798   14.0852 H         1 RES1    0.0000
     10 C6         3.3572   -0.6474   13.8225 C.ar      1 RES1    0.0000
     11 H5         2.8600   -1.1652   13.2005 H         1 RES1    0.0000
     12 C7         2.9523    2.5410   15.7938 C.2       1 RES1    0.0000
     13 C8         3.0869    3.0269   17.0719 C.2       1 RES1    0.0000
     14 C9         3.7149    2.3568   18.2257 C.ar      1 RES1    0.0000
     15 C10        3.4294    1.0195   18.5139 C.ar      1 RES1    0.0000
     16 H6         2.8160    0.5411   17.9684 H         1 RES1    0.0000
     17 C11        4.0303    0.3870   19.5847 C.ar      1 RES1    0.0000
     18 H7         3.8275   -0.5219   19.7702 H         1 RES1    0.0000
     19 C12        4.9266    1.0680   20.3880 C.ar      1 RES1    0.0000
     20 H8         5.3433    0.6285   21.1194 H         1 RES1    0.0000
     21 C13        5.2118    2.3921   20.1187 C.ar      1 RES1    0.0000
     22 H9         5.8275    2.8634   20.6685 H         1 RES1    0.0000
     23 C14        4.6054    3.0371   19.0479 C.ar      1 RES1    0.0000
     24 H10        4.8008    3.9504   18.8769 H         1 RES1    0.0000
     25 C15        2.4149    4.3354   17.1599 C.ar      1 RES1    0.0000
     26 C16        2.1850    5.2520   18.1549 C.ar      1 RES1    0.0000
     27 H11        2.5156    5.1093   19.0346 H         1 RES1    0.0000
     28 C17        1.4405    6.4168   17.8374 C.ar      1 RES1    0.0000
     29 H12        1.2946    7.0614   18.5193 H         1 RES1    0.0000
     30 C18        0.9229    6.6539   16.5907 C.ar      1 RES1    0.0000
     31 H13        0.4351    7.4509   16.4209 H         1 RES1    0.0000
     32 C19        1.1179    5.7002   15.5502 C.ar      1 RES1    0.0000
     33 C20        1.8670    4.5838   15.8855 C.ar      1 RES1    0.0000
     34 C21        2.1605    3.5179   15.0093 C.ar      1 RES1    0.0000
     35 C22        1.6876    3.5940   13.7244 C.ar      1 RES1    0.0000
     36 H14        1.8782    2.9076   13.0954 H         1 RES1    0.0000
     37 C23        0.9079    4.7194   13.3525 C.ar      1 RES1    0.0000
     38 H15        0.5718    4.7675   12.4648 H         1 RES1    0.0000
     39 C24        0.6197    5.7399   14.2222 C.ar      1 RES1    0.0000
     40 H16        0.0865    6.4727   13.9361 H         1 RES1    0.0000
     41 C25        3.4901    6.3730    9.2610 C.ar      2 RES2    0.0000
     42 C26        2.3424    6.3955   10.0544 C.ar      2 RES2    0.0000
     43 H17        1.7867    5.6258   10.0970 H         2 RES2    0.0000
     44 C27        2.0028    7.5254   10.7799 C.ar      2 RES2    0.0000
     45 H18        1.2202    7.5248   11.3173 H         2 RES2    0.0000
     46 C28        2.7987    8.6546   10.7246 C.ar      2 RES2    0.0000
     47 H19        2.5662    9.4286   11.2224 H         2 RES2    0.0000
     48 C29        3.9408    8.6488    9.9354 C.ar      2 RES2    0.0000
     49 H20        4.4862    9.4250    9.8885 H         2 RES2    0.0000
     50 C30        4.2894    7.5202    9.2183 C.ar      2 RES2    0.0000
     51 H21        5.0795    7.5238    8.6901 H         2 RES2    0.0000
     52 C31        3.8664    5.1599    8.5198 C.2       2 RES2    0.0000
     53 C32        4.3790    5.0626    7.2508 C.2       2 RES2    0.0000
     54 C33        4.5846    6.1514    6.2772 C.ar      2 RES2    0.0000
     55 C34        3.6144    7.1374    6.0909 C.ar      2 RES2    0.0000
     56 H22        2.8135    7.1127    6.6019 H         2 RES2    0.0000
     57 C35        3.8078    8.1515    5.1688 C.ar      2 RES2    0.0000
     58 H23        3.1384    8.8140    5.0459 H         2 RES2    0.0000
     59 C36        4.9783    8.2014    4.4249 C.ar      2 RES2    0.0000
     60 H24        5.1134    8.9030    3.7984 H         2 RES2    0.0000
     61 C37        5.9439    7.2319    4.5951 C.ar      2 RES2    0.0000
     62 H25        6.7454    7.2683    4.0866 H         2 RES2    0.0000
     63 C38        5.7499    6.2042    5.5061 C.ar      2 RES2    0.0000
     64 H26        6.4127    5.5310    5.6070 H         2 RES2    0.0000
     65 C39        4.6514    3.6390    6.9562 C.ar      2 RES2    0.0000
     66 C40        5.1096    2.9290    5.8741 C.ar      2 RES2    0.0000
     67 H27        5.3586    3.3728    5.0714 H         2 RES2    0.0000
     68 C41        5.2035    1.5143    5.9836 C.ar      2 RES2    0.0000
     69 H28        5.5346    1.0217    5.2409 H         2 RES2    0.0000
     70 C42        4.8380    0.8290    7.1147 C.ar      2 RES2    0.0000
     71 H29        4.9208   -0.1172    7.1460 H         2 RES2    0.0000
     72 C43        4.3347    1.5401    8.2384 C.ar      2 RES2    0.0000
     73 C44        4.2717    2.9182    8.1062 C.ar      2 RES2    0.0000
     74 C45        3.7806    3.7963    9.0908 C.ar      2 RES2    0.0000
     75 C46        3.3700    3.2582   10.2873 C.ar      2 RES2    0.0000
     76 H30        3.0500    3.8170   10.9851 H         2 RES2    0.0000
     77 C47        3.4363    1.8532   10.4561 C.ar      2 RES2    0.0000
     78 H31        3.1514    1.4807   11.2834 H         2 RES2    0.0000
     79 C48        3.8917    1.0086    9.4796 C.ar      2 RES2    0.0000
     80 H32        3.9104    0.0711    9.6308 H         2 RES2    0.0000
@<TRIPOS>BOND
     1    1    2 1
     2    3    1 ar
     3    4    3 1
     4    5    3 ar
     5    6    5 1
     6    7    5 ar
     7    8    7 ar
     8    9    8 1
     9   10    1 ar
    10   11   10 1
    11   12    7 1
    12   13   12 2
    13   14   13 1
    14   15   14 ar
    15   16   15 1
    16   17   15 ar
    17   18   17 1
    18   19   17 ar
    19   20   19 1
    20   21   19 ar
    21   22   21 1
    22   23   14 ar
    23   24   23 1
    24   25   13 1
    25   26   25 ar
    26   27   26 1
    27   28   26 ar
    28   29   28 1
    29   30   28 ar
    30   31   30 1
    31   32   30 ar
    32   33   25 ar
    33   34   12 1
    34   35   34 ar
    35   36   35 1
    36   37   35 ar
    37   38   37 1
    38   39   32 ar
    39   40   39 1
    40   41   42 ar
    41   42   43 1
    42   44   42 ar
    43   45   44 1
    44   46   44 ar
    45   47   46 1
    46   48   46 ar
    47   49   48 1
    48   50   41 ar
    49   51   50 1
    50   52   41 1
    51   53   52 2
    52   54   53 1
    53   55   54 ar
    54   56   55 1
    55   57   55 ar
    56   58   57 1
    57   59   57 ar
    58   60   59 1
    59   61   59 ar
    60   62   61 1
    61   63   54 ar
    62   64   63 1
    63   65   53 1
    64   66   65 ar
    65   67   66 1
    66   68   66 ar
    67   69   68 1
    68   70   68 ar
    69   71   70 1
    70   72   70 ar
    71   73   65 ar
    72   74   52 1
    73   75   74 ar
    74   76   75 1
    75   77   75 ar
    76   78   77 1
    77   79   72 ar
    78   80   79 1
    79    8   10 ar
    80   21   23 ar
    81   32   33 ar
    82   33   34 ar
    83   37   39 ar
    84   48   50 ar
    85   61   63 ar
    86   72   73 ar
    87   73   74 ar
    88   77   79 ar
@<TRIPOS>SUBSTRUCTURE
     1 RES1 1
     2 RES2 41

@<TRIPOS>CRYSIN
   9.0537   10.6469   17.1815  90.3070  98.9480 106.2880   2 1

