# MOL2 file generated by ConQuest
# Please check atom types

@<TRIPOS>MOLECULE
ZEGKAX10
    72    78     2
SMALL
NO_CHARGES
****
Generated from CSD

@<TRIPOS>ATOM
      1 C1         9.6570    7.0491    3.0064 C.ar      1 RES1    0.0000
      2 C2        10.4425    6.1311    3.5621 C.ar      1 RES1    0.0000
      3 C3         9.8933    4.8991    3.9844 C.ar      1 RES1    0.0000
      4 C4         8.5613    4.6056    3.7625 C.ar      1 RES1    0.0000
      5 C5         5.7417    3.9640    2.8008 C.ar      1 RES1    0.0000
      6 C6         4.3485    3.8138    2.7762 C.ar      1 RES1    0.0000
      7 C7         2.0686    4.8376    2.7449 C.ar      1 RES1    0.0000
      8 C8         1.2674    5.9024    2.5788 C.ar      1 RES1    0.0000
      9 C9         1.8199    7.1618    2.3680 C.ar      1 RES1    0.0000
     10 C10        3.1763    7.3290    2.3516 C.ar      1 RES1    0.0000
     11 C11        6.0591    7.6703    2.3174 C.ar      1 RES1    0.0000
     12 C12        7.4247    7.8409    2.3695 C.ar      1 RES1    0.0000
     13 C13        8.2584    6.7949    2.8060 C.ar      1 RES1    0.0000
     14 C14        7.7286    5.5287    3.1092 C.ar      1 RES1    0.0000
     15 C15        6.2912    5.2847    2.8343 C.ar      1 RES1    0.0000
     16 C16        5.4981    6.3956    2.5639 C.ar      1 RES1    0.0000
     17 C17        4.0378    6.2335    2.5304 C.ar      1 RES1    0.0000
     18 C18        3.5002    4.9656    2.7084 C.ar      1 RES1    0.0000
     19 C19        6.5750    2.7285    2.6332 C.3       1 RES1    0.0000
     20 C20        3.7160    2.4282    2.7457 C.3       1 RES1    0.0000
     21 C1'       12.5216    2.4470    3.1762 C.ar      2 RES2    0.0000
     22 C2'       11.9511    1.5511    4.0112 C.ar      2 RES2    0.0000
     23 C3'       12.7646    0.7338    4.8023 C.ar      2 RES2    0.0000
     24 C4'       14.1181    0.8686    4.7614 C.ar      2 RES2    0.0000
     25 C5'       17.1299    1.4573    4.8351 C.ar      2 RES2    0.0000
     26 C6'       18.4606    1.3668    4.5505 C.ar      2 RES2    0.0000
     27 C7'       20.3832    1.8787    3.0407 C.ar      2 RES2    0.0000
     28 C8'       20.8932    2.5408    1.9300 C.ar      2 RES2    0.0000
     29 C9'       20.0581    3.3019    1.1345 C.ar      2 RES2    0.0000
     30 C10'      18.7266    3.3650    1.4034 C.ar      2 RES2    0.0000
     31 C11'      15.8305    3.4111    1.8995 C.ar      2 RES2    0.0000
     32 C12'      14.5054    3.4162    2.0931 C.ar      2 RES2    0.0000
     33 C13'      13.9233    2.5886    3.0876 C.ar      2 RES2    0.0000
     34 C14'      14.7631    1.8258    3.9390 C.ar      2 RES2    0.0000
     35 C15'      16.2063    1.9794    3.8444 C.ar      2 RES2    0.0000
     36 C16'      16.7308    2.6808    2.7434 C.ar      2 RES2    0.0000
     37 C17'      18.1504    2.6773    2.4894 C.ar      2 RES2    0.0000
     38 C18'      19.0061    1.9436    3.3475 C.ar      2 RES2    0.0000
     39 C19'      16.6575    1.1518    6.2415 C.3       2 RES2    0.0000
     40 C20'      19.4070    0.6979    5.5264 C.3       2 RES2    0.0000
     41 H1         9.9319    8.0201    2.7710 H         1 RES1    0.0000
     42 H2        11.4290    6.2796    3.6500 H         1 RES1    0.0000
     43 H3        10.5119    4.1295    4.4470 H         1 RES1    0.0000
     44 H4         8.2088    3.6005    4.0597 H         1 RES1    0.0000
     45 H7         1.7689    4.0442    2.9945 H         1 RES1    0.0000
     46 H8         0.3297    5.6994    2.6295 H         1 RES1    0.0000
     47 H9         1.1969    7.9348    2.3241 H         1 RES1    0.0000
     48 H10        3.6822    8.2248    2.1155 H         1 RES1    0.0000
     49 H11        5.4590    8.4637    2.0261 H         1 RES1    0.0000
     50 H12        7.8048    8.7368    2.0857 H         1 RES1    0.0000
     51 H119       6.1052    2.1330    1.9293 H         1 RES1    0.0000
     52 H219       6.8134    2.2354    3.5755 H         1 RES1    0.0000
     53 H319       7.6717    3.0374    2.2794 H         1 RES1    0.0000
     54 H120       4.4140    1.7064    3.2328 H         1 RES1    0.0000
     55 H220       3.3439    2.1330    1.7430 H         1 RES1    0.0000
     56 H320       2.8062    2.4231    3.5308 H         1 RES1    0.0000
     57 H1'       12.0462    2.9862    2.5699 H         2 RES2    0.0000
     58 H2'       11.0152    1.4334    4.1044 H         2 RES2    0.0000
     59 H3'       12.3402   -0.0171    5.2515 H         2 RES2    0.0000
     60 H4'       14.6846    0.2389    5.2589 H         2 RES2    0.0000
     61 H7'       20.9857    1.3651    3.6351 H         2 RES2    0.0000
     62 H8'       21.8792    2.5255    1.6835 H         2 RES2    0.0000
     63 H9'       20.4410    3.8906    0.3799 H         2 RES2    0.0000
     64 H10'      18.1152    3.8565    0.8119 H         2 RES2    0.0000
     65 H11'      16.1986    3.9930    1.2142 H         2 RES2    0.0000
     66 H12'      13.8686    3.9418    1.5270 H         2 RES2    0.0000
     67 H119'     15.7953    1.6381    6.4582 H         2 RES2    0.0000
     68 H219'     16.4808    0.1706    6.3986 H         2 RES2    0.0000
     69 H319'     17.3526    1.3992    6.7785 H         2 RES2    0.0000
     70 H120'     19.0000    0.1194    6.1677 H         2 RES2    0.0000
     71 H220'     20.0246    0.1194    5.0131 H         2 RES2    0.0000
     72 H320'     19.9293    1.3481    5.9219 H         2 RES2    0.0000
@<TRIPOS>BOND
     1    1    2 ar
     2    2    3 ar
     3    3    4 ar
     4    4   14 ar
     5    5    6 ar
     6    6   18 ar
     7    7    8 ar
     8    8    9 ar
     9    9   10 ar
    10   10   17 ar
    11   11   12 ar
    12   12   13 ar
    13   13    1 ar
    14   14   13 ar
    15   15    5 ar
    16   16   11 ar
    17   17   16 ar
    18   18    7 ar
    19   19    5 1
    20   20    6 1
    21   21   22 ar
    22   22   23 ar
    23   23   24 ar
    24   24   34 ar
    25   25   26 ar
    26   26   38 ar
    27   27   28 ar
    28   28   29 ar
    29   29   30 ar
    30   30   37 ar
    31   31   32 ar
    32   32   33 ar
    33   33   21 ar
    34   34   33 ar
    35   35   25 ar
    36   36   31 ar
    37   37   36 ar
    38   38   27 ar
    39   39   25 1
    40   40   26 1
    41   41    1 1
    42   42    2 1
    43   43    3 1
    44   44    4 1
    45   45    7 1
    46   46    8 1
    47   47    9 1
    48   48   10 1
    49   49   11 1
    50   50   12 1
    51   51   19 1
    52   52   19 1
    53   53   19 1
    54   54   20 1
    55   55   20 1
    56   56   20 1
    57   57   21 1
    58   58   22 1
    59   59   23 1
    60   60   24 1
    61   61   27 1
    62   62   28 1
    63   63   29 1
    64   64   30 1
    65   65   31 1
    66   66   32 1
    67   67   39 1
    68   68   39 1
    69   69   39 1
    70   70   40 1
    71   71   40 1
    72   72   40 1
    73   14   15 ar
    74   15   16 ar
    75   17   18 ar
    76   34   35 ar
    77   35   36 ar
    78   37   38 ar
@<TRIPOS>SUBSTRUCTURE
     1 RES1 1
     2 RES2 21

@<TRIPOS>CRYSIN
  21.7920   17.0640    7.4610  90.0000  93.2600  90.0000  14 1

