# MOL2 file generated by ConQuest
# Please check atom types

@<TRIPOS>MOLECULE
ZERQAR
    46    51     1
SMALL
NO_CHARGES
****
Generated from CSD

@<TRIPOS>ATOM
      1 C1         4.3242  -20.3743  -30.4132 C.1       1 RES1    0.0000
      2 H1         4.8938  -20.0109  -29.7389 H         1 RES1    0.0000
      3 C2         3.6434  -20.8069  -31.2704 C.1       1 RES1    0.0000
      4 C3         2.8473  -21.3187  -32.3578 C.ar      1 RES1    0.0000
      5 C4         1.7635  -20.5966  -32.8133 C.ar      1 RES1    0.0000
      6 H2         1.5340  -19.7712  -32.4023 H         1 RES1    0.0000
      7 C5         1.0050  -21.0843  -33.8807 C.ar      1 RES1    0.0000
      8 H3         0.2290  -20.6139  -34.1604 H         1 RES1    0.0000
      9 C6         1.3704  -22.2366  -34.5284 C.ar      1 RES1    0.0000
     10 H4         0.8496  -22.5390  -35.2622 H         1 RES1    0.0000
     11 C7         2.5020  -22.9858  -34.1320 C.ar      1 RES1    0.0000
     12 C8         3.2075  -22.5556  -32.9763 C.ar      1 RES1    0.0000
     13 C9         4.2228  -23.3890  -32.4236 C.ar      1 RES1    0.0000
     14 H5         4.7436  -23.0785  -31.6914 H         1 RES1    0.0000
     15 C10        4.4456  -24.6144  -32.9358 C.ar      1 RES1    0.0000
     16 H6         5.0745  -25.1852  -32.5097 H         1 RES1    0.0000
     17 C11        3.7669  -25.0788  -34.0968 C.ar      1 RES1    0.0000
     18 C12        2.8905  -24.2156  -34.8014 C.ar      1 RES1    0.0000
     19 C13        3.9130  -26.4335  -34.5023 C.ar      1 RES1    0.0000
     20 H7         4.5568  -26.9887  -34.0794 H         1 RES1    0.0000
     21 C14        3.1380  -26.9303  -35.4876 C.ar      1 RES1    0.0000
     22 H8         3.1344  -27.8660  -35.6551 H         1 RES1    0.0000
     23 C15        2.3291  -26.0755  -36.2788 C.ar      1 RES1    0.0000
     24 C16        2.3548  -24.6718  -36.0695 C.ar      1 RES1    0.0000
     25 C17        1.4893  -26.6293  -37.2834 C.ar      1 RES1    0.0000
     26 H9         1.4450  -27.5717  -37.3909 H         1 RES1    0.0000
     27 C18        0.7539  -25.8318  -38.0868 C.ar      1 RES1    0.0000
     28 H10        0.1014  -26.2114  -38.6629 H         1 RES1    0.0000
     29 C19        0.9556  -24.4255  -38.0704 C.ar      1 RES1    0.0000
     30 C20        1.8418  -23.8405  -37.1426 C.ar      1 RES1    0.0000
     31 C21        2.2740  -22.4718  -37.4041 C.ar      1 RES1    0.0000
     32 C22        1.5922  -21.6965  -38.3781 C.ar      1 RES1    0.0000
     33 C23        0.5635  -22.2959  -39.1619 C.ar      1 RES1    0.0000
     34 H11        0.0623  -21.7672  -39.7708 H         1 RES1    0.0000
     35 C24        0.3000  -23.6117  -39.0406 C.ar      1 RES1    0.0000
     36 H12       -0.3407  -24.0083  -39.6188 H         1 RES1    0.0000
     37 C25        3.4025  -21.9012  -36.7849 C.ar      1 RES1    0.0000
     38 H13        3.9048  -22.4228  -36.1716 H         1 RES1    0.0000
     39 C26        3.7972  -20.6128  -37.0431 C.ar      1 RES1    0.0000
     40 H14        4.5696  -20.2615  -36.6152 H         1 RES1    0.0000
     41 C27        3.0722  -19.8142  -37.9297 C.ar      1 RES1    0.0000
     42 H15        3.3274  -18.9103  -38.0755 H         1 RES1    0.0000
     43 C28        1.9879  -20.3389  -38.5899 C.ar      1 RES1    0.0000
     44 C29        1.2356  -19.5024  -39.4933 C.1       1 RES1    0.0000
     45 C30        0.6005  -18.8166  -40.2078 C.1       1 RES1    0.0000
     46 H16        0.0515  -18.2673  -40.7571 H         1 RES1    0.0000
@<TRIPOS>BOND
     1    1    2 1
     2    3    1 3
     3    4    3 1
     4    5    4 ar
     5    6    5 1
     6    7    5 ar
     7    8    7 1
     8    9    7 ar
     9   10    9 1
    10   11    9 ar
    11   12    4 ar
    12   13   12 ar
    13   14   13 1
    14   15   13 ar
    15   16   15 1
    16   17   15 ar
    17   18   11 ar
    18   19   17 ar
    19   20   19 1
    20   21   19 ar
    21   22   21 1
    22   23   21 ar
    23   24   18 ar
    24   25   23 ar
    25   26   25 1
    26   27   25 ar
    27   28   27 1
    28   29   27 ar
    29   30   24 ar
    30   31   30 ar
    31   32   31 ar
    32   33   32 ar
    33   34   33 1
    34   35   29 ar
    35   36   35 1
    36   37   31 ar
    37   38   37 1
    38   39   37 ar
    39   40   39 1
    40   41   39 ar
    41   42   41 1
    42   43   32 ar
    43   44   43 1
    44   45   44 3
    45   46   45 1
    46   11   12 ar
    47   17   18 ar
    48   23   24 ar
    49   29   30 ar
    50   33   35 ar
    51   41   43 ar
@<TRIPOS>SUBSTRUCTURE
     1 RES1 1

@<TRIPOS>CRYSIN
   5.1460   18.1620   20.2540  90.0000  90.0000  90.0000  19 1

