# MOL2 file generated by ConQuest
# Please check atom types

@<TRIPOS>MOLECULE
ZIHVUK
    75    80     1
SMALL
NO_CHARGES
****
Generated from CSD

@<TRIPOS>ATOM
      1 C1         7.5289    7.2771   24.7719 C.ar      1 RES1    0.0000
      2 C2         8.9522    7.0712   24.5315 C.ar      1 RES1    0.0000
      3 C3         9.9101    7.9200   25.1930 C.ar      1 RES1    0.0000
      4 H1         9.6045    8.5693   25.7830 H         1 RES1    0.0000
      5 C4        11.2409    7.8003   24.9789 C.ar      1 RES1    0.0000
      6 H2        11.8235    8.4060   25.3801 H         1 RES1    0.0000
      7 C5        11.7701    6.7620   24.1500 C.ar      1 RES1    0.0000
      8 C6        13.1656    6.5879   24.0214 C.ar      1 RES1    0.0000
      9 H3        13.7356    7.1710   24.4691 H         1 RES1    0.0000
     10 C7        13.7073    5.5832   23.2544 C.ar      1 RES1    0.0000
     11 H4        14.6287    5.5006   23.1588 H         1 RES1    0.0000
     12 C8        12.8336    4.6836   22.6168 C.ar      1 RES1    0.0000
     13 H5        13.1841    3.9908   22.1042 H         1 RES1    0.0000
     14 C9        11.4681    4.8133   22.7408 C.ar      1 RES1    0.0000
     15 H6        10.9194    4.1831   22.3319 H         1 RES1    0.0000
     16 C10       10.8630    5.8752   23.4724 C.ar      1 RES1    0.0000
     17 C11        9.4190    6.0982   23.5964 C.ar      1 RES1    0.0000
     18 C12        8.4074    5.3909   22.7948 C.ar      1 RES1    0.0000
     19 C13        7.0789    5.5614   23.0863 C.ar      1 RES1    0.0000
     20 H7         6.4596    5.0445   22.6227 H         1 RES1    0.0000
     21 C14        6.5878    6.4872   24.0596 C.ar      1 RES1    0.0000
     22 C15        5.1982    6.7067   24.2186 C.ar      1 RES1    0.0000
     23 H8         4.5931    6.1744   23.7544 H         1 RES1    0.0000
     24 C16        4.7310    7.6978   25.0521 C.ar      1 RES1    0.0000
     25 H9         3.8170    7.8547   25.1313 H         1 RES1    0.0000
     26 C17        5.6548    8.4750   25.7889 C.ar      1 RES1    0.0000
     27 H10        5.3419    9.1369   26.3611 H         1 RES1    0.0000
     28 C18        7.0066    8.2664   25.6698 C.ar      1 RES1    0.0000
     29 H11        7.5938    8.7751   26.1824 H         1 RES1    0.0000
     30 C19        8.6680    4.5648   21.5545 C.2       1 RES1    0.0000
     31 C20        7.9260    3.2554   21.4480 C.ar      1 RES1    0.0000
     32 C21        8.0156    2.2561   22.4560 C.ar      1 RES1    0.0000
     33 C22        7.2612    1.0836   22.3323 C.ar      1 RES1    0.0000
     34 H12        7.3289    0.4362   22.9976 H         1 RES1    0.0000
     35 C23        6.4101    0.8479   21.2497 C.ar      1 RES1    0.0000
     36 C24        6.3259    1.8444   20.2701 C.ar      1 RES1    0.0000
     37 H13        5.7638    1.7084   19.5431 H         1 RES1    0.0000
     38 C25        7.0557    3.0369   20.3430 C.ar      1 RES1    0.0000
     39 C26        8.9357    2.3840   23.6647 C.3       1 RES1    0.0000
     40 H14        8.6694    1.7538   24.3395 H         1 RES1    0.0000
     41 H15        8.8776    3.2745   24.0172 H         1 RES1    0.0000
     42 H16        9.8401    2.2035   23.3970 H         1 RES1    0.0000
     43 C27        5.6111   -0.4344   21.1407 C.3       1 RES1    0.0000
     44 H17        6.1565   -1.1181   20.7448 H         1 RES1    0.0000
     45 H18        4.8379   -0.2838   20.5942 H         1 RES1    0.0000
     46 H19        5.3346   -0.7146   22.0166 H         1 RES1    0.0000
     47 C28        6.8254    4.0634   19.2414 C.3       1 RES1    0.0000
     48 H20        7.5298    3.9999   18.5936 H         1 RES1    0.0000
     49 H21        6.8194    4.9448   19.6237 H         1 RES1    0.0000
     50 H22        5.9830    3.8920   18.8143 H         1 RES1    0.0000
     51 C29        9.3702    5.0210   20.4866 C.2       1 RES1    0.0000
     52 H23        9.5077    4.3916   19.8164 H         1 RES1    0.0000
     53 C30        9.9542    6.3521   20.2116 C.ar      1 RES1    0.0000
     54 C31       11.0321    6.4483   19.3269 C.ar      1 RES1    0.0000
     55 H24       11.4308    5.6693   19.0140 H         1 RES1    0.0000
     56 C32       11.5254    7.6851   18.9033 C.ar      1 RES1    0.0000
     57 H25       12.2508    7.7105   18.3203 H         1 RES1    0.0000
     58 C33       10.9507    8.8903   19.3364 C.ar      1 RES1    0.0000
     59 C34        9.8832    8.7860   20.2466 C.ar      1 RES1    0.0000
     60 H26        9.4913    9.5649   20.5696 H         1 RES1    0.0000
     61 C35        9.3949    7.5609   20.6786 C.ar      1 RES1    0.0000
     62 H27        8.6895    7.5364   21.2844 H         1 RES1    0.0000
     63 C36       11.3925   10.2750   18.8252 C.3       1 RES1    0.0000
     64 C37       10.1939   10.9342   18.1013 C.3       1 RES1    0.0000
     65 H28        9.9442   10.4001   17.3428 H         1 RES1    0.0000
     66 H29       10.4428   11.8129   17.8053 H         1 RES1    0.0000
     67 H30        9.4511   10.9986   18.7057 H         1 RES1    0.0000
     68 C38       12.5693   10.1879   17.8326 C.3       1 RES1    0.0000
     69 H31       13.3210    9.7735   18.2643 H         1 RES1    0.0000
     70 H32       12.8115   11.0702   17.5460 H         1 RES1    0.0000
     71 H33       12.3074    9.6638   17.0730 H         1 RES1    0.0000
     72 C39       11.8311   11.1573   20.0084 C.3       1 RES1    0.0000
     73 H34       11.1057   11.2398   20.6327 H         1 RES1    0.0000
     74 H35       12.0773   12.0269   19.6867 H         1 RES1    0.0000
     75 H36       12.5850   10.7537   20.4470 H         1 RES1    0.0000
@<TRIPOS>BOND
     1    1    2 ar
     2    2    3 ar
     3    3    4 1
     4    5    3 ar
     5    6    5 1
     6    7    5 ar
     7    8    7 ar
     8    9    8 1
     9   10    8 ar
    10   11   10 1
    11   12   10 ar
    12   13   12 1
    13   14   12 ar
    14   15   14 1
    15   16    7 ar
    16   17    2 ar
    17   18   17 ar
    18   19   18 ar
    19   20   19 1
    20   21    1 ar
    21   22   21 ar
    22   23   22 1
    23   24   22 ar
    24   25   24 1
    25   26   24 ar
    26   27   26 1
    27   28    1 ar
    28   29   28 1
    29   30   18 1
    30   31   30 1
    31   32   31 ar
    32   33   32 ar
    33   34   33 1
    34   35   33 ar
    35   36   35 ar
    36   37   36 1
    37   38   31 ar
    38   39   32 1
    39   40   39 1
    40   41   39 1
    41   42   39 1
    42   43   35 1
    43   44   43 1
    44   45   43 1
    45   46   43 1
    46   47   38 1
    47   48   47 1
    48   49   47 1
    49   50   47 1
    50   51   30 2
    51   52   51 1
    52   53   51 1
    53   54   53 ar
    54   55   54 1
    55   56   54 ar
    56   57   56 1
    57   58   56 ar
    58   59   58 ar
    59   60   59 1
    60   61   53 ar
    61   62   61 1
    62   63   58 1
    63   64   63 1
    64   65   64 1
    65   66   64 1
    66   67   64 1
    67   68   63 1
    68   69   68 1
    69   70   68 1
    70   71   68 1
    71   72   63 1
    72   73   72 1
    73   74   72 1
    74   75   72 1
    75   14   16 ar
    76   16   17 ar
    77   19   21 ar
    78   26   28 ar
    79   36   38 ar
    80   59   61 ar
@<TRIPOS>SUBSTRUCTURE
     1 RES1 1

@<TRIPOS>CRYSIN
  18.2630    9.0680   35.0360  90.0000  90.0000  90.0000  61 1

