# MOL2 file generated by ConQuest
# Please check atom types

@<TRIPOS>MOLECULE
ZIXMOK
    42    46     1
SMALL
NO_CHARGES
****
Generated from CSD

@<TRIPOS>ATOM
      1 C1        15.8326    2.0983    9.8525 C.ar      1 RES1    0.0000
      2 C2        16.6374    3.2923    9.9120 C.ar      1 RES1    0.0000
      3 C3        16.5231    4.3172   10.9089 C.ar      1 RES1    0.0000
      4 C4        15.6373    4.2285   12.1482 C.3       1 RES1    0.0000
      5 H1        16.0191    4.8912   12.7920 H         1 RES1    0.0000
      6 C5        15.7189    2.8905   12.8586 C.ar      1 RES1    0.0000
      7 C6        15.2233    1.7385   12.2404 C.ar      1 RES1    0.0000
      8 C7        14.7126    1.8190   10.8311 C.3       1 RES1    0.0000
      9 H2        14.0365    2.5387   10.7686 H         1 RES1    0.0000
     10 H3        14.2729    0.9646   10.5925 H         1 RES1    0.0000
     11 C8        16.0778    1.1628    8.8774 C.ar      1 RES1    0.0000
     12 H4        15.5490    0.3746    8.8544 H         1 RES1    0.0000
     13 C9        17.0876    1.3312    7.9082 C.ar      1 RES1    0.0000
     14 H5        17.2393    0.6595    7.2536 H         1 RES1    0.0000
     15 C10       17.8418    2.4617    7.9180 C.ar      1 RES1    0.0000
     16 H6        18.5191    2.5791    7.2624 H         1 RES1    0.0000
     17 C11       17.6326    3.4669    8.8935 C.ar      1 RES1    0.0000
     18 C12       18.3954    4.6572    8.8346 C.ar      1 RES1    0.0000
     19 H7        19.0519    4.7604    8.1570 H         1 RES1    0.0000
     20 C13       18.1987    5.6562    9.7375 C.ar      1 RES1    0.0000
     21 H8        18.6781    6.4720    9.6627 H         1 RES1    0.0000
     22 C14       17.2755    5.4681   10.7851 C.ar      1 RES1    0.0000
     23 H9        17.1676    6.1580   11.4290 H         1 RES1    0.0000
     24 C15       16.2806    2.7912   14.1282 C.ar      1 RES1    0.0000
     25 H10       16.6196    3.5699   14.5530 H         1 RES1    0.0000
     26 C16       16.3504    1.5619   14.7858 C.ar      1 RES1    0.0000
     27 H11       16.7588    1.5000   15.6413 H         1 RES1    0.0000
     28 C17       15.8186    0.4327   14.1839 C.ar      1 RES1    0.0000
     29 H12       15.8371   -0.4016   14.6375 H         1 RES1    0.0000
     30 C18       15.2601    0.5239   12.9156 C.ar      1 RES1    0.0000
     31 H13       14.8986   -0.2527   12.5049 H         1 RES1    0.0000
     32 C19       14.1932    4.6863   11.9118 C.ar      1 RES1    0.0000
     33 C20       13.2667    4.5635   12.9470 C.ar      1 RES1    0.0000
     34 H14       13.5390    4.1838   13.7746 H         1 RES1    0.0000
     35 C21       11.9541    4.9862   12.7881 C.ar      1 RES1    0.0000
     36 H15       11.3363    4.8905   13.5034 H         1 RES1    0.0000
     37 C22       11.5410    5.5466   11.5941 C.ar      1 RES1    0.0000
     38 H16       10.6392    5.8237   11.4818 H         1 RES1    0.0000
     39 C23       12.4540    5.7000   10.5638 C.ar      1 RES1    0.0000
     40 H17       12.1798    6.0952    9.7437 H         1 RES1    0.0000
     41 C24       13.7759    5.2755   10.7249 C.ar      1 RES1    0.0000
     42 H18       14.3969    5.3915   10.0149 H         1 RES1    0.0000
@<TRIPOS>BOND
     1    1    2 ar
     2    2    3 ar
     3    3    4 1
     4    4    5 1
     5    6    4 1
     6    7    6 ar
     7    8    1 1
     8    9    8 1
     9   10    8 1
    10   11    1 ar
    11   12   11 1
    12   13   11 ar
    13   14   13 1
    14   15   13 ar
    15   16   15 1
    16   17    2 ar
    17   18   17 ar
    18   19   18 1
    19   20   18 ar
    20   21   20 1
    21   22    3 ar
    22   23   22 1
    23   24    6 ar
    24   25   24 1
    25   26   24 ar
    26   27   26 1
    27   28   26 ar
    28   29   28 1
    29   30    7 ar
    30   31   30 1
    31   32    4 1
    32   33   32 ar
    33   34   33 1
    34   35   33 ar
    35   36   35 1
    36   37   35 ar
    37   38   37 1
    38   39   37 ar
    39   40   39 1
    40   41   32 ar
    41   42   41 1
    42    7    8 1
    43   15   17 ar
    44   20   22 ar
    45   28   30 ar
    46   39   41 ar
@<TRIPOS>SUBSTRUCTURE
     1 RES1 1

@<TRIPOS>CRYSIN
  24.0430    7.4778   19.4479  90.0000 115.1090  90.0000  15 1

