# MOL2 file generated by ConQuest
# Please check atom types

@<TRIPOS>MOLECULE
ZOPJOD
    98   107     1
SMALL
NO_CHARGES
****
Generated from CSD

@<TRIPOS>ATOM
      1 C1         0.5644    6.6519    1.4174 C.ar      1 RES1    0.0000
      2 C2         1.4102    7.6682    1.8141 C.ar      1 RES1    0.0000
      3 C3         2.5174    7.3715    2.6628 C.ar      1 RES1    0.0000
      4 C4         2.7396    6.0918    3.1125 C.ar      1 RES1    0.0000
      5 C5         1.8022    3.8098    3.5864 C.ar      1 RES1    0.0000
      6 C6         0.8472    2.8421    3.3153 C.ar      1 RES1    0.0000
      7 C7        -0.2909    3.1610    2.5283 C.ar      1 RES1    0.0000
      8 C8        -0.4377    4.4282    1.9751 C.ar      1 RES1    0.0000
      9 C9         0.6196    5.3778    2.0875 C.ar      1 RES1    0.0000
     10 C10        1.7496    5.0812    2.9405 C.ar      1 RES1    0.0000
     11 C11       -0.2195    6.7989    0.1521 C.ar      1 RES1    0.0000
     12 C12       -1.2499    7.7181   -0.0419 C.ar      1 RES1    0.0000
     13 C13       -1.8695    7.8151   -1.2807 C.ar      1 RES1    0.0000
     14 C14       -1.4910    7.0083   -2.3145 C.ar      1 RES1    0.0000
     15 C15       -0.4876    6.1029   -2.1426 C.ar      1 RES1    0.0000
     16 C16        0.1468    5.9920   -0.9170 C.ar      1 RES1    0.0000
     17 C17        1.2580    9.0657    1.3027 C.ar      1 RES1    0.0000
     18 C18        0.3919    9.9197    1.9420 C.ar      1 RES1    0.0000
     19 C19        0.2667   11.2340    1.5518 C.ar      1 RES1    0.0000
     20 C20        1.0156   11.7054    0.5026 C.ar      1 RES1    0.0000
     21 C21        1.8776   10.8735   -0.1477 C.ar      1 RES1    0.0000
     22 C22        1.9867    9.5565    0.2491 C.ar      1 RES1    0.0000
     23 C23        3.5019    8.4612    2.9846 C.ar      1 RES1    0.0000
     24 C24        3.2932    9.2861    4.0691 C.ar      1 RES1    0.0000
     25 C25        4.2239   10.2469    4.4174 C.ar      1 RES1    0.0000
     26 C26        5.3674   10.3980    3.6834 C.ar      1 RES1    0.0000
     27 C27        5.5816    9.5994    2.6011 C.ar      1 RES1    0.0000
     28 C28        4.6549    8.6317    2.2506 C.ar      1 RES1    0.0000
     29 C29        4.1107    5.7882    3.6327 C.ar      1 RES1    0.0000
     30 C30        4.5741    6.2125    4.8693 C.ar      1 RES1    0.0000
     31 C31        5.9035    6.0114    5.2154 C.ar      1 RES1    0.0000
     32 C32        6.7655    5.3986    4.3667 C.ar      1 RES1    0.0000
     33 C33        6.3250    4.9564    3.1477 C.ar      1 RES1    0.0000
     34 C34        4.9903    5.1532    2.7686 C.ar      1 RES1    0.0000
     35 C35        2.7329    3.5076    4.7106 C.ar      1 RES1    0.0000
     36 C36        2.4312    3.9901    5.9714 C.ar      1 RES1    0.0000
     37 C37        3.2002    3.6462    7.0604 C.ar      1 RES1    0.0000
     38 C38        4.2993    2.8269    6.9171 C.ar      1 RES1    0.0000
     39 C39        4.6199    2.3707    5.6739 C.ar      1 RES1    0.0000
     40 C40        3.8494    2.6910    4.5739 C.ar      1 RES1    0.0000
     41 C41        0.9294    1.4987    3.9611 C.ar      1 RES1    0.0000
     42 C42        0.3004    1.2644    5.1647 C.ar      1 RES1    0.0000
     43 C43        0.3785    0.0291    5.7775 C.ar      1 RES1    0.0000
     44 C44        1.0802   -0.9816    5.1977 C.ar      1 RES1    0.0000
     45 C45        1.7200   -0.7667    4.0096 C.ar      1 RES1    0.0000
     46 C46        1.6338    0.4741    3.3858 C.ar      1 RES1    0.0000
     47 C47       -1.4102    2.1628    2.4512 C.ar      1 RES1    0.0000
     48 C48       -2.5483    2.3194    3.2139 C.ar      1 RES1    0.0000
     49 C49       -3.5747    1.4003    3.1676 C.ar      1 RES1    0.0000
     50 C50       -3.4858    0.3119    2.3542 C.ar      1 RES1    0.0000
     51 C51       -2.3665    0.1456    1.5739 C.ar      1 RES1    0.0000
     52 C52       -1.3294    1.0620    1.6378 C.ar      1 RES1    0.0000
     53 C53       -1.7846    4.8080    1.4460 C.ar      1 RES1    0.0000
     54 C54       -2.5685    5.7023    2.1558 C.ar      1 RES1    0.0000
     55 C55       -3.8629    5.9823    1.7634 C.ar      1 RES1    0.0000
     56 C56       -4.3882    5.3765    0.6569 C.ar      1 RES1    0.0000
     57 C57       -3.6326    4.5003   -0.0661 C.ar      1 RES1    0.0000
     58 C58       -2.3369    4.2036    0.3240 C.ar      1 RES1    0.0000
     59 H1        -1.5220    8.2657    0.6591 H         1 RES1    0.0000
     60 H2        -2.5497    8.4362   -1.4085 H         1 RES1    0.0000
     61 H3        -1.9193    7.0762   -3.1367 H         1 RES1    0.0000
     62 H4        -0.2276    5.5595   -2.8524 H         1 RES1    0.0000
     63 H5         0.8270    5.3668   -0.8090 H         1 RES1    0.0000
     64 H6        -0.1199    9.6036    2.6518 H         1 RES1    0.0000
     65 H7        -0.3233   11.7997    1.9971 H         1 RES1    0.0000
     66 H8         0.9347   12.5927    0.2359 H         1 RES1    0.0000
     67 H9         2.3894   11.1924   -0.8553 H         1 RES1    0.0000
     68 H10        2.5658    8.9908   -0.2072 H         1 RES1    0.0000
     69 H11        2.5174    9.1960    4.5739 H         1 RES1    0.0000
     70 H12        4.0717   10.7931    5.1559 H         1 RES1    0.0000
     71 H13        5.9951   11.0427    3.9214 H         1 RES1    0.0000
     72 H14        6.3547    9.7048    2.0963 H         1 RES1    0.0000
     73 H15        4.8125    8.0910    1.5099 H         1 RES1    0.0000
     74 H16        3.9963    6.6298    5.4667 H         1 RES1    0.0000
     75 H17        6.2079    6.3040    6.0442 H         1 RES1    0.0000
     76 H18        7.6544    5.2780    4.6136 H         1 RES1    0.0000
     77 H19        6.9136    4.5238    2.5702 H         1 RES1    0.0000
     78 H20        4.6939    4.8593    1.9376 H         1 RES1    0.0000
     79 H21        1.6998    4.5529    6.0839 H         1 RES1    0.0000
     80 H22        2.9753    3.9706    7.9024 H         1 RES1    0.0000
     81 H23        4.8138    2.5898    7.6555 H         1 RES1    0.0000
     82 H24        5.3701    1.8328    5.5659 H         1 RES1    0.0000
     83 H25        4.0798    2.3597    3.7341 H         1 RES1    0.0000
     84 H26       -0.1845    1.9479    5.5681 H         1 RES1    0.0000
     85 H27       -0.0512   -0.1109    6.5909 H         1 RES1    0.0000
     86 H28        1.1260   -1.8148    5.6099 H         1 RES1    0.0000
     87 H29        2.2130   -1.4502    3.6173 H         1 RES1    0.0000
     88 H30        2.0581    0.6086    2.5680 H         1 RES1    0.0000
     89 H31       -2.6251    3.0598    3.7716 H         1 RES1    0.0000
     90 H32       -4.3303    1.5237    3.6966 H         1 RES1    0.0000
     91 H33       -4.1754   -0.3106    2.3255 H         1 RES1    0.0000
     92 H34       -2.3045   -0.5864    1.0030 H         1 RES1    0.0000
     93 H35       -0.5684    0.9289    1.1198 H         1 RES1    0.0000
     94 H36       -2.2170    6.1210    2.9075 H         1 RES1    0.0000
     95 H37       -4.3774    6.5840    2.2528 H         1 RES1    0.0000
     96 H38       -5.2610    5.5609    0.3968 H         1 RES1    0.0000
     97 H39       -3.9895    4.0996   -0.8244 H         1 RES1    0.0000
     98 H40       -1.8345    3.5949   -0.1675 H         1 RES1    0.0000
@<TRIPOS>BOND
     1    1    2 ar
     2    2    3 ar
     3    3    4 ar
     4    4   10 ar
     5    5    6 ar
     6    6    7 ar
     7    7    8 ar
     8    8    9 ar
     9    9    1 ar
    10   10    5 ar
    11   11    1 1
    12   12   11 ar
    13   13   12 ar
    14   14   13 ar
    15   15   14 ar
    16   16   11 ar
    17   17    2 1
    18   18   17 ar
    19   19   18 ar
    20   20   19 ar
    21   21   20 ar
    22   22   17 ar
    23   23    3 1
    24   24   23 ar
    25   25   24 ar
    26   26   25 ar
    27   27   26 ar
    28   28   23 ar
    29   29    4 1
    30   30   29 ar
    31   31   30 ar
    32   32   31 ar
    33   33   32 ar
    34   34   29 ar
    35   35    5 1
    36   36   35 ar
    37   37   36 ar
    38   38   37 ar
    39   39   38 ar
    40   40   35 ar
    41   41    6 1
    42   42   41 ar
    43   43   42 ar
    44   44   43 ar
    45   45   44 ar
    46   46   41 ar
    47   47    7 1
    48   48   47 ar
    49   49   48 ar
    50   50   49 ar
    51   51   50 ar
    52   52   47 ar
    53   53    8 1
    54   54   53 ar
    55   55   54 ar
    56   56   55 ar
    57   57   56 ar
    58   58   53 ar
    59   59   12 1
    60   60   13 1
    61   61   14 1
    62   62   15 1
    63   63   16 1
    64   64   18 1
    65   65   19 1
    66   66   20 1
    67   67   21 1
    68   68   22 1
    69   69   24 1
    70   70   25 1
    71   71   26 1
    72   72   27 1
    73   73   28 1
    74   74   30 1
    75   75   31 1
    76   76   32 1
    77   77   33 1
    78   78   34 1
    79   79   36 1
    80   80   37 1
    81   81   38 1
    82   82   39 1
    83   83   40 1
    84   84   42 1
    85   85   43 1
    86   86   44 1
    87   87   45 1
    88   88   46 1
    89   89   48 1
    90   90   49 1
    91   91   50 1
    92   92   51 1
    93   93   52 1
    94   94   54 1
    95   95   55 1
    96   96   56 1
    97   97   57 1
    98   98   58 1
    99    9   10 ar
   100   15   16 ar
   101   21   22 ar
   102   27   28 ar
   103   33   34 ar
   104   39   40 ar
   105   45   46 ar
   106   51   52 ar
   107   57   58 ar
@<TRIPOS>SUBSTRUCTURE
     1 RES1 1

@<TRIPOS>CRYSIN
  13.4690   13.8640   22.0430  90.0000  90.0000  90.0000  19 1

