# MOL2 file generated by ConQuest
# Please check atom types

@<TRIPOS>MOLECULE
ZOTDER
    64    72     1
SMALL
NO_CHARGES
****
Generated from CSD

@<TRIPOS>ATOM
      1 C1         2.2435    3.8697   20.3034 C.ar      1 RES1    0.0000
      2 C2         1.0658    3.2182   20.5750 C.ar      1 RES1    0.0000
      3 C3         0.7025    2.9101   21.9072 C.ar      1 RES1    0.0000
      4 C4         1.5567    3.1414   22.9264 C.ar      1 RES1    0.0000
      5 C5         2.7678    3.8014   22.7169 C.ar      1 RES1    0.0000
      6 C6         3.7737    3.9778   23.7516 C.ar      1 RES1    0.0000
      7 C7         3.7355    3.2224   24.9570 C.ar      1 RES1    0.0000
      8 C8         4.7695    3.2950   25.8675 C.ar      1 RES1    0.0000
      9 C9         5.7745    4.2445   25.6476 C.ar      1 RES1    0.0000
     10 C10        5.8342    5.0066   24.5043 C.ar      1 RES1    0.0000
     11 C11        4.8596    4.8311   23.5110 C.ar      1 RES1    0.0000
     12 C12        5.0509    5.4109   22.2150 C.ar      1 RES1    0.0000
     13 C13        4.2263    5.0944   21.2114 C.ar      1 RES1    0.0000
     14 C14        3.0837    4.2690   21.3950 C.ar      1 RES1    0.0000
     15 C15        4.1840    1.9218   19.4989 C.ar      1 RES1    0.0000
     16 C16        3.2071    0.9681   19.5739 C.ar      1 RES1    0.0000
     17 C17        3.1091    0.0743   20.6397 C.ar      1 RES1    0.0000
     18 C18        3.9925    0.1671   21.6796 C.ar      1 RES1    0.0000
     19 C19        5.0378    1.0786   21.6511 C.ar      1 RES1    0.0000
     20 C20        5.9632    1.2204   22.7634 C.ar      1 RES1    0.0000
     21 C21        5.6080    0.7799   24.0594 C.ar      1 RES1    0.0000
     22 C22        6.4012    1.0457   25.1458 C.ar      1 RES1    0.0000
     23 C23        7.6455    1.6416   24.9285 C.ar      1 RES1    0.0000
     24 C24        8.0269    2.0813   23.6817 C.ar      1 RES1    0.0000
     25 C25        7.1325    1.9581   22.6030 C.ar      1 RES1    0.0000
     26 C26        7.3606    2.6603   21.3562 C.ar      1 RES1    0.0000
     27 C27        6.4033    2.6983   20.4043 C.ar      1 RES1    0.0000
     28 C28        5.2052    1.9091   20.5000 C.ar      1 RES1    0.0000
     29 C29        2.8144    4.0225   18.8962 C.3       1 RES1    0.0000
     30 C30        2.0547    3.4224   17.6856 C.3       1 RES1    0.0000
     31 C31        4.0607    3.0663   18.5367 C.3       1 RES1    0.0000
     32 C32        3.3739    2.7835   17.1553 C.3       1 RES1    0.0000
     33 C33        4.9685    2.2847   26.9617 C.3       1 RES1    0.0000
     34 C34        3.8627    1.3673   27.4015 C.3       1 RES1    0.0000
     35 C35        5.8449    1.0229   26.5478 C.3       1 RES1    0.0000
     36 C36        4.6167    0.1629   26.9100 C.3       1 RES1    0.0000
     37 H1         0.4584    2.8865   19.8663 H         1 RES1    0.0000
     38 H2        -0.0532    2.4307   22.0650 H         1 RES1    0.0000
     39 H3         1.3292    2.8527   23.7981 H         1 RES1    0.0000
     40 H4         3.0761    2.5489   25.0398 H         1 RES1    0.0000
     41 H5         6.4469    4.2706   26.3331 H         1 RES1    0.0000
     42 H6         6.5268    5.6210   24.3413 H         1 RES1    0.0000
     43 H7         5.7949    5.9586   22.1685 H         1 RES1    0.0000
     44 H8         4.4396    5.4607   20.2801 H         1 RES1    0.0000
     45 H9         2.5578    0.8946   18.9868 H         1 RES1    0.0000
     46 H10        2.4377   -0.6752   20.6423 H         1 RES1    0.0000
     47 H11        3.8524   -0.4980   22.4789 H         1 RES1    0.0000
     48 H12        4.8141    0.3545   24.1085 H         1 RES1    0.0000
     49 H13        8.3088    1.6542   25.6606 H         1 RES1    0.0000
     50 H14        8.8743    2.5995   23.5653 H         1 RES1    0.0000
     51 H15        8.1586    3.3169   21.3407 H         1 RES1    0.0000
     52 H16        6.4956    3.3422   19.6076 H         1 RES1    0.0000
     53 H17        3.1218    4.9880   18.6505 H         1 RES1    0.0000
     54 H18        1.4554    2.7683   17.8745 H         1 RES1    0.0000
     55 H19        1.7286    4.2538   17.0208 H         1 RES1    0.0000
     56 H20        4.8727    3.5870   18.4177 H         1 RES1    0.0000
     57 H21        3.8602    3.4013   16.3483 H         1 RES1    0.0000
     58 H22        3.3283    1.8062   16.8915 H         1 RES1    0.0000
     59 H23        5.4504    2.6502   27.7041 H         1 RES1    0.0000
     60 H24        3.6075    1.3166   28.4025 H         1 RES1    0.0000
     61 H25        3.0234    1.6205   26.8763 H         1 RES1    0.0000
     62 H26        6.5892    0.7258   27.2385 H         1 RES1    0.0000
     63 H27        4.5182   -0.3714   26.3073 H         1 RES1    0.0000
     64 H28        4.7950   -0.5064   27.5748 H         1 RES1    0.0000
@<TRIPOS>BOND
     1    1    2 ar
     2    2    3 ar
     3    3    4 ar
     4    4    5 ar
     5    5    6 ar
     6    6    7 ar
     7    7    8 ar
     8    8    9 ar
     9    9   10 ar
    10   10   11 ar
    11   11    6 ar
    12   12   11 ar
    13   13   12 ar
    14   14    1 ar
    15   15   16 ar
    16   16   17 ar
    17   17   18 ar
    18   18   19 ar
    19   19   20 ar
    20   20   21 ar
    21   21   22 ar
    22   22   23 ar
    23   23   24 ar
    24   24   25 ar
    25   25   20 ar
    26   26   25 ar
    27   27   26 ar
    28   28   15 ar
    29   29    1 1
    30   30   29 1
    31   31   15 1
    32   32   30 1
    33   33    8 1
    34   34   33 1
    35   35   22 1
    36   36   34 1
    37   37    2 1
    38   38    3 1
    39   39    4 1
    40   40    7 1
    41   41    9 1
    42   42   10 1
    43   43   12 1
    44   44   13 1
    45   45   16 1
    46   46   17 1
    47   47   18 1
    48   48   21 1
    49   49   23 1
    50   50   24 1
    51   51   26 1
    52   52   27 1
    53   53   29 1
    54   54   30 1
    55   55   30 1
    56   56   31 1
    57   57   32 1
    58   58   32 1
    59   59   33 1
    60   60   34 1
    61   61   34 1
    62   62   35 1
    63   63   36 1
    64   64   36 1
    65    5   14 ar
    66   13   14 ar
    67   19   28 ar
    68   27   28 ar
    69   29   31 1
    70   31   32 1
    71   33   35 1
    72   35   36 1
@<TRIPOS>SUBSTRUCTURE
     1 RES1 1

@<TRIPOS>CRYSIN
  10.7900    8.4400   26.0100  90.0000  96.0000  90.0000 231 1

