# MOL2 file generated by ConQuest
# Please check atom types

@<TRIPOS>MOLECULE
ZUDBAB
    47    51     1
SMALL
NO_CHARGES
****
Generated from CSD

@<TRIPOS>ATOM
      1 C1        17.7976    0.3773    7.1137 C.ar      1 RES1    0.0000
      2 C2        17.6265    0.6469    8.4245 C.ar      1 RES1    0.0000
      3 C3        16.4975    1.3751    8.8626 C.ar      1 RES1    0.0000
      4 C4        15.5318    1.7913    7.9888 C.ar      1 RES1    0.0000
      5 C5        15.6635    1.4891    6.6006 C.ar      1 RES1    0.0000
      6 C6        14.6784    1.8908    5.6481 C.ar      1 RES1    0.0000
      7 C7        14.8735    1.5588    4.3094 C.ar      1 RES1    0.0000
      8 C8        13.9105    1.8592    3.2997 C.ar      1 RES1    0.0000
      9 C9        14.0900    1.5280    1.9762 C.ar      1 RES1    0.0000
     10 C10       15.2665    0.8287    1.5914 C.ar      1 RES1    0.0000
     11 C11       16.1840    0.5175    2.5160 C.ar      1 RES1    0.0000
     12 C12       16.0379    0.8513    3.8852 C.ar      1 RES1    0.0000
     13 C13       16.9797    0.4822    4.8047 C.ar      1 RES1    0.0000
     14 C14       16.8330    0.7808    6.1459 C.ar      1 RES1    0.0000
     15 C15       13.4634    2.5675    6.1497 C.2       1 RES1    0.0000
     16 C16       13.0633    3.7409    5.7992 C.2       1 RES1    0.0000
     17 C17       11.8016    4.4385    6.2983 C.3       1 RES1    0.0000
     18 C18       11.0202    3.6496    7.3157 C.ar      1 RES1    0.0000
     19 C19        9.8780    3.0081    6.9448 C.ar      1 RES1    0.0000
     20 C20        9.1295    2.2500    7.8593 C.ar      1 RES1    0.0000
     21 C21        9.5056    2.1550    9.1433 C.ar      1 RES1    0.0000
     22 C22       10.6637    2.7928    9.5878 C.ar      1 RES1    0.0000
     23 C23       11.1121    2.6960   10.9303 C.ar      1 RES1    0.0000
     24 C24       12.2172    3.3193   11.3355 C.ar      1 RES1    0.0000
     25 C25       12.9760    4.0856   10.4490 C.ar      1 RES1    0.0000
     26 C26       12.6120    4.1915    9.1446 C.ar      1 RES1    0.0000
     27 C27       11.4504    3.5636    8.6531 C.ar      1 RES1    0.0000
     28 H1        18.6384   -0.0724    6.8203 H         1 RES1    0.0000
     29 H2        18.2997    0.3076    9.0811 H         1 RES1    0.0000
     30 H3        16.3938    1.6013    9.8304 H         1 RES1    0.0000
     31 H4        14.7319    2.2889    8.3063 H         1 RES1    0.0000
     32 H5        13.0667    2.3251    3.5562 H         1 RES1    0.0000
     33 H6        13.4053    1.7642    1.2955 H         1 RES1    0.0000
     34 H7        15.4015    0.5881    0.6350 H         1 RES1    0.0000
     35 H8        16.9970    0.0181    2.2226 H         1 RES1    0.0000
     36 H9        17.7837   -0.0271    4.4961 H         1 RES1    0.0000
     37 H10       12.9853    2.0175    6.9728 H         1 RES1    0.0000
     38 H11       13.5765    4.3697    5.1057 H         1 RES1    0.0000
     39 H12       11.2079    4.5868    5.5122 H         1 RES1    0.0000
     40 H13       12.0636    5.3196    6.6933 H         1 RES1    0.0000
     41 H14        9.5547    3.0850    5.9948 H         1 RES1    0.0000
     42 H15        8.3106    1.7732    7.5570 H         1 RES1    0.0000
     43 H16        8.9639    1.6194    9.7796 H         1 RES1    0.0000
     44 H17       10.5530    2.1622   11.5704 H         1 RES1    0.0000
     45 H18       12.4987    3.2298   12.2944 H         1 RES1    0.0000
     46 H19       13.8074    4.5325   10.7957 H         1 RES1    0.0000
     47 H20       13.1808    4.7497    8.5350 H         1 RES1    0.0000
@<TRIPOS>BOND
     1    1    2 ar
     2    2    3 ar
     3    3    4 ar
     4    4    5 ar
     5    5    6 ar
     6    6    7 ar
     7    7    8 ar
     8    8    9 ar
     9    9   10 ar
    10   10   11 ar
    11   11   12 ar
    12   12    7 ar
    13   13   12 ar
    14   14    1 ar
    15   15    6 1
    16   16   15 2
    17   17   16 1
    18   18   17 1
    19   19   18 ar
    20   20   19 ar
    21   21   20 ar
    22   22   21 ar
    23   23   22 ar
    24   24   23 ar
    25   25   24 ar
    26   26   25 ar
    27   27   18 ar
    28   28    1 1
    29   29    2 1
    30   30    3 1
    31   31    4 1
    32   32    8 1
    33   33    9 1
    34   34   10 1
    35   35   11 1
    36   36   13 1
    37   37   15 1
    38   38   16 1
    39   39   17 1
    40   40   17 1
    41   41   19 1
    42   42   20 1
    43   43   21 1
    44   44   23 1
    45   45   24 1
    46   46   25 1
    47   47   26 1
    48    5   14 ar
    49   13   14 ar
    50   22   27 ar
    51   26   27 ar
@<TRIPOS>SUBSTRUCTURE
     1 RES1 1

@<TRIPOS>CRYSIN
  16.3600    9.0470   13.1650  90.0000 105.2600  90.0000 231 1

