# MOL2 file generated by ConQuest
# Please check atom types

@<TRIPOS>MOLECULE
ZUNLOL
    44    48     1
SMALL
NO_CHARGES
****
Generated from CSD

@<TRIPOS>ATOM
      1 C1         0.7744    5.3045   14.4709 C.ar      1 RES1    0.0000
      2 C2        -0.3611    4.8825   13.7133 C.ar      1 RES1    0.0000
      3 H1        -0.2740    4.1636   13.0978 H         1 RES1    0.0000
      4 C3        -1.5623    5.4949   13.8619 C.ar      1 RES1    0.0000
      5 H2        -2.3023    5.2033   13.3433 H         1 RES1    0.0000
      6 C4        -1.7323    6.5624   14.7797 C.ar      1 RES1    0.0000
      7 H3        -2.5811    6.9777   14.8724 H         1 RES1    0.0000
      8 C5        -0.6875    6.9882   15.5206 C.ar      1 RES1    0.0000
      9 H4        -0.8146    7.6982   16.1403 H         1 RES1    0.0000
     10 C6         0.6075    6.3930   15.3938 C.ar      1 RES1    0.0000
     11 C7         1.7058    6.8683   16.1034 C.ar      1 RES1    0.0000
     12 H5         1.5885    7.5827   16.7191 H         1 RES1    0.0000
     13 C8         2.9753    6.3166   15.9286 C.ar      1 RES1    0.0000
     14 C9         4.1099    6.8128   16.6421 C.ar      1 RES1    0.0000
     15 H6         4.0047    7.5392   17.2461 H         1 RES1    0.0000
     16 C10        5.3350    6.2588   16.4687 C.ar      1 RES1    0.0000
     17 H7         6.0811    6.6059   16.9421 H         1 RES1    0.0000
     18 C11        5.5083    5.1666   15.5863 C.ar      1 RES1    0.0000
     19 H8         6.3721    4.7858   15.4760 H         1 RES1    0.0000
     20 C12        4.4592    4.6561   14.8941 C.ar      1 RES1    0.0000
     21 H9         4.5971    3.9154   14.3139 H         1 RES1    0.0000
     22 C13        3.1494    5.2153   15.0226 C.ar      1 RES1    0.0000
     23 C14        2.0452    4.7086   14.3144 C.ar      1 RES1    0.0000
     24 C15        2.1802    3.5256   13.4142 C.ar      1 RES1    0.0000
     25 C16        1.6963    2.2864   13.8183 C.ar      1 RES1    0.0000
     26 H10        1.3377    2.1890   14.6923 H         1 RES1    0.0000
     27 C17        1.7269    1.1972   12.9742 C.ar      1 RES1    0.0000
     28 H11        1.3831    0.3636   13.2735 H         1 RES1    0.0000
     29 C18        2.2551    1.2984   11.6892 C.ar      1 RES1    0.0000
     30 C19        2.7731    2.5278   11.2985 C.ar      1 RES1    0.0000
     31 H12        3.1621    2.6170   10.4359 H         1 RES1    0.0000
     32 C20        2.7334    3.6246   12.1427 C.ar      1 RES1    0.0000
     33 H13        3.0889    4.4559   11.8502 H         1 RES1    0.0000
     34 C21        2.2165    0.1387   10.7618 C.ar      1 RES1    0.0000
     35 C22        1.1165   -0.7219   10.7586 C.ar      1 RES1    0.0000
     36 H14        0.4088   -0.5832   11.3773 H         1 RES1    0.0000
     37 C23        1.0466   -1.7744    9.8639 C.ar      1 RES1    0.0000
     38 H15        0.2876   -2.3457    9.8639 H         1 RES1    0.0000
     39 C24        2.0735   -1.9978    8.9737 C.ar      1 RES1    0.0000
     40 H16        2.0211   -2.7212    8.3596 H         1 RES1    0.0000
     41 C25        3.1782   -1.1725    8.9737 C.ar      1 RES1    0.0000
     42 H17        3.8925   -1.3344    8.3686 H         1 RES1    0.0000
     43 C26        3.2477   -0.1072    9.8569 C.ar      1 RES1    0.0000
     44 H18        4.0079    0.4633    9.8459 H         1 RES1    0.0000
@<TRIPOS>BOND
     1    1    2 ar
     2    2    3 1
     3    4    2 ar
     4    5    4 1
     5    6    4 ar
     6    7    6 1
     7    8    6 ar
     8    9    8 1
     9   10    1 ar
    10   11   10 ar
    11   12   11 1
    12   13   11 ar
    13   14   13 ar
    14   15   14 1
    15   16   14 ar
    16   17   16 1
    17   18   16 ar
    18   19   18 1
    19   20   18 ar
    20   21   20 1
    21   22   13 ar
    22   23    1 ar
    23   24   23 1
    24   25   24 ar
    25   26   25 1
    26   27   25 ar
    27   28   27 1
    28   29   27 ar
    29   30   29 ar
    30   31   30 1
    31   32   24 ar
    32   33   32 1
    33   34   29 1
    34   35   34 ar
    35   36   35 1
    36   37   35 ar
    37   38   37 1
    38   39   37 ar
    39   40   39 1
    40   41   39 ar
    41   42   41 1
    42   43   34 ar
    43   44   43 1
    44    8   10 ar
    45   20   22 ar
    46   22   23 ar
    47   30   32 ar
    48   41   43 ar
@<TRIPOS>SUBSTRUCTURE
     1 RES1 1

@<TRIPOS>CRYSIN
  10.4410    7.4965   22.5770  90.0000  94.0600  90.0000 231 1

