# MOL2 file generated by ConQuest
# Please check atom types

@<TRIPOS>MOLECULE
ZUNLOL02
    88    96     2
SMALL
NO_CHARGES
****
Generated from CSD

@<TRIPOS>ATOM
      1 C1         4.6382    1.2658    7.0979 C.ar      1 RES1    0.0000
      2 H1         4.6703    0.5420    6.4837 H         1 RES1    0.0000
      3 C2         4.8360    1.0263    8.4260 C.ar      1 RES1    0.0000
      4 H2         4.9991    0.1393    8.7235 H         1 RES1    0.0000
      5 C3         4.8018    2.0847    9.3669 C.ar      1 RES1    0.0000
      6 H3         4.9156    1.9016   10.2918 H         1 RES1    0.0000
      7 C4         4.6074    3.3575    8.9486 C.ar      1 RES1    0.0000
      8 H4         4.6081    4.0621    9.5853 H         1 RES1    0.0000
      9 C5         4.4009    3.6611    7.5675 C.ar      1 RES1    0.0000
     10 C6         3.7837    6.6123    5.3602 C.ar      1 RES1    0.0000
     11 H5         3.8224    7.3188    5.9944 H         1 RES1    0.0000
     12 C7         3.5400    6.9001    4.0546 C.ar      1 RES1    0.0000
     13 H6         3.4141    7.8011    3.7797 H         1 RES1    0.0000
     14 C8         3.4745    5.8491    3.1021 C.ar      1 RES1    0.0000
     15 H7         3.2980    6.0537    2.1913 H         1 RES1    0.0000
     16 C9         3.6602    4.5568    3.4724 C.ar      1 RES1    0.0000
     17 H8         3.6103    3.8735    2.8143 H         1 RES1    0.0000
     18 C10        3.9309    4.2001    4.8359 C.ar      1 RES1    0.0000
     19 C11        4.1213    2.8692    5.2553 C.ar      1 RES1    0.0000
     20 C12        4.3843    2.5839    6.6160 C.ar      1 RES1    0.0000
     21 C13        4.2085    4.9675    7.1408 C.ar      1 RES1    0.0000
     22 H9         4.2319    5.6726    7.7765 H         1 RES1    0.0000
     23 C14        3.9819    5.2688    5.7965 C.ar      1 RES1    0.0000
     24 C15        2.9923    0.8131    4.3270 C.ar      1 RES1    0.0000
     25 H10        2.3155    0.9052    4.9872 H         1 RES1    0.0000
     26 C16        4.0354    1.7431    4.2756 C.ar      1 RES1    0.0000
     27 C17        2.9311   -0.2413    3.4303 C.ar      1 RES1    0.0000
     28 H11        2.2154   -0.8634    3.4857 H         1 RES1    0.0000
     29 C18        3.9120   -0.4026    2.4423 C.ar      1 RES1    0.0000
     30 C19        4.9425    0.5390    2.3854 C.ar      1 RES1    0.0000
     31 H12        5.6126    0.4579    1.7170 H         1 RES1    0.0000
     32 C20        5.0037    1.5879    3.2866 C.ar      1 RES1    0.0000
     33 H13        5.7179    2.2118    3.2302 H         1 RES1    0.0000
     34 C21        3.8695   -1.5269    1.4711 C.ar      1 RES1    0.0000
     35 C22        2.6581   -2.0267    0.9833 C.ar      1 RES1    0.0000
     36 H14        1.8392   -1.6656    1.3011 H         1 RES1    0.0000
     37 C23        2.6392   -3.0429    0.0411 C.ar      1 RES1    0.0000
     38 H15        1.8087   -3.3612   -0.2923 H         1 RES1    0.0000
     39 C24        3.8235   -3.5983   -0.4186 C.ar      1 RES1    0.0000
     40 H16        3.8066   -4.2921   -1.0673 H         1 RES1    0.0000
     41 C25        5.0326   -3.1339    0.0770 C.ar      1 RES1    0.0000
     42 H17        5.8480   -3.5182   -0.2238 H         1 RES1    0.0000
     43 C26        5.0536   -2.1089    1.0101 C.ar      1 RES1    0.0000
     44 H18        5.8876   -1.7966    1.3412 H         1 RES1    0.0000
     45 C27        7.8624    9.3698    4.7155 C.ar      2 RES2    0.0000
     46 H19        8.0305    8.6014    5.2478 H         2 RES2    0.0000
     47 C28        7.7280   10.5802    5.3144 C.ar      2 RES2    0.0000
     48 H20        7.8028   10.6478    6.2583 H         2 RES2    0.0000
     49 C29        7.4777   11.7410    4.5478 C.ar      2 RES2    0.0000
     50 H21        7.3776   12.5800    4.9822 H         2 RES2    0.0000
     51 C30        7.3797   11.6650    3.1978 C.ar      2 RES2    0.0000
     52 H22        7.2210   12.4550    2.6940 H         2 RES2    0.0000
     53 C31        7.5121   10.4110    2.5205 C.ar      2 RES2    0.0000
     54 C32        7.4113    8.9808   -0.9415 C.ar      2 RES2    0.0000
     55 H23        7.2692    9.7642   -1.4598 H         2 RES2    0.0000
     56 C33        7.5182    7.7782   -1.5646 C.ar      2 RES2    0.0000
     57 H24        7.4749    7.7311   -2.5120 H         2 RES2    0.0000
     58 C34        7.6939    6.5964   -0.8097 C.ar      2 RES2    0.0000
     59 H25        7.7404    5.7576   -1.2543 H         2 RES2    0.0000
     60 C35        7.7980    6.6467    0.5498 C.ar      2 RES2    0.0000
     61 H26        7.9200    5.8417    1.0405 H         2 RES2    0.0000
     62 C36        7.7264    7.8919    1.2476 C.ar      2 RES2    0.0000
     63 C37        7.8718    7.9806    2.6471 C.ar      2 RES2    0.0000
     64 C38        7.7551    9.2296    3.2931 C.ar      2 RES2    0.0000
     65 C39        7.4102   10.3105    1.1361 C.ar      2 RES2    0.0000
     66 H27        7.2690   11.0984    0.6247 H         2 RES2    0.0000
     67 C40        7.5090    9.0851    0.4825 C.ar      2 RES2    0.0000
     68 C41        8.1947    6.7822    3.4777 C.ar      2 RES2    0.0000
     69 C42        9.5175    6.5008    3.8148 C.ar      2 RES2    0.0000
     70 H28       10.2186    6.9964    3.4089 H         2 RES2    0.0000
     71 C43        9.8263    5.5115    4.7312 C.ar      2 RES2    0.0000
     72 H29       10.7363    5.3331    4.9371 H         2 RES2    0.0000
     73 C44        8.8213    4.7704    5.3599 C.ar      2 RES2    0.0000
     74 C45        7.5043    4.9977    4.9515 C.ar      2 RES2    0.0000
     75 H30        6.8066    4.4656    5.3146 H         2 RES2    0.0000
     76 C46        7.1952    5.9810    4.0294 C.ar      2 RES2    0.0000
     77 H31        6.2905    6.1128    3.7697 H         2 RES2    0.0000
     78 C47        9.1271    3.8250    6.4634 C.ar      2 RES2    0.0000
     79 C48        8.1898    3.5847    7.4693 C.ar      2 RES2    0.0000
     80 H32        7.3529    4.0329    7.4458 H         2 RES2    0.0000
     81 C49        8.4610    2.7031    8.5002 C.ar      2 RES2    0.0000
     82 H33        7.8073    2.5490    9.1728 H         2 RES2    0.0000
     83 C50        9.6719    2.0448    8.5618 C.ar      2 RES2    0.0000
     84 H34        9.8513    1.4342    9.2663 H         2 RES2    0.0000
     85 C51       10.6216    2.2846    7.5857 C.ar      2 RES2    0.0000
     86 H35       11.4635    1.8465    7.6278 H         2 RES2    0.0000
     87 C52       10.3518    3.1602    6.5467 C.ar      2 RES2    0.0000
     88 H36       11.0109    3.3113    5.8791 H         2 RES2    0.0000
@<TRIPOS>BOND
     1    1    2 1
     2    3    1 ar
     3    4    3 1
     4    5    3 ar
     5    6    5 1
     6    7    5 ar
     7    8    7 1
     8    9    7 ar
     9   10   11 1
    10   12   10 ar
    11   13   12 1
    12   14   12 ar
    13   15   14 1
    14   16   14 ar
    15   17   16 1
    16   18   16 ar
    17   19   18 ar
    18   20    1 ar
    19   21    9 ar
    20   22   21 1
    21   23   10 ar
    22   24   25 1
    23   26   19 1
    24   27   24 ar
    25   28   27 1
    26   29   27 ar
    27   30   29 ar
    28   31   30 1
    29   32   26 ar
    30   33   32 1
    31   34   29 1
    32   35   34 ar
    33   36   35 1
    34   37   35 ar
    35   38   37 1
    36   39   37 ar
    37   40   39 1
    38   41   39 ar
    39   42   41 1
    40   43   34 ar
    41   44   43 1
    42   45   46 1
    43   47   45 ar
    44   48   47 1
    45   49   47 ar
    46   50   49 1
    47   51   49 ar
    48   52   51 1
    49   53   51 ar
    50   54   55 1
    51   56   54 ar
    52   57   56 1
    53   58   56 ar
    54   59   58 1
    55   60   58 ar
    56   61   60 1
    57   62   60 ar
    58   63   62 ar
    59   64   45 ar
    60   65   53 ar
    61   66   65 1
    62   67   54 ar
    63   68   63 1
    64   69   68 ar
    65   70   69 1
    66   71   69 ar
    67   72   71 1
    68   73   71 ar
    69   74   73 ar
    70   75   74 1
    71   76   68 ar
    72   77   76 1
    73   78   73 1
    74   79   78 ar
    75   80   79 1
    76   81   79 ar
    77   82   81 1
    78   83   81 ar
    79   84   83 1
    80   85   83 ar
    81   86   85 1
    82   87   78 ar
    83   88   87 1
    84    9   20 ar
    85   18   23 ar
    86   19   20 ar
    87   21   23 ar
    88   24   26 ar
    89   30   32 ar
    90   41   43 ar
    91   53   64 ar
    92   62   67 ar
    93   63   64 ar
    94   65   67 ar
    95   74   76 ar
    96   85   87 ar
@<TRIPOS>SUBSTRUCTURE
     1 RES1 1
     2 RES2 45

@<TRIPOS>CRYSIN
   9.6463   11.0516   16.9487  90.6520  99.6550  95.5180   2 1

