# MOL2 file generated by ConQuest
# Please check atom types

@<TRIPOS>MOLECULE
ZZZDKE02
    84    94     2
SMALL
NO_CHARGES
****
Generated from CSD

@<TRIPOS>ATOM
      1 C1         5.8436    0.3784    3.1203 C.ar      1 RES1    0.0000
      2 C2         5.6741    0.2602    1.7768 C.ar      1 RES1    0.0000
      3 C3         4.4901    0.7403    1.2072 C.ar      1 RES1    0.0000
      4 C4         3.4856    1.2848    1.9585 C.ar      1 RES1    0.0000
      5 C5         3.6269    1.4317    3.3929 C.ar      1 RES1    0.0000
      6 C6         4.8509    0.9568    3.9884 C.ar      1 RES1    0.0000
      7 C7         4.9953    1.0845    5.3547 C.ar      1 RES1    0.0000
      8 C8         4.0336    1.6524    6.2163 C.ar      1 RES1    0.0000
      9 C9         2.7945    2.1227    5.5965 C.ar      1 RES1    0.0000
     10 C10        2.6506    2.0098    4.2091 C.ar      1 RES1    0.0000
     11 C11        4.1860    1.7582    7.5956 C.ar      1 RES1    0.0000
     12 C12        3.2183    2.3197    8.4296 C.ar      1 RES1    0.0000
     13 C13        1.8287    2.6822    6.4191 C.ar      1 RES1    0.0000
     14 C14        0.6691   -3.6353    2.3285 C.ar      2 RES2    0.0000
     15 C15        1.6469   -3.6014    1.3776 C.ar      2 RES2    0.0000
     16 C16        2.8603   -2.8720    1.5821 C.ar      2 RES2    0.0000
     17 C17        3.0323   -2.2417    2.7601 C.ar      2 RES2    0.0000
     18 C18        2.0588   -2.2344    3.8099 C.ar      2 RES2    0.0000
     19 C19        0.8249   -2.9884    3.5617 C.ar      2 RES2    0.0000
     20 C20       -0.1230   -2.9789    4.5580 C.ar      2 RES2    0.0000
     21 C21        0.0271   -2.3259    5.7766 C.ar      2 RES2    0.0000
     22 C22        1.2549   -1.5749    6.0248 C.ar      2 RES2    0.0000
     23 C23        2.2263   -1.5776    5.0042 C.ar      2 RES2    0.0000
     24 C24        1.4168   -0.8986    7.2353 C.ar      2 RES2    0.0000
     25 C25        0.4454   -0.8832    8.2381 C.ar      2 RES2    0.0000
     26 C26       -0.9372   -2.3128    6.7794 C.ar      2 RES2    0.0000
     27 H1         6.6551    0.0655    3.5033 H         1 RES1    0.0000
     28 H2         6.3446   -0.1408    1.2364 H         1 RES1    0.0000
     29 H3         4.3804    0.6858    0.2645 H         1 RES1    0.0000
     30 H4         2.6852    1.5697    1.5350 H         1 RES1    0.0000
     31 H5         5.8014    0.7675    5.7441 H         1 RES1    0.0000
     32 H6         1.8563    2.3404    3.8051 H         1 RES1    0.0000
     33 H7        -1.7456   -2.7892    6.6317 H         2 RES2    0.0000
     34 H8         4.9877    1.4334    7.9866 H         1 RES1    0.0000
     35 H9         1.0275    3.0042    6.0216 H         1 RES1    0.0000
     36 H10       -0.1355   -4.1077    2.1500 H         2 RES2    0.0000
     37 H11        3.0362   -1.1025    5.1502 H         2 RES2    0.0000
     38 H12        1.5195   -4.0728    0.5631 H         2 RES2    0.0000
     39 H13        3.5263   -2.8334    0.9054 H         2 RES2    0.0000
     40 H14        3.8468   -1.7745    2.9029 H         2 RES2    0.0000
     41 H15       -0.9336   -3.4497    4.4038 H         2 RES2    0.0000
     42 H16        2.2274   -0.4252    7.3830 H         2 RES2    0.0000
     43 C1A       -0.6475    4.7379   13.1060 C.ar      1 RES1    0.0000
     44 C2A       -0.4780    4.8562   14.4496 C.ar      1 RES1    0.0000
     45 C3A        0.7060    4.3761   15.0191 C.ar      1 RES1    0.0000
     46 C4A        1.7105    3.8315   14.2678 C.ar      1 RES1    0.0000
     47 C5A        1.5692    3.6846   12.8334 C.ar      1 RES1    0.0000
     48 C6A        0.3452    4.1596   12.2379 C.ar      1 RES1    0.0000
     49 C7A        0.2008    4.0319   10.8716 C.ar      1 RES1    0.0000
     50 C8A        1.1625    3.4640   10.0100 C.ar      1 RES1    0.0000
     51 C9A        2.4016    2.9937   10.6299 C.ar      1 RES1    0.0000
     52 C10A       2.5454    3.1066   12.0172 C.ar      1 RES1    0.0000
     53 C11A       1.0101    3.3582    8.6308 C.ar      1 RES1    0.0000
     54 C12A       1.9778    2.7966    7.7968 C.ar      1 RES1    0.0000
     55 C13A       3.3674    2.4342    9.8072 C.ar      1 RES1    0.0000
     56 C14A      -1.0016    1.1167   13.8979 C.ar      2 RES2    0.0000
     57 C15A      -1.9794    1.0829   14.8487 C.ar      2 RES2    0.0000
     58 C16A      -3.1927    0.3534   14.6443 C.ar      2 RES2    0.0000
     59 C17A      -3.3648   -0.2768   13.4662 C.ar      2 RES2    0.0000
     60 C18A      -2.3913   -0.2842   12.4164 C.ar      2 RES2    0.0000
     61 C19A      -1.1574    0.4698   12.6647 C.ar      2 RES2    0.0000
     62 C20A      -0.2095    0.4603   11.6684 C.ar      2 RES2    0.0000
     63 C21A      -0.3596   -0.1927   10.4498 C.ar      2 RES2    0.0000
     64 C22A      -1.5874   -0.9436   10.2015 C.ar      2 RES2    0.0000
     65 C23A      -2.5588   -0.9409   11.2221 C.ar      2 RES2    0.0000
     66 C24A      -1.7493   -1.6200    8.9910 C.ar      2 RES2    0.0000
     67 C25A      -0.7779   -1.6354    7.9882 C.ar      2 RES2    0.0000
     68 C26A       0.6047   -0.2058    9.4470 C.ar      2 RES2    0.0000
     69 H1A       -1.4590    5.0509   12.7231 H         1 RES1    0.0000
     70 H2A       -1.1485    5.2571   14.9899 H         1 RES1    0.0000
     71 H3A        0.8157    4.4306   15.9619 H         1 RES1    0.0000
     72 H4A        2.5109    3.5467   14.6913 H         1 RES1    0.0000
     73 H5A       -0.6053    4.3489   10.4822 H         1 RES1    0.0000
     74 H6A        3.3398    2.7759   12.4213 H         1 RES1    0.0000
     75 H7A        1.4131    0.2706    9.5946 H         2 RES2    0.0000
     76 H8A        0.2083    3.6830    8.2397 H         1 RES1    0.0000
     77 H9A        4.1686    2.1122   10.2047 H         1 RES1    0.0000
     78 H10A      -0.1970    1.5891   14.0764 H         2 RES2    0.0000
     79 H11A      -3.3687   -1.4161   11.0761 H         2 RES2    0.0000
     80 H12A      -1.8520    1.5543   15.6633 H         2 RES2    0.0000
     81 H13A      -3.8588    0.3148   15.3209 H         2 RES2    0.0000
     82 H14A      -4.1793   -0.7441   13.3234 H         2 RES2    0.0000
     83 H15A       0.6011    0.9311   11.8225 H         2 RES2    0.0000
     84 H16A      -2.5599   -2.0933    8.8434 H         2 RES2    0.0000
@<TRIPOS>BOND
     1    1    2 ar
     2    2    3 ar
     3    3    4 ar
     4    4    5 ar
     5    5    6 ar
     6    6    1 ar
     7    7    6 ar
     8    8    7 ar
     9    9    8 ar
    10   10    5 ar
    11   11    8 ar
    12   12   11 ar
    13   13    9 ar
    14   14   15 ar
    15   15   16 ar
    16   16   17 ar
    17   17   18 ar
    18   18   19 ar
    19   19   14 ar
    20   20   19 ar
    21   21   20 ar
    22   22   21 ar
    23   23   18 ar
    24   24   22 ar
    25   25   24 ar
    26   26   21 ar
    27   27    1 1
    28   28    2 1
    29   29    3 1
    30   30    4 1
    31   31    7 1
    32   32   10 1
    33   33   26 1
    34   34   11 1
    35   35   13 1
    36   36   14 1
    37   37   23 1
    38   38   15 1
    39   39   16 1
    40   40   17 1
    41   41   20 1
    42   42   24 1
    43   43   44 ar
    44   44   45 ar
    45   45   46 ar
    46   46   47 ar
    47   47   48 ar
    48   48   43 ar
    49   49   48 ar
    50   50   49 ar
    51   51   50 ar
    52   52   47 ar
    53   53   50 ar
    54   54   12 ar
    55   55   12 ar
    56   56   57 ar
    57   57   58 ar
    58   58   59 ar
    59   59   60 ar
    60   60   61 ar
    61   61   56 ar
    62   62   61 ar
    63   63   62 ar
    64   64   63 ar
    65   65   60 ar
    66   66   64 ar
    67   67   25 ar
    68   68   25 ar
    69   69   43 1
    70   70   44 1
    71   71   45 1
    72   72   46 1
    73   73   49 1
    74   74   52 1
    75   75   68 1
    76   76   53 1
    77   77   55 1
    78   78   56 1
    79   79   65 1
    80   80   57 1
    81   81   58 1
    82   82   59 1
    83   83   62 1
    84   84   66 1
    85    9   10 ar
    86   13   54 ar
    87   22   23 ar
    88   26   67 ar
    89   51   52 ar
    90   51   55 ar
    91   53   54 ar
    92   63   68 ar
    93   64   65 ar
    94   66   67 ar
@<TRIPOS>SUBSTRUCTURE
     1 RES1 1
     2 RES2 14

@<TRIPOS>CRYSIN
   6.2920    7.6730   16.4240  98.6600  91.1600  95.7100   2 1

