# MOL2 file generated by ConQuest
# Please check atom types

@<TRIPOS>MOLECULE
ZZZDKE01
    84    94     2
SMALL
NO_CHARGES
****
Generated from CSD

@<TRIPOS>ATOM
      1 C1        -0.8701    8.6238    5.3654 C.ar      1 RES1    0.0000
      2 C2        -0.6606    9.2708    6.5477 C.ar      1 RES1    0.0000
      3 C3         0.5658    9.9927    6.7728 C.ar      1 RES1    0.0000
      4 C4         1.5255   10.0289    5.8177 C.ar      1 RES1    0.0000
      5 C5         1.3605    9.3651    4.5578 C.ar      1 RES1    0.0000
      6 C6         0.1262    8.6295    4.3270 C.ar      1 RES1    0.0000
      7 C7        -0.0574    7.9724    3.1213 C.ar      1 RES1    0.0000
      8 C8         0.9304    7.9711    2.1080 C.ar      1 RES1    0.0000
      9 C9         2.1725    8.7117    2.3362 C.ar      1 RES1    0.0000
     10 C10        2.3224    9.3816    3.5626 C.ar      1 RES1    0.0000
     11 C11        0.7659    7.2935    0.8869 C.ar      1 RES1    0.0000
     12 C12        1.7546    7.2849   -0.1139 C.ar      1 RES1    0.0000
     13 C13        3.1545    8.7071    1.3341 C.ar      1 RES1    0.0000
     14 C14        2.6505    6.0074    4.9901 C.ar      2 RES2    0.0000
     15 C15        2.8404    6.1119    6.3299 C.ar      2 RES2    0.0000
     16 C16        4.0632    5.6352    6.9214 C.ar      2 RES2    0.0000
     17 C17        5.0358    5.0833    6.1564 C.ar      2 RES2    0.0000
     18 C18        4.8850    4.9459    4.7380 C.ar      2 RES2    0.0000
     19 C19        3.6468    5.4304    4.1316 C.ar      2 RES2    0.0000
     20 C20        3.4771    5.3098    2.7520 C.ar      2 RES2    0.0000
     21 C21        4.4725    4.7464    1.9148 C.ar      2 RES2    0.0000
     22 C22        5.7107    4.2668    2.5242 C.ar      2 RES2    0.0000
     23 C23        5.8675    4.3884    3.9260 C.ar      2 RES2    0.0000
     24 C24        4.3087    4.6311    0.5311 C.ar      2 RES2    0.0000
     25 C25        5.2980    4.0726   -0.3087 C.ar      2 RES2    0.0000
     26 C26        6.6966    3.7040    1.7018 C.ar      2 RES2    0.0000
     27 H1        -1.6707    8.1707    5.2277 H         1 RES1    0.0000
     28 H2        -1.3121    9.2459    7.2117 H         1 RES1    0.0000
     29 H3         0.6993   10.4362    7.5796 H         1 RES1    0.0000
     30 H4         2.3122   10.4968    5.9829 H         1 RES1    0.0000
     31 H5        -0.8549    7.5178    2.9736 H         1 RES1    0.0000
     32 H6         3.1062    9.8588    3.7125 H         1 RES1    0.0000
     33 H7        -0.0277    6.8326    0.7357 H         1 RES1    0.0000
     34 H8         3.9452    9.1720    1.4843 H         1 RES1    0.0000
     35 H9         1.8557    6.3162    4.6190 H         2 RES2    0.0000
     36 H10        2.1812    6.4902    6.8651 H         2 RES2    0.0000
     37 H11        4.1873    5.7080    7.8400 H         2 RES2    0.0000
     38 H12        5.8186    4.7868    6.5607 H         2 RES2    0.0000
     39 H13        2.6843    5.6089    2.3697 H         2 RES2    0.0000
     40 H14        6.6553    4.0855    4.3179 H         2 RES2    0.0000
     41 H15        3.5168    4.9341    0.1481 H         2 RES2    0.0000
     42 H16        7.4848    3.3987    2.0898 H         2 RES2    0.0000
     43 C1A        5.6177    6.6911   -5.3654 C.ar      1 RES1    0.0000
     44 C2A        5.4083    6.0441   -6.5477 C.ar      1 RES1    0.0000
     45 C3A        4.1818    5.3222   -6.7728 C.ar      1 RES1    0.0000
     46 C4A        3.2221    5.2860   -5.8177 C.ar      1 RES1    0.0000
     47 C5A        3.3872    5.9499   -4.5578 C.ar      1 RES1    0.0000
     48 C6A        4.6215    6.6854   -4.3270 C.ar      1 RES1    0.0000
     49 C7A        4.8051    7.3425   -3.1213 C.ar      1 RES1    0.0000
     50 C8A        3.8173    7.3438   -2.1080 C.ar      1 RES1    0.0000
     51 C9A        2.5752    6.6033   -2.3362 C.ar      1 RES1    0.0000
     52 C10A       2.4252    5.9333   -3.5626 C.ar      1 RES1    0.0000
     53 C11A       3.9818    8.0214   -0.8869 C.ar      1 RES1    0.0000
     54 C12A       2.9931    8.0301    0.1139 C.ar      1 RES1    0.0000
     55 C13A       1.5931    6.6078   -1.3341 C.ar      1 RES1    0.0000
     56 C14A       9.1824    1.6501   -4.9901 C.ar      2 RES2    0.0000
     57 C15A       8.9924    1.5455   -6.3299 C.ar      2 RES2    0.0000
     58 C16A       7.7696    2.0223   -6.9214 C.ar      2 RES2    0.0000
     59 C17A       6.7970    2.5742   -6.1564 C.ar      2 RES2    0.0000
     60 C18A       6.9478    2.7116   -4.7380 C.ar      2 RES2    0.0000
     61 C19A       8.1860    2.2271   -4.1316 C.ar      2 RES2    0.0000
     62 C20A       8.3558    2.3476   -2.7520 C.ar      2 RES2    0.0000
     63 C21A       7.3604    2.9111   -1.9148 C.ar      2 RES2    0.0000
     64 C22A       6.1221    3.3907   -2.5242 C.ar      2 RES2    0.0000
     65 C23A       5.9653    3.2691   -3.9260 C.ar      2 RES2    0.0000
     66 C24A       7.5242    3.0264   -0.5311 C.ar      2 RES2    0.0000
     67 C25A       6.5348    3.5849    0.3087 C.ar      2 RES2    0.0000
     68 C26A       5.1362    3.9534   -1.7018 C.ar      2 RES2    0.0000
     69 H1A        6.4183    7.1442   -5.2277 H         1 RES1    0.0000
     70 H2A        6.0598    6.0690   -7.2117 H         1 RES1    0.0000
     71 H3A        4.0483    4.8788   -7.5796 H         1 RES1    0.0000
     72 H4A        2.4354    4.8181   -5.9829 H         1 RES1    0.0000
     73 H5A        5.6026    7.7971   -2.9736 H         1 RES1    0.0000
     74 H6A        1.6414    5.4561   -3.7125 H         1 RES1    0.0000
     75 H7A        4.7754    8.4824   -0.7357 H         1 RES1    0.0000
     76 H8A        0.8024    6.1429   -1.4843 H         1 RES1    0.0000
     77 H9A        9.9772    1.3413   -4.6190 H         2 RES2    0.0000
     78 H10A       9.6517    1.1673   -6.8651 H         2 RES2    0.0000
     79 H11A       7.6455    1.9494   -7.8400 H         2 RES2    0.0000
     80 H12A       6.0142    2.8706   -6.5607 H         2 RES2    0.0000
     81 H13A       9.1485    2.0485   -2.3697 H         2 RES2    0.0000
     82 H14A       5.1776    3.5720   -4.3179 H         2 RES2    0.0000
     83 H15A       8.3160    2.7233   -0.1481 H         2 RES2    0.0000
     84 H16A       4.3480    4.2588   -2.0898 H         2 RES2    0.0000
@<TRIPOS>BOND
     1    1    2 ar
     2    2    3 ar
     3    3    4 ar
     4    4    5 ar
     5    5    6 ar
     6    6    1 ar
     7    7    6 ar
     8    8    7 ar
     9    9    8 ar
    10   10    5 ar
    11   11    8 ar
    12   12   11 ar
    13   13    9 ar
    14   14   15 ar
    15   15   16 ar
    16   16   17 ar
    17   17   18 ar
    18   18   19 ar
    19   19   14 ar
    20   20   19 ar
    21   21   20 ar
    22   22   21 ar
    23   23   18 ar
    24   24   21 ar
    25   25   24 ar
    26   26   22 ar
    27   27    1 1
    28   28    2 1
    29   29    3 1
    30   30    4 1
    31   31    7 1
    32   32   10 1
    33   33   11 1
    34   34   13 1
    35   35   14 1
    36   36   15 1
    37   37   16 1
    38   38   17 1
    39   39   20 1
    40   40   23 1
    41   41   24 1
    42   42   26 1
    43   43   44 ar
    44   44   45 ar
    45   45   46 ar
    46   46   47 ar
    47   47   48 ar
    48   48   43 ar
    49   49   48 ar
    50   50   49 ar
    51   51   50 ar
    52   52   47 ar
    53   53   50 ar
    54   54   12 ar
    55   55   12 ar
    56   56   57 ar
    57   57   58 ar
    58   58   59 ar
    59   59   60 ar
    60   60   61 ar
    61   61   56 ar
    62   62   61 ar
    63   63   62 ar
    64   64   63 ar
    65   65   60 ar
    66   66   63 ar
    67   67   25 ar
    68   68   25 ar
    69   69   43 1
    70   70   44 1
    71   71   45 1
    72   72   46 1
    73   73   49 1
    74   74   52 1
    75   75   53 1
    76   76   55 1
    77   77   56 1
    78   78   57 1
    79   79   58 1
    80   80   59 1
    81   81   62 1
    82   82   65 1
    83   83   66 1
    84   84   68 1
    85    9   10 ar
    86   13   54 ar
    87   22   23 ar
    88   26   67 ar
    89   51   52 ar
    90   51   55 ar
    91   53   54 ar
    92   64   65 ar
    93   64   68 ar
    94   66   67 ar
@<TRIPOS>SUBSTRUCTURE
     1 RES1 1
     2 RES2 14

@<TRIPOS>CRYSIN
   6.3060    7.6970   16.4800  98.7700  91.2500  95.8100   2 1

