# MOL2 file generated by ConQuest
# Please check atom types

@<TRIPOS>MOLECULE
ZZZOYC01
    36    40     1
SMALL
NO_CHARGES
****
Generated from CSD

@<TRIPOS>ATOM
      1 C1         5.3163    1.3262    4.0922 C.ar      1 RES1    0.0000
      2 C2         4.5797    0.2763    3.5232 C.ar      1 RES1    0.0000
      3 C3         4.2779    0.2819    2.1475 C.ar      1 RES1    0.0000
      4 C4         4.7363    1.2739    1.3420 C.ar      1 RES1    0.0000
      5 C5         5.4543    2.3434    1.8055 C.ar      1 RES1    0.0000
      6 C6         5.7152    2.3681    3.2030 C.ar      1 RES1    0.0000
      7 C7         6.4527    3.4099    3.7665 C.ar      1 RES1    0.0000
      8 C8         6.7626    3.4992    5.0963 C.ar      1 RES1    0.0000
      9 C9         6.4246    2.4567    5.9991 C.ar      1 RES1    0.0000
     10 C10        5.6943    1.3883    5.4991 C.ar      1 RES1    0.0000
     11 C11        5.2650    0.3323    6.3694 C.ar      1 RES1    0.0000
     12 C12        5.6238    0.3139    7.7290 C.ar      1 RES1    0.0000
     13 C13        6.3781    1.4253    8.2074 C.ar      1 RES1    0.0000
     14 C14        6.7773    2.4690    7.3844 C.ar      1 RES1    0.0000
     15 C15        7.5192    3.5318    7.9249 C.ar      1 RES1    0.0000
     16 C16        7.8800    3.5718    9.2413 C.ar      1 RES1    0.0000
     17 C17        7.5396    2.5158   10.1359 C.ar      1 RES1    0.0000
     18 C18        6.7830    1.4511    9.6291 C.ar      1 RES1    0.0000
     19 C19        6.4333    0.4480   10.5157 C.ar      1 RES1    0.0000
     20 C20        6.8499    0.5102   11.8604 C.ar      1 RES1    0.0000
     21 C21        7.5959    1.5730   12.3064 C.ar      1 RES1    0.0000
     22 C22        7.9562    2.5958   11.4766 C.ar      1 RES1    0.0000
     23 H1         4.2500   -0.5379    4.1436 H         1 RES1    0.0000
     24 H2         3.6699   -0.5157    1.7218 H         1 RES1    0.0000
     25 H3         4.5260    1.2203    0.2933 H         1 RES1    0.0000
     26 H4         5.8056    3.1108    1.1352 H         1 RES1    0.0000
     27 H5         6.8107    4.2063    3.1124 H         1 RES1    0.0000
     28 H6         7.2727    4.3847    5.4626 H         1 RES1    0.0000
     29 H7         4.6559   -0.4628    5.9761 H         1 RES1    0.0000
     30 H8         5.3336   -0.5052    8.3831 H         1 RES1    0.0000
     31 H9         7.8203    4.3355    7.2762 H         1 RES1    0.0000
     32 H10        8.4504    4.4167    9.6048 H         1 RES1    0.0000
     33 H11        5.8186   -0.3760   10.1832 H         1 RES1    0.0000
     34 H12        6.5909   -0.2911   12.5334 H         1 RES1    0.0000
     35 H13        7.8946    1.6050   13.3389 H         1 RES1    0.0000
     36 H14        8.5376    3.4327   11.8374 H         1 RES1    0.0000
@<TRIPOS>BOND
     1    1    2 ar
     2    2    3 ar
     3    3    4 ar
     4    4    5 ar
     5    5    6 ar
     6    6    1 ar
     7    7    6 ar
     8    8    7 ar
     9    9    8 ar
    10   10    1 ar
    11   11   10 ar
    12   12   11 ar
    13   13   12 ar
    14   14    9 ar
    15   15   14 ar
    16   16   15 ar
    17   17   16 ar
    18   18   13 ar
    19   19   18 ar
    20   20   19 ar
    21   21   20 ar
    22   22   17 ar
    23   23    2 1
    24   24    3 1
    25   25    4 1
    26   26    5 1
    27   27    7 1
    28   28    8 1
    29   29   11 1
    30   30   12 1
    31   31   15 1
    32   32   16 1
    33   33   19 1
    34   34   20 1
    35   35   21 1
    36   36   22 1
    37    9   10 ar
    38   13   14 ar
    39   17   18 ar
    40   21   22 ar
@<TRIPOS>SUBSTRUCTURE
     1 RES1 1

@<TRIPOS>CRYSIN
   8.4800    6.1540   13.5150  90.0000  90.4600  90.0000   4 1

