# MOL2 file generated by ConQuest
# Please check atom types

@<TRIPOS>MOLECULE
ZZZOYC03
    36    40     1
SMALL
NO_CHARGES
****
Generated from CSD

@<TRIPOS>ATOM
      1 C1         5.8376    4.2769   12.8153 C.ar      1 RES1    0.0000
      2 C2         6.2028    5.3333   11.9570 C.ar      1 RES1    0.0000
      3 C3         6.2112    4.3079   14.2025 C.ar      1 RES1    0.0000
      4 C4         6.9551    5.3935   14.7057 C.ar      1 RES1    0.0000
      5 C5         7.3313    6.4256   13.8086 C.ar      1 RES1    0.0000
      6 H1         7.8482    7.1543   14.1313 H         1 RES1    0.0000
      7 C6         6.9719    6.3989   12.5002 C.ar      1 RES1    0.0000
      8 H2         7.2404    7.1111   11.9317 H         1 RES1    0.0000
      9 C7         5.8006    5.3132   10.5604 C.ar      1 RES1    0.0000
     10 C8         7.3194    5.4349   16.1161 C.ar      1 RES1    0.0000
     11 C9         6.9004    4.3869   16.9716 C.ar      1 RES1    0.0000
     12 C10        5.0718    3.2003   12.2729 C.ar      1 RES1    0.0000
     13 H3         4.8168    2.4839   12.8422 H         1 RES1    0.0000
     14 C11        5.0466    4.2124   10.0779 C.ar      1 RES1    0.0000
     15 C12        4.6999    3.1687   10.9766 C.ar      1 RES1    0.0000
     16 H4         4.1938    2.4310   10.6573 H         1 RES1    0.0000
     17 C13        5.8341    3.2654   15.1094 C.ar      1 RES1    0.0000
     18 H5         5.3441    2.5210   14.7800 H         1 RES1    0.0000
     19 C14        8.0793    6.4804   16.6796 C.ar      1 RES1    0.0000
     20 H6         8.3771    7.1914   16.1255 H         1 RES1    0.0000
     21 C15        6.1548    3.3110   16.4229 C.ar      1 RES1    0.0000
     22 H7         5.8737    2.6049   16.9931 H         1 RES1    0.0000
     23 C16        4.6562    4.1735    8.7329 C.ar      1 RES1    0.0000
     24 H8         4.1502    3.4351    8.4146 H         1 RES1    0.0000
     25 C17        7.2143    4.4374   18.3392 C.ar      1 RES1    0.0000
     26 H9         6.9130    3.7447   18.9147 H         1 RES1    0.0000
     27 C18        8.3940    6.4883   18.0125 C.ar      1 RES1    0.0000
     28 H10        8.9202    7.1950   18.3668 H         1 RES1    0.0000
     29 C19        6.1373    6.3326    9.6432 C.ar      1 RES1    0.0000
     30 H11        6.6467    7.0770    9.9388 H         1 RES1    0.0000
     31 C20        4.9904    5.1776    7.8710 C.ar      1 RES1    0.0000
     32 H12        4.7141    5.1399    6.9629 H         1 RES1    0.0000
     33 C21        5.7427    6.2657    8.3350 C.ar      1 RES1    0.0000
     34 H13        5.9800    6.9627    7.7351 H         1 RES1    0.0000
     35 C22        7.9481    5.4695   18.8542 C.ar      1 RES1    0.0000
     36 H14        8.1537    5.4927   19.7809 H         1 RES1    0.0000
@<TRIPOS>BOND
     1    1    2 ar
     2    2    7 ar
     3    3    1 ar
     4    4    3 ar
     5    5    4 ar
     6    6    5 1
     7    7    5 ar
     8    8    7 1
     9    9    2 ar
    10   10    4 ar
    11   11   10 ar
    12   12    1 ar
    13   13   12 1
    14   14    9 ar
    15   15   12 ar
    16   16   15 1
    17   17    3 ar
    18   18   17 1
    19   19   10 ar
    20   20   19 1
    21   21   11 ar
    22   22   21 1
    23   23   14 ar
    24   24   23 1
    25   25   11 ar
    26   26   25 1
    27   27   19 ar
    28   28   27 1
    29   29    9 ar
    30   30   29 1
    31   31   23 ar
    32   32   31 1
    33   33   29 ar
    34   34   33 1
    35   35   25 ar
    36   36   35 1
    37   14   15 ar
    38   17   21 ar
    39   27   35 ar
    40   31   33 ar
@<TRIPOS>SUBSTRUCTURE
     1 RES1 1

@<TRIPOS>CRYSIN
   8.4080    6.0820   13.4290  90.0000  90.0230  90.0000   4 1

