# MOL2 file generated by ConQuest
# Please check atom types

@<TRIPOS>MOLECULE
ZZZUFS11
    33    36     1
SMALL
NO_CHARGES
****
Generated from CSD

@<TRIPOS>ATOM
      1 C1         9.6788    8.0112    0.2965 C.ar      1 RES1    0.0000
      2 C2        10.5879    8.6647   -0.4995 C.ar      1 RES1    0.0000
      3 C3        11.0654    8.0533   -1.6572 C.ar      1 RES1    0.0000
      4 C4        10.6209    6.8162   -1.9869 C.ar      1 RES1    0.0000
      5 C5         9.2185    4.8181   -1.5526 C.ar      1 RES1    0.0000
      6 C6         8.3238    4.1545   -0.8071 C.ar      1 RES1    0.0000
      7 C7         6.8784    4.0412    1.1872 C.ar      1 RES1    0.0000
      8 C8         5.3886    3.8800    3.1434 C.ar      1 RES1    0.0000
      9 C9         4.8810    4.4478    4.2704 C.ar      1 RES1    0.0000
     10 C10        5.3069    5.7126    4.6936 C.ar      1 RES1    0.0000
     11 C11        6.2375    6.4299    3.9948 C.ar      1 RES1    0.0000
     12 C12        7.7172    6.5475    1.9992 C.ar      1 RES1    0.0000
     13 C13        9.2099    6.7377   -0.0074 C.ar      1 RES1    0.0000
     14 C14        9.6917    6.1191   -1.1848 C.ar      1 RES1    0.0000
     15 C15        7.8018    4.7208    0.4158 C.ar      1 RES1    0.0000
     16 C16        6.3565    4.5698    2.3696 C.ar      1 RES1    0.0000
     17 C17        6.7823    5.8636    2.7977 C.ar      1 RES1    0.0000
     18 C18        8.2421    6.0146    0.8231 C.ar      1 RES1    0.0000
     19 C19        6.6533    7.7862    4.4500 C.3       1 RES1    0.0000
     20 H1         9.3634    8.5093    1.1073 H         1 RES1    0.0000
     21 H2        10.8976    9.5984   -0.3076 H         1 RES1    0.0000
     22 H3        11.7006    8.5964   -2.1899 H         1 RES1    0.0000
     23 H4        10.8690    6.3892   -2.7805 H         1 RES1    0.0000
     24 H5         9.5211    4.4289   -2.3745 H         1 RES1    0.0000
     25 H6         7.9868    3.2817   -1.0458 H         1 RES1    0.0000
     26 H7         6.5959    3.1511    0.8981 H         1 RES1    0.0000
     27 H8         5.1477    3.0204    2.8420 H         1 RES1    0.0000
     28 H9         4.2730    3.9788    4.9089 H         1 RES1    0.0000
     29 H10        4.9613    6.1279    5.5117 H         1 RES1    0.0000
     30 H11        7.9868    7.4783    2.2514 H         1 RES1    0.0000
     31 H12        6.4669    8.4948    3.7647 H         1 RES1    0.0000
     32 H13        7.5997    7.8849    4.6013 H         1 RES1    0.0000
     33 H14        6.1801    8.0737    5.2534 H         1 RES1    0.0000
@<TRIPOS>BOND
     1    1    2 ar
     2    2    3 ar
     3    3    4 ar
     4    4   14 ar
     5    5    6 ar
     6    6   15 ar
     7    7   15 ar
     8    8    9 ar
     9    9   10 ar
    10   10   11 ar
    11   11   17 ar
    12   12   17 ar
    13   13    1 ar
    14   14    5 ar
    15   15   18 ar
    16   16    7 ar
    17   17   16 ar
    18   18   12 ar
    19   19   11 1
    20   20    1 1
    21   21    2 1
    22   22    3 1
    23   23    4 1
    24   24    5 1
    25   25    6 1
    26   26    7 1
    27   27    8 1
    28   28    9 1
    29   29   10 1
    30   30   12 1
    31   31   19 1
    32   32   19 1
    33   33   19 1
    34    8   16 ar
    35   13   14 ar
    36   13   18 ar
@<TRIPOS>SUBSTRUCTURE
     1 RES1 1

@<TRIPOS>CRYSIN
  14.3390   14.5210   12.3030  90.0000  90.0000  90.0000  61 1

