# MOL2 file generated by ConQuest
# Please check atom types

@<TRIPOS>MOLECULE
AANHOX01
    40    40     2
SMALL
NO_CHARGES
****
Generated from CSD

@<TRIPOS>ATOM
      1 C1         8.2870   10.2801   15.2384 C.ar      1 RES1    0.0000
      2 C2         7.3613    9.3211   14.7945 C.ar      1 RES1    0.0000
      3 C3         6.9827    9.2512   13.4532 C.ar      1 RES1    0.0000
      4 C4         7.5275   10.1357   12.5288 C.ar      1 RES1    0.0000
      5 C5         8.4669   11.0833   12.9463 C.ar      1 RES1    0.0000
      6 C6         8.8304   11.1544   14.2770 C.ar      1 RES1    0.0000
      7 C7         8.7450   10.4634   16.6163 C.2       1 RES1    0.0000
      8 C8         6.1151    9.3600   10.7724 C.3       1 RES1    0.0000
      9 N1         8.3716    9.9410   17.7323 N.2       1 RES1    0.0000
     10 O1         7.3318    9.0289   17.6020 O.3       1 RES1    0.0000
     11 O2         7.2290   10.1541   11.2007 O.3       1 RES1    0.0000
     12 H1         6.9071    8.6852   15.4017 H         1 RES1    0.0000
     13 H2         6.3554    8.6737   13.2015 H         1 RES1    0.0000
     14 H3         8.8341   11.7215   12.3214 H         1 RES1    0.0000
     15 H4         9.4538   11.8247   14.5921 H         1 RES1    0.0000
     16 H5         9.5445   11.0570   16.7043 H         1 RES1    0.0000
     17 H6         5.3201    9.6362   11.2477 H         1 RES1    0.0000
     18 H7         6.3328    8.4789   10.8252 H         1 RES1    0.0000
     19 H8         6.0758    9.6133    9.8747 H         1 RES1    0.0000
     20 H9         7.1111    8.7195   18.3941 H         1 RES1    0.0000
     21 C9         7.1965    7.7250    4.9518 C.ar      2 RES2    0.0000
     22 C10        6.6199    6.4978    5.3000 C.ar      2 RES2    0.0000
     23 C11        6.5580    6.1014    6.6395 C.ar      2 RES2    0.0000
     24 C12        7.0794    6.9160    7.6363 C.ar      2 RES2    0.0000
     25 C13        7.6696    8.1375    7.2995 C.ar      2 RES2    0.0000
     26 C14        7.7301    8.5305    5.9794 C.ar      2 RES2    0.0000
     27 C15        7.3046    8.2899    3.6014 C.2       2 RES2    0.0000
     28 C16        6.2995    5.5079    9.3889 C.3       2 RES2    0.0000
     29 N2         6.7537    7.9771    2.4833 N.2       2 RES2    0.0000
     30 O3         5.9232    6.8530    2.5391 O.3       2 RES2    0.0000
     31 O4         7.0877    6.6227    8.9643 O.3       2 RES2    0.0000
     32 H10        6.2950    5.8780    4.6293 H         2 RES2    0.0000
     33 H11        6.1287    5.2363    6.8296 H         2 RES2    0.0000
     34 H12        8.0482    8.7195    7.9737 H         2 RES2    0.0000
     35 H13        8.1087    9.3268    5.7559 H         2 RES2    0.0000
     36 H14        7.8971    9.0747    3.4676 H         2 RES2    0.0000
     37 H15        5.3655    5.6259    9.2587 H         2 RES2    0.0000
     38 H16        6.3857    5.4540   10.2444 H         2 RES2    0.0000
     39 H17        6.6350    4.7092    8.9770 H         2 RES2    0.0000
     40 H18        5.5091    6.9321    1.7778 H         2 RES2    0.0000
@<TRIPOS>BOND
     1    1    2 ar
     2    2    3 ar
     3    3    4 ar
     4    4    5 ar
     5    5    6 ar
     6    6    1 ar
     7    7    1 1
     8    8   11 1
     9    9    7 2
    10   10    9 1
    11   11    4 1
    12   12    2 1
    13   13    3 1
    14   14    5 1
    15   15    6 1
    16   16    7 1
    17   17    8 1
    18   18    8 1
    19   19    8 1
    20   20   10 1
    21   21   22 ar
    22   22   23 ar
    23   23   24 ar
    24   24   25 ar
    25   25   26 ar
    26   26   21 ar
    27   27   21 1
    28   28   31 1
    29   29   27 2
    30   30   29 1
    31   31   24 1
    32   32   22 1
    33   33   23 1
    34   34   25 1
    35   35   26 1
    36   36   27 1
    37   37   28 1
    38   38   28 1
    39   39   28 1
    40   40   30 1
@<TRIPOS>SUBSTRUCTURE
     1 RES1 1
     2 RES2 21

@<TRIPOS>CRYSIN
   7.5570   11.4580   17.6020  90.0000  90.0000  90.0000  33 1

