# MOL2 file generated by ConQuest
# Please check atom types

@<TRIPOS>MOLECULE
AANHOX
    22    22     2
SMALL
NO_CHARGES
****
Generated from CSD

@<TRIPOS>ATOM
      1 O1         7.1370    6.6736   10.3816 O.3       1 RES1    0.0000
      2 O2         6.1620    6.9872    3.9721 O.3       1 RES1    0.0000
      3 N1         7.0603    8.0738    3.9491 N.2       1 RES1    0.0000
      4 C1         7.2075    6.9802    9.0682 C.ar      1 RES1    0.0000
      5 C2         6.6960    6.1887    8.0717 C.ar      1 RES1    0.0000
      6 C3         6.7890    6.5671    6.7317 C.ar      1 RES1    0.0000
      7 C4         7.4323    7.7868    6.4184 C.ar      1 RES1    0.0000
      8 C5         7.9515    8.5436    7.4751 C.ar      1 RES1    0.0000
      9 C6         7.8198    8.1721    8.7744 C.ar      1 RES1    0.0000
     10 C7         6.3085    5.6078   10.8135 C.3       1 RES1    0.0000
     11 C8         7.6028    8.3816    5.0572 C.2       1 RES1    0.0000
     12 O3         7.3710   10.2748   12.7925 O.3       2 RES2    0.0000
     13 O4         7.6500    9.1014   19.1737 O.3       2 RES2    0.0000
     14 N2         8.7033   10.0017   19.2605 N.2       2 RES2    0.0000
     15 C9         6.2853    9.4740   12.3801 C.3       2 RES2    0.0000
     16 C10        7.7190   10.2736   14.1183 C.ar      2 RES2    0.0000
     17 C11        8.6335   11.1971   14.5024 C.ar      2 RES2    0.0000
     18 C12        9.0520   11.2665   15.8760 C.ar      2 RES2    0.0000
     19 C13        8.5560   10.3523   16.7982 C.ar      2 RES2    0.0000
     20 C14        7.6028    9.4034   16.3840 C.ar      2 RES2    0.0000
     21 C15        7.1998    9.3571   15.0352 C.ar      2 RES2    0.0000
     22 C16        9.0365   10.5525   18.1506 C.2       2 RES2    0.0000
@<TRIPOS>BOND
     1    1    4 1
     2    2    3 1
     3    3   11 2
     4    4    5 ar
     5    5    6 ar
     6    6    7 ar
     7    7    8 ar
     8    8    9 ar
     9    9    4 ar
    10   10    1 1
    11   11    7 1
    12   12   15 1
    13   13   14 1
    14   14   22 2
    15   16   12 1
    16   17   16 ar
    17   18   17 ar
    18   19   18 ar
    19   20   19 ar
    20   21   16 ar
    21   22   19 1
    22   20   21 ar
@<TRIPOS>SUBSTRUCTURE
     1 RES1 1
     2 RES2 12

@<TRIPOS>CRYSIN
   7.7500   11.5720   17.7010  90.0000  90.0000  90.0000  33 1

