# MOL2 file generated by ConQuest
# Please check atom types

@<TRIPOS>MOLECULE
AARBOX
    22    10     2
SMALL
NO_CHARGES
****
Generated from CSD

@<TRIPOS>ATOM
      1 O1         1.6259    3.9954    1.1331 O.3       1 RES1    0.0000
      2 O2        -1.0522    1.4427    2.8680 O.3       1 RES1    0.0000
      3 O3         1.4907    1.6564    4.1959 O.3       1 RES1    0.0000
      4 O4        -0.8012    4.4118    4.5755 O.3       1 RES1    0.0000
      5 O5         1.7183    4.6672    5.8962 O.3       1 RES1    0.0000
      6 N1         1.5771    2.6569    0.7217 N.2       1 RES1    0.0000
      7 C1         0.7559    1.9851    1.3972 C.2       1 RES1    0.0000
      8 C2        -0.1106    2.4603    2.5707 C.3       1 RES1    0.0000
      9 C3         0.7537    2.8225    3.7297 C.3       1 RES1    0.0000
     10 C4        -0.0657    3.2647    4.9595 C.3       1 RES1    0.0000
     11 C5         0.7975    3.5924    6.1503 C.3       1 RES1    0.0000
     12 H1         2.3848    0.9804    3.7528 Du        2 SUP2    0.0000
     13 H2         1.1582    1.0836    1.0104 Du        2 SUP2    0.0000
     14 H3        -0.9652    2.9928    2.0207 Du        2 SUP2    0.0000
     15 H4         1.4101    3.6120    3.4641 Du        2 SUP2    0.0000
     16 H5        -0.6717    2.7348    4.9075 Du        2 SUP2    0.0000
     17 H6         1.5567    2.9412    6.3509 Du        2 SUP2    0.0000
     18 H7        -0.6445    1.4964    3.3198 Du        2 SUP2    0.0000
     19 H8         0.1437    3.7668    5.9179 Du        2 SUP2    0.0000
     20 H9        -1.3084    3.2508    4.9075 Du        2 SUP2    0.0000
     21 H10        1.6229    2.2188    5.3405 Du        2 SUP2    0.0000
     22 H11        2.2947    3.3024    0.4330 Du        2 SUP2    0.0000
@<TRIPOS>BOND
     1    1    6 1
     2    2    8 1
     3    3    9 1
     4    4   10 1
     5    5   11 1
     6    6    7 2
     7    7    8 1
     8    8    9 1
     9    9   10 1
    10   10   11 1
@<TRIPOS>SUBSTRUCTURE
     1 RES1 1
     2 SUP2 12

@<TRIPOS>CRYSIN
   4.8980    5.1600   14.4360  90.0000  90.9800  90.0000   4 1

