# MOL2 file generated by ConQuest
# Please check atom types

@<TRIPOS>MOLECULE
ABATOP
    54    57     1
SMALL
NO_CHARGES
****
Generated from CSD

@<TRIPOS>ATOM
      1 O1        -2.0440   16.4014   -2.0984 O.2       1 RES1    0.0000
      2 O2        -1.5567   14.5199   -3.0360 O.2       1 RES1    0.0000
      3 O3         3.6386   17.4515   -0.0147 O.2       1 RES1    0.0000
      4 O4         5.0402   14.7651    3.6387 O.2       1 RES1    0.0000
      5 N1        -1.3636   15.3858   -2.1942 N.pl3     1 RES1    0.0000
      6 N2        -1.0767   12.2459    5.6278 N.3       1 RES1    0.0000
      7 N3         5.8508   13.2225   -0.1653 N.1       1 RES1    0.0000
      8 N4         4.7746   10.3884    2.8551 N.1       1 RES1    0.0000
      9 C1        -0.2334   15.2167   -1.2639 C.ar      1 RES1    0.0000
     10 C2         0.4966   14.0498   -1.3126 C.ar      1 RES1    0.0000
     11 H1         0.2774   13.3738   -1.9124 H         1 RES1    0.0000
     12 C3         1.5659   13.9106   -0.4441 C.ar      1 RES1    0.0000
     13 H2         2.0604   13.1228   -0.4460 H         1 RES1    0.0000
     14 C4         1.9103   14.9401    0.4342 C.ar      1 RES1    0.0000
     15 C5         3.0434   14.7582    1.3728 C.2       1 RES1    0.0000
     16 C6         3.1064   13.4053    2.0246 C.2       1 RES1    0.0000
     17 C7         2.0349   13.0684    2.9337 C.ar      1 RES1    0.0000
     18 C8         1.3795   14.0948    3.6423 C.ar      1 RES1    0.0000
     19 H3         1.6431   14.9759    3.5058 H         1 RES1    0.0000
     20 C9         0.3652   13.8323    4.5264 C.ar      1 RES1    0.0000
     21 H4        -0.0288   14.5332    4.9942 H         1 RES1    0.0000
     22 C10       -0.0913   12.5061    4.7378 C.ar      1 RES1    0.0000
     23 C11       -1.7045   13.3252    6.3762 C.3       1 RES1    0.0000
     24 H5        -2.2321   13.8622    5.7811 H         1 RES1    0.0000
     25 H6        -1.0266   13.8691    6.7832 H         1 RES1    0.0000
     26 H7        -2.2692   12.9539    7.0593 H         1 RES1    0.0000
     27 C12       -1.5920   10.9010    5.7903 C.3       1 RES1    0.0000
     28 H8        -0.8727   10.3088    6.0206 H         1 RES1    0.0000
     29 H9        -1.9952   10.6123    4.9685 H         1 RES1    0.0000
     30 H10       -2.2496   10.8930    6.4899 H         1 RES1    0.0000
     31 C13        0.5375   11.4750    3.9911 C.ar      1 RES1    0.0000
     32 H11        0.2440   10.5986    4.0863 H         1 RES1    0.0000
     33 C14        1.5727   11.7516    3.1304 C.ar      1 RES1    0.0000
     34 H12        1.9769   11.0551    2.6676 H         1 RES1    0.0000
     35 C15        4.1403   12.5844    1.6609 C.2       1 RES1    0.0000
     36 C16        5.0900   12.9621    0.6497 C.1       1 RES1    0.0000
     37 C17        4.4513   11.3540    2.3293 C.1       1 RES1    0.0000
     38 C18        3.9671   15.6953    1.6569 C.2       1 RES1    0.0000
     39 C19        4.2543   16.9726    0.9112 C.2       1 RES1    0.0000
     40 C20        5.5038   17.5233    1.5001 C.ar      1 RES1    0.0000
     41 C21        5.9437   16.7186    2.5492 C.ar      1 RES1    0.0000
     42 C22        5.0094   15.5846    2.7431 C.2       1 RES1    0.0000
     43 C23        7.0864   17.0372    3.2700 C.ar      1 RES1    0.0000
     44 H13        7.3808   16.4982    3.9677 H         1 RES1    0.0000
     45 C24        7.7743   18.1859    2.9150 C.ar      1 RES1    0.0000
     46 H14        8.5389   18.4266    3.3861 H         1 RES1    0.0000
     47 C25        7.3324   18.9894    1.8543 C.ar      1 RES1    0.0000
     48 H15        7.8139   19.7526    1.6301 H         1 RES1    0.0000
     49 C26        6.1953   18.6690    1.1334 C.ar      1 RES1    0.0000
     50 H16        5.9051   19.2026    0.4289 H         1 RES1    0.0000
     51 C27        1.1364   16.1006    0.4689 C.ar      1 RES1    0.0000
     52 H17        1.3498   16.7812    1.0656 H         1 RES1    0.0000
     53 C28        0.0506   16.2437   -0.3806 C.ar      1 RES1    0.0000
     54 H18       -0.4743   17.0117   -0.3580 H         1 RES1    0.0000
@<TRIPOS>BOND
     1    1    5 2
     2    2    5 2
     3    3   39 2
     4    4   42 2
     5    5    9 1
     6    6   22 1
     7    7   36 3
     8    8   37 3
     9    9   10 ar
    10   10   11 1
    11   12   10 ar
    12   13   12 1
    13   14   12 ar
    14   15   14 1
    15   16   15 1
    16   17   16 1
    17   18   17 ar
    18   19   18 1
    19   20   18 ar
    20   21   20 1
    21   22   20 ar
    22   23    6 1
    23   24   23 1
    24   25   23 1
    25   26   23 1
    26   27    6 1
    27   28   27 1
    28   29   27 1
    29   30   27 1
    30   31   22 ar
    31   32   31 1
    32   33   17 ar
    33   34   33 1
    34   35   16 2
    35   36   35 1
    36   37   35 1
    37   38   15 2
    38   39   38 1
    39   40   39 1
    40   41   40 ar
    41   42   38 1
    42   43   41 ar
    43   44   43 1
    44   45   43 ar
    45   46   45 1
    46   47   45 ar
    47   48   47 1
    48   49   40 ar
    49   50   49 1
    50   51   14 ar
    51   52   51 1
    52   53    9 ar
    53   54   53 1
    54   31   33 ar
    55   41   42 1
    56   47   49 ar
    57   51   53 ar
@<TRIPOS>SUBSTRUCTURE
     1 RES1 1

@<TRIPOS>CRYSIN
   8.3939   22.8222   14.0623  90.0000 119.6610  90.0000  14 1

