# MOL2 file generated by ConQuest
# Please check atom types

@<TRIPOS>MOLECULE
ABATUU
    44    32     2
SMALL
NO_CHARGES
****
Generated from CSD

@<TRIPOS>ATOM
      1 O1         0.1691    1.7663    1.0481 O.3       1 RES1    0.0000
      2 H1         0.5189    1.3189    0.4284 H         1 RES1    0.0000
      3 C1         1.1986    2.1828    1.8448 C.ar      1 RES1    0.0000
      4 C2         2.5049    1.7132    1.6693 C.ar      1 RES1    0.0000
      5 C3         3.5106    2.1886    2.5167 C.ar      1 RES1    0.0000
      6 H2         4.4019    1.8861    2.3869 H         1 RES1    0.0000
      7 C4         3.2478    3.0882    3.5378 C.ar      1 RES1    0.0000
      8 C5         1.9358    3.5201    3.6786 C.ar      1 RES1    0.0000
      9 H3         1.7373    4.1414    4.3684 H         1 RES1    0.0000
     10 C6         0.9008    3.0911    2.8615 C.ar      1 RES1    0.0000
     11 C7         2.8395    0.6947    0.6827 C.2       1 RES1    0.0000
     12 H4         3.7469    0.4367    0.5687 H         1 RES1    0.0000
     13 N1         1.9387    0.1446   -0.0273 N.2       1 RES1    0.0000
     14 O2         2.4582   -0.8412   -0.8859 O.3       1 RES1    0.0000
     15 H5         1.7184   -1.1209   -1.1680 H         1 RES1    0.0000
     16 C8         4.3585    3.5655    4.4816 C.3       1 RES1    0.0000
     17 C9         5.4218    2.5113    4.6285 C.3       1 RES1    0.0000
     18 H6         5.9805    2.7171    5.4063 H         1 RES1    0.0000
     19 H7         5.9776    2.4949    3.8201 H         1 RES1    0.0000
     20 H8         4.9993    1.6359    4.7509 H         1 RES1    0.0000
     21 C10        5.1808    4.6931    3.9425 C.3       1 RES1    0.0000
     22 H9         5.9852    4.8023    4.4908 H         1 RES1    0.0000
     23 H10        4.6553    5.5202    3.9655 H         1 RES1    0.0000
     24 H11        5.4398    4.4960    3.0168 H         1 RES1    0.0000
     25 C11        3.9350    3.6911    5.9158 C.3       1 RES1    0.0000
     26 H12        3.3499    2.9355    6.1484 H         1 RES1    0.0000
     27 H13        3.4510    4.5298    6.0438 H         1 RES1    0.0000
     28 H14        4.7271    3.6747    6.4926 H         1 RES1    0.0000
     29 C12       -0.5180    3.5384    3.0734 C.3       1 RES1    0.0000
     30 H15       -0.8564    3.9530    2.2518 H         1 RES1    0.0000
     31 H16       -0.5492    4.1897    3.8048 H         1 RES1    0.0000
     32 H17       -1.0747    2.7645    3.3024 H         1 RES1    0.0000
     33 C13        4.7904    2.4070    5.3221 Du        2 SUP2    0.0000
     34 C14        5.4162    4.2042    3.6339 Du        2 SUP2    0.0000
     35 C15        3.8310    4.6767    5.3578 Du        2 SUP2    0.0000
     36 H18        5.3292    1.7934    4.7815 Du        2 SUP2    0.0000
     37 H19        4.0012    1.9364    5.6613 Du        2 SUP2    0.0000
     38 H20        5.3254    2.7326    6.0770 Du        2 SUP2    0.0000
     39 H21        6.1156    4.5772    4.2103 Du        2 SUP2    0.0000
     40 H22        5.0173    4.9221    3.0984 Du        2 SUP2    0.0000
     41 H23        5.8084    3.5317    3.0372 Du        2 SUP2    0.0000
     42 H24        3.1079    4.3327    5.9240 Du        2 SUP2    0.0000
     43 H25        3.4888    5.4024    4.7942 Du        2 SUP2    0.0000
     44 H26        4.5551    5.0168    5.9240 Du        2 SUP2    0.0000
@<TRIPOS>BOND
     1    1    2 1
     2    3    1 1
     3    4    3 ar
     4    5    4 ar
     5    6    5 1
     6    7    5 ar
     7    8    7 ar
     8    9    8 1
     9   10    3 ar
    10   11    4 1
    11   12   11 1
    12   13   11 2
    13   14   13 1
    14   15   14 1
    15   16    7 1
    16   17   16 1
    17   18   17 1
    18   19   17 1
    19   20   17 1
    20   21   16 1
    21   22   21 1
    22   23   21 1
    23   24   21 1
    24   25   16 1
    25   26   25 1
    26   27   25 1
    27   28   25 1
    28   29   10 1
    29   30   29 1
    30   31   29 1
    31   32   29 1
    32    8   10 ar
@<TRIPOS>SUBSTRUCTURE
     1 RES1 1
     2 SUP2 33

@<TRIPOS>CRYSIN
   9.4523    9.6626   25.5013  90.0000  90.0000  90.0000  61 1

