# MOL2 file generated by ConQuest
# Please check atom types

@<TRIPOS>MOLECULE
ABAVUW
    33    33     1
SMALL
NO_CHARGES
****
Generated from CSD

@<TRIPOS>ATOM
      1 O1         0.2217    3.3518    7.9732 O.3       1 RES1    0.0000
      2 H1        -0.0673    2.5788    8.1597 H         1 RES1    0.0000
      3 C1        -0.1864    3.6557    6.7113 C.ar      1 RES1    0.0000
      4 C2        -0.9687    2.8074    5.9299 C.ar      1 RES1    0.0000
      5 C3        -1.3454    3.2065    4.6334 C.ar      1 RES1    0.0000
      6 H2        -1.8940    2.6319    4.1123 H         1 RES1    0.0000
      7 C4        -0.9332    4.4200    4.0986 C.ar      1 RES1    0.0000
      8 C5        -0.1450    5.2555    4.9047 C.ar      1 RES1    0.0000
      9 H3         0.1558    6.0873    4.5575 H         1 RES1    0.0000
     10 C6         0.2022    4.8942    6.1908 C.ar      1 RES1    0.0000
     11 C7        -1.3932    1.4999    6.4108 C.2       1 RES1    0.0000
     12 H4        -1.9527    0.9583    5.8657 H         1 RES1    0.0000
     13 N1        -1.0218    1.0710    7.5598 N.2       1 RES1    0.0000
     14 O2        -1.5003   -0.2212    7.8109 O.3       1 RES1    0.0000
     15 H5        -1.1447   -0.4245    8.5482 H         1 RES1    0.0000
     16 C8        -1.2203    4.8040    2.6471 C.3       1 RES1    0.0000
     17 C9        -1.5343    6.2999    2.5136 C.3       1 RES1    0.0000
     18 H6        -2.2807    6.5309    3.1052 H         1 RES1    0.0000
     19 H7        -1.7786    6.5012    1.5857 H         1 RES1    0.0000
     20 H8        -0.7445    6.8227    2.7640 H         1 RES1    0.0000
     21 C10       -2.4038    4.0287    2.0677 C.3       1 RES1    0.0000
     22 H9        -2.2143    3.0680    2.1052 H         1 RES1    0.0000
     23 H10       -2.5452    4.2970    1.1358 H         1 RES1    0.0000
     24 H11       -3.2090    4.2237    2.5904 H         1 RES1    0.0000
     25 C11        0.0317    4.4869    1.8209 C.3       1 RES1    0.0000
     26 H12        0.7955    4.9825    2.1819 H         1 RES1    0.0000
     27 H13       -0.1164    4.7501    0.8891 H         1 RES1    0.0000
     28 H14        0.2164    3.5254    1.8631 H         1 RES1    0.0000
     29 O3         0.9556    5.6500    7.0562 O.3       1 RES1    0.0000
     30 C12        1.2774    6.9680    6.6638 C.3       1 RES1    0.0000
     31 H15        1.8498    6.9416    5.8692 H         1 RES1    0.0000
     32 H16        1.7507    7.4191    7.3935 H         1 RES1    0.0000
     33 H17        0.4531    7.4573    6.4572 H         1 RES1    0.0000
@<TRIPOS>BOND
     1    1    2 1
     2    3    1 1
     3    4    3 ar
     4    5    4 ar
     5    6    5 1
     6    7    5 ar
     7    8    7 ar
     8    9    8 1
     9   10    3 ar
    10   11    4 1
    11   12   11 1
    12   13   11 2
    13   14   13 1
    14   15   14 1
    15   16    7 1
    16   17   16 1
    17   18   17 1
    18   19   17 1
    19   20   17 1
    20   21   16 1
    21   22   21 1
    22   23   21 1
    23   24   21 1
    24   25   16 1
    25   26   25 1
    26   27   25 1
    27   28   25 1
    28   29   10 1
    29   30   29 1
    30   31   30 1
    31   32   30 1
    32   33   30 1
    33    8   10 ar
@<TRIPOS>SUBSTRUCTURE
     1 RES1 1

@<TRIPOS>CRYSIN
   9.6192   10.6124   11.8069  90.0000  90.0000  90.0000  19 1

