# MOL2 file generated by ConQuest
# Please check atom types

@<TRIPOS>MOLECULE
ABAVAC
    41    41     1
SMALL
NO_CHARGES
****
Generated from CSD

@<TRIPOS>ATOM
      1 O1         7.9500    3.5399    0.6806 O.3       1 RES1    0.0000
      2 H1         7.2516    4.0050    0.7075 H         1 RES1    0.0000
      3 C1        10.0945    3.3747    1.7506 C.ar      1 RES1    0.0000
      4 C2         8.4957    5.1032    2.4249 C.ar      1 RES1    0.0000
      5 N1         6.2988    5.3264    1.5322 N.2       1 RES1    0.0000
      6 O2         5.1080    6.0566    1.5855 O.3       1 RES1    0.0000
      7 C3        10.6700    5.0065    3.5134 C.ar      1 RES1    0.0000
      8 C4         7.1875    5.7563    2.3330 C.2       1 RES1    0.0000
      9 H2         7.0011    6.5106    2.8798 H         1 RES1    0.0000
     10 C5         9.4176    5.5854    3.3551 C.ar      1 RES1    0.0000
     11 H3         9.1817    6.3307    3.8951 H         1 RES1    0.0000
     12 C6         8.8460    4.0045    1.6112 C.ar      1 RES1    0.0000
     13 C7        10.9624    3.9118    2.7015 C.ar      1 RES1    0.0000
     14 H4        11.8132    3.5019    2.8025 H         1 RES1    0.0000
     15 C8        11.6663    5.5635    4.5337 C.3       1 RES1    0.0000
     16 C9        12.9767    4.7659    4.5582 C.3       1 RES1    0.0000
     17 H5        12.7864    3.8316    4.7850 H         1 RES1    0.0000
     18 H6        13.5796    5.1486    5.2300 H         1 RES1    0.0000
     19 H7        13.4009    4.8083    3.6763 H         1 RES1    0.0000
     20 C10       10.4880    2.1520    0.9115 C.3       1 RES1    0.0000
     21 C11       11.0505    5.5038    5.9351 C.3       1 RES1    0.0000
     22 H8        10.8477    4.5727    6.1637 H         1 RES1    0.0000
     23 H9        10.2248    6.0313    5.9521 H         1 RES1    0.0000
     24 H10       11.6852    5.8693    6.5867 H         1 RES1    0.0000
     25 C12        9.4986    0.9956    1.1461 C.3       1 RES1    0.0000
     26 H11        8.5938    1.2851    0.9030 H         1 RES1    0.0000
     27 H12        9.5154    0.7379    2.0920 H         1 RES1    0.0000
     28 H13        9.7562    0.2282    0.5938 H         1 RES1    0.0000
     29 C13       10.5401    2.5268   -0.5781 C.3       1 RES1    0.0000
     30 H14        9.6622    2.8565   -0.8622 H         1 RES1    0.0000
     31 H15       10.7793    1.7358   -1.1058 H         1 RES1    0.0000
     32 H16       11.2125    3.2263   -0.7163 H         1 RES1    0.0000
     33 C14       11.9942    7.0219    4.1798 C.3       1 RES1    0.0000
     34 H17       11.1670    7.5479    4.1621 H         1 RES1    0.0000
     35 H18       12.4222    7.0562    3.2985 H         1 RES1    0.0000
     36 H19       12.6017    7.3924    4.8536 H         1 RES1    0.0000
     37 C15       11.8817    1.6396    1.2982 C.3       1 RES1    0.0000
     38 H20       12.5406    2.3510    1.1612 H         1 RES1    0.0000
     39 H21       12.1122    0.8679    0.7396 H         1 RES1    0.0000
     40 H22       11.8814    1.3718    2.2408 H         1 RES1    0.0000
     41 H23        4.6841    5.6934    0.9453 H         1 RES1    0.0000
@<TRIPOS>BOND
     1    1    2 1
     2    3   12 ar
     3    4    8 1
     4    5    6 1
     5    6   41 1
     6    7   10 ar
     7    8    5 2
     8    9    8 1
     9   10    4 ar
    10   11   10 1
    11   12    1 1
    12   13    3 ar
    13   14   13 1
    14   15    7 1
    15   16   15 1
    16   17   16 1
    17   18   16 1
    18   19   16 1
    19   20    3 1
    20   21   15 1
    21   22   21 1
    22   23   21 1
    23   24   21 1
    24   25   20 1
    25   26   25 1
    26   27   25 1
    27   28   25 1
    28   29   20 1
    29   30   29 1
    30   31   29 1
    31   32   29 1
    32   33   15 1
    33   34   33 1
    34   35   33 1
    35   36   33 1
    36   37   20 1
    37   38   37 1
    38   39   37 1
    39   40   37 1
    40    4   12 ar
    41    7   13 ar
@<TRIPOS>SUBSTRUCTURE
     1 RES1 1

@<TRIPOS>CRYSIN
  12.1513    8.1802   15.2351  90.0000 106.7520  90.0000 231 1

