# MOL2 file generated by ConQuest
# Please check atom types

@<TRIPOS>MOLECULE
ABAWEH
    43    43     1
SMALL
NO_CHARGES
****
Generated from CSD

@<TRIPOS>ATOM
      1 O1         8.1757    0.4318    5.3951 O.3       1 RES1    0.0000
      2 H1         8.2519    0.7126    6.2215 H         1 RES1    0.0000
      3 C1         7.2272    1.2759    4.9644 C.ar      1 RES1    0.0000
      4 O2         8.0517   -0.8987    0.9154 O.3       1 RES1    0.0000
      5 H2         7.7957   -0.9007    0.0718 H         1 RES1    0.0000
      6 C2         6.8421    1.1922    3.6055 C.ar      1 RES1    0.0000
      7 N1         7.2899    0.1277    1.5130 N.2       1 RES1    0.0000
      8 C3         5.8387    2.0198    3.1315 C.ar      1 RES1    0.0000
      9 H3         5.5652    1.9220    2.2270 H         1 RES1    0.0000
     10 C4         5.2070    2.9917    3.9124 C.ar      1 RES1    0.0000
     11 C5         5.6059    3.0857    5.2340 C.ar      1 RES1    0.0000
     12 H4         5.2088    3.7381    5.7995 H         1 RES1    0.0000
     13 C6         6.5827    2.2345    5.7453 C.ar      1 RES1    0.0000
     14 C7         7.5214    0.2049    2.7630 C.2       1 RES1    0.0000
     15 H5         8.1478   -0.3897    3.1578 H         1 RES1    0.0000
     16 C8         4.0549    3.8350    3.3468 C.3       1 RES1    0.0000
     17 C9         2.8262    2.9003    3.3062 C.3       1 RES1    0.0000
     18 H6         3.0011    2.1573    2.6920 H         1 RES1    0.0000
     19 H7         2.0434    3.4023    2.9967 H         1 RES1    0.0000
     20 H8         2.6532    2.5483    4.2043 H         1 RES1    0.0000
     21 C10        3.7077    5.0209    4.2609 C.3       1 RES1    0.0000
     22 H9         3.3718    4.6844    5.1184 H         1 RES1    0.0000
     23 H10        3.0190    5.5729    3.8342 H         1 RES1    0.0000
     24 H11        4.5106    5.5609    4.4141 H         1 RES1    0.0000
     25 C11        4.3015    4.2987    1.8896 C.3       1 RES1    0.0000
     26 H12        4.5040    3.4832    1.3647 H         1 RES1    0.0000
     27 H13        3.4372    4.6436    1.5530 H         1 RES1    0.0000
     28 C12        5.3723    5.3458    1.5043 C.3       1 RES1    0.0000
     29 C13        6.7302    5.1092    2.1727 C.3       1 RES1    0.0000
     30 H14        7.3722    5.7772    1.8529 H         1 RES1    0.0000
     31 H15        7.0530    4.2121    1.9478 H         1 RES1    0.0000
     32 H16        6.6337    5.1874    3.1450 H         1 RES1    0.0000
     33 C14        4.9058    6.7766    1.7947 C.3       1 RES1    0.0000
     34 H17        4.8538    6.9134    2.7638 H         1 RES1    0.0000
     35 H18        4.0208    6.9177    1.3974 H         1 RES1    0.0000
     36 H19        5.5429    7.4133    1.4086 H         1 RES1    0.0000
     37 C15        5.5631    5.2053   -0.0136 C.3       1 RES1    0.0000
     38 H20        4.6941    5.2837   -0.4602 H         1 RES1    0.0000
     39 H21        5.9550    4.3302   -0.2138 H         1 RES1    0.0000
     40 H22        6.1605    5.9122   -0.3342 H         1 RES1    0.0000
     41 N2         6.8966    2.3513    7.1678 N.pl3     1 RES1    0.0000
     42 O3         7.7503    1.5955    7.6563 O.2       1 RES1    0.0000
     43 O4         6.3075    3.1822    7.8376 O.2       1 RES1    0.0000
@<TRIPOS>BOND
     1    1    2 1
     2    3    1 1
     3    4    5 1
     4    6    3 ar
     5    7    4 1
     6    8    6 ar
     7    9    8 1
     8   10    8 ar
     9   11   10 ar
    10   12   11 1
    11   13    3 ar
    12   14    6 1
    13   15   14 1
    14   16   10 1
    15   17   16 1
    16   18   17 1
    17   19   17 1
    18   20   17 1
    19   21   16 1
    20   22   21 1
    21   23   21 1
    22   24   21 1
    23   25   16 1
    24   26   25 1
    25   27   25 1
    26   28   25 1
    27   29   28 1
    28   30   29 1
    29   31   29 1
    30   32   29 1
    31   33   28 1
    32   34   33 1
    33   35   33 1
    34   36   33 1
    35   37   28 1
    36   38   37 1
    37   39   37 1
    38   40   37 1
    39   41   13 1
    40   42   41 2
    41   43   41 2
    42    7   14 2
    43   11   13 ar
@<TRIPOS>SUBSTRUCTURE
     1 RES1 1

@<TRIPOS>CRYSIN
   7.0554   13.7741    8.3130  91.1440 106.3310  89.5090   2 1

