# MOL2 file generated by ConQuest
# Please check atom types

@<TRIPOS>MOLECULE
ABEKUO
    37    38     1
SMALL
NO_CHARGES
****
Generated from CSD

@<TRIPOS>ATOM
      1 O1         5.0030    3.6064   10.3590 O.3       1 RES1    0.0000
      2 O2         6.3035    1.9143   11.0158 O.2       1 RES1    0.0000
      3 O3         5.8522    2.6861   13.6710 O.3       1 RES1    0.0000
      4 N1         7.2569    2.5925   13.8243 N.2       1 RES1    0.0000
      5 N2         8.7933    2.9341   17.0987 N.2       1 RES1    0.0000
      6 N3         9.4483    3.4983   18.0139 N.2       1 RES1    0.0000
      7 C1         5.6786    2.9309   11.2491 C.2       1 RES1    0.0000
      8 C2         5.5964    3.5774   12.5971 C.3       1 RES1    0.0000
      9 C3         7.4989    1.8518   14.8915 C.2       1 RES1    0.0000
     10 C4         6.4920    1.2107   15.7788 C.3       1 RES1    0.0000
     11 C5         8.9311    1.5935   15.1326 C.ar      1 RES1    0.0000
     12 C6         9.5782    2.0853   16.2546 C.ar      1 RES1    0.0000
     13 C7        10.9043    1.7528   16.5033 C.ar      1 RES1    0.0000
     14 C8        11.5743    0.9185   15.6448 C.ar      1 RES1    0.0000
     15 C9        10.9490    0.4312   14.5127 C.ar      1 RES1    0.0000
     16 C10        9.6354    0.7606   14.2563 C.ar      1 RES1    0.0000
     17 C11        8.6530    4.2860   18.8892 C.ar      1 RES1    0.0000
     18 C12        9.3437    5.1062   19.7633 C.ar      1 RES1    0.0000
     19 C13        8.6560    5.8740   20.6843 C.ar      1 RES1    0.0000
     20 C14        7.2824    5.8247   20.7348 C.ar      1 RES1    0.0000
     21 C15        6.5893    5.0013   19.8719 C.ar      1 RES1    0.0000
     22 C16        7.2667    4.2276   18.9453 C.ar      1 RES1    0.0000
     23 H1         5.0867    3.2503    9.6244 H         1 RES1    0.0000
     24 H2         6.2371    4.3050   12.6357 H         1 RES1    0.0000
     25 H3         4.7114    3.9579   12.7095 H         1 RES1    0.0000
     26 H4         5.6131    1.3474   15.4161 H         1 RES1    0.0000
     27 H5         6.5401    1.6016   16.6540 H         1 RES1    0.0000
     28 H6         6.6699    0.2692   15.8382 H         1 RES1    0.0000
     29 H7        11.3370    2.0952   17.2520 H         1 RES1    0.0000
     30 H8        12.4553    0.6796   15.8268 H         1 RES1    0.0000
     31 H9        11.4153   -0.1185   13.9247 H         1 RES1    0.0000
     32 H10        9.2159    0.4271   13.4969 H         1 RES1    0.0000
     33 H11       10.2718    5.1415   19.7315 H         1 RES1    0.0000
     34 H12        9.1229    6.4251   21.2703 H         1 RES1    0.0000
     35 H13        6.8198    6.3464   21.3517 H         1 RES1    0.0000
     36 H14        5.6602    4.9660   19.9132 H         1 RES1    0.0000
     37 H15        6.7965    3.6729   18.3650 H         1 RES1    0.0000
@<TRIPOS>BOND
     1    1    7 1
     2    2    7 2
     3    3    4 1
     4    4    9 2
     5    5    6 2
     6    6   17 1
     7    7    8 1
     8    8    3 1
     9    9   10 1
    10   10   26 1
    11   11    9 1
    12   12    5 1
    13   13   12 ar
    14   14   13 ar
    15   15   14 ar
    16   16   11 ar
    17   17   18 ar
    18   18   19 ar
    19   19   20 ar
    20   20   21 ar
    21   21   22 ar
    22   22   17 ar
    23   23    1 1
    24   24    8 1
    25   25    8 1
    26   27   10 1
    27   28   10 1
    28   29   13 1
    29   30   14 1
    30   31   15 1
    31   32   16 1
    32   33   18 1
    33   34   19 1
    34   35   20 1
    35   36   21 1
    36   37   22 1
    37   11   12 ar
    38   15   16 ar
@<TRIPOS>SUBSTRUCTURE
     1 RES1 1

@<TRIPOS>CRYSIN
  16.9270    4.5244   19.6730  90.0000 105.8280  90.0000  13 1

