# MOL2 file generated by ConQuest
# Please check atom types

@<TRIPOS>MOLECULE
ABELID
    66    72     2
SMALL
USER_CHARGES
****
Generated from CSD

@<TRIPOS>ATOM
      1 O1        -2.5036    9.5607    2.8678 O.3       1 RES1    0.0000
      2 O2        -1.1740    9.2657    7.1054 O.3       1 RES1    0.0000
      3 H1        -0.5427    8.9984    7.5546 H         1 RES1    0.0000
      4 N1        -3.2005    8.5261    4.5407 N.pl3     1 RES1    1.0000
      5 O3        -0.3596   10.0283    3.4465 O.2       1 RES1   -1.0000
      6 C1        -0.9176    6.0645    5.0966 C.ar      1 RES1    0.0000
      7 C2        -1.9323    8.8245    4.8688 C.2       1 RES1    0.0000
      8 C3        -1.4190    9.5122    3.7673 C.2       1 RES1    0.0000
      9 C4        -2.9648    7.6905    6.6129 C.ar      1 RES1    0.0000
     10 N2        -3.6222    8.9265    3.3780 N.2       1 RES1    0.0000
     11 C5        -0.5401    7.1124    6.1070 C.3       1 RES1    0.0000
     12 H2         0.3125    7.4998    5.8568 H         1 RES1    0.0000
     13 H3        -0.4306    6.6905    6.9733 H         1 RES1    0.0000
     14 C6        -1.5934    8.2433    6.2258 C.3       1 RES1    0.0000
     15 C7        -3.8859    7.8286    5.5848 C.ar      1 RES1    0.0000
     16 C8        -3.3902    7.1208    7.7972 C.ar      1 RES1    0.0000
     17 H4        -2.8070    7.0186    8.5145 H         1 RES1    0.0000
     18 C9        -5.1946    7.4225    5.6383 C.ar      1 RES1    0.0000
     19 H5        -5.7783    7.5307    4.9223 H         1 RES1    0.0000
     20 C10       -1.6322    4.9420    5.4565 C.ar      1 RES1    0.0000
     21 H6        -1.8531    4.8041    6.3495 H         1 RES1    0.0000
     22 C11       -0.6025    6.2306    3.7489 C.ar      1 RES1    0.0000
     23 H7        -0.1106    6.9743    3.4866 H         1 RES1    0.0000
     24 C12       -4.7120    6.7051    7.8887 C.ar      1 RES1    0.0000
     25 H8        -5.0143    6.3252    8.6820 H         1 RES1    0.0000
     26 C13       -5.5884    6.8410    6.8314 C.ar      1 RES1    0.0000
     27 H9        -6.4624    6.5358    6.9223 H         1 RES1    0.0000
     28 C14       -1.0003    5.3238    2.8014 C.ar      1 RES1    0.0000
     29 H10       -0.7861    5.4600    1.9065 H         1 RES1    0.0000
     30 C15       -2.0243    4.0190    4.5062 C.ar      1 RES1    0.0000
     31 H11       -2.4999    3.2632    4.7657 H         1 RES1    0.0000
     32 C16       -1.7174    4.2087    3.1774 C.ar      1 RES1    0.0000
     33 H12       -1.9925    3.5904    2.5400 H         1 RES1    0.0000
     34 N3         5.6473    8.3216    0.4084 N.pl3     2 RES2    1.0000
     35 O4         4.3171   11.3564    0.7614 O.3       2 RES2    0.0000
     36 H13        4.9980   11.8100    0.7136 H         2 RES2    0.0000
     37 O5         7.6763    8.4428   -0.0341 O.3       2 RES2    0.0000
     38 C17        4.4252   10.2438   -0.1182 C.3       2 RES2    0.0000
     39 C18        3.5522    9.1204    0.4424 C.ar      2 RES2    0.0000
     40 C19        4.1651    9.5724   -2.5608 C.ar      2 RES2    0.0000
     41 C20        4.0148   10.6699   -1.5402 C.3       2 RES2    0.0000
     42 H14        3.0896   10.9613   -1.5255 H         2 RES2    0.0000
     43 H15        4.5587   11.4273   -1.8107 H         2 RES2    0.0000
     44 C21        4.3006    8.0035    0.7623 C.ar      2 RES2    0.0000
     45 O6         7.8256   10.5329   -0.9498 O.2       2 RES2   -1.0000
     46 C22        5.7678    9.5558   -0.0761 C.2       2 RES2    0.0000
     47 C23        5.3494    9.4326   -3.2666 C.ar      2 RES2    0.0000
     48 H16        6.0329   10.0499   -3.1395 H         2 RES2    0.0000
     49 N4         6.7172    7.5872    0.4751 N.2       2 RES2    0.0000
     50 C24        7.1163    9.6935   -0.4248 C.2       2 RES2    0.0000
     51 C25        2.1953    9.0897    0.6735 C.ar      2 RES2    0.0000
     52 H17        1.6615    9.8241    0.4709 H         2 RES2    0.0000
     53 C26        3.1565    8.6502   -2.7984 C.ar      2 RES2    0.0000
     54 H18        2.3453    8.7322   -2.3507 H         2 RES2    0.0000
     55 C27        3.7876    6.8563    1.3141 C.ar      2 RES2    0.0000
     56 H19        4.3276    6.1291    1.5267 H         2 RES2    0.0000
     57 C28        5.5298    8.3916   -4.1556 C.ar      2 RES2    0.0000
     58 H20        6.3339    8.3074   -4.6140 H         2 RES2    0.0000
     59 C29        3.3403    7.6123   -3.6908 C.ar      2 RES2    0.0000
     60 H21        2.6575    6.9978   -3.8374 H         2 RES2    0.0000
     61 C30        1.6443    7.9398    1.2143 C.ar      2 RES2    0.0000
     62 H22        0.7278    7.9032    1.3653 H         2 RES2    0.0000
     63 C31        2.4269    6.8432    1.5345 C.ar      2 RES2    0.0000
     64 H23        2.0291    6.0876    1.9029 H         2 RES2    0.0000
     65 C32        4.5305    7.4873   -4.3620 C.ar      2 RES2    0.0000
     66 H24        4.6556    6.7844   -4.9587 H         2 RES2    0.0000
@<TRIPOS>BOND
     1    1    8 1
     2    2    3 1
     3    4    7 1
     4    5    8 1
     5    6   11 1
     6    7    8 2
     7    9   14 1
     8   10    1 1
     9   11   12 1
    10   13   11 1
    11   14    2 1
    12   15    4 1
    13   16    9 ar
    14   17   16 1
    15   18   15 ar
    16   19   18 1
    17   20    6 ar
    18   21   20 1
    19   22    6 ar
    20   23   22 1
    21   24   16 ar
    22   25   24 1
    23   26   18 ar
    24   27   26 1
    25   28   22 ar
    26   29   28 1
    27   30   20 ar
    28   31   30 1
    29   32   28 ar
    30   33   32 1
    31   34   44 1
    32   35   36 1
    33   37   49 1
    34   38   35 1
    35   39   38 1
    36   40   41 1
    37   41   38 1
    38   42   41 1
    39   43   41 1
    40   44   39 ar
    41   45   50 1
    42   46   34 1
    43   47   40 ar
    44   48   47 1
    45   49   34 2
    46   50   37 1
    47   51   39 ar
    48   52   51 1
    49   53   40 ar
    50   54   53 1
    51   55   44 ar
    52   56   55 1
    53   57   47 ar
    54   58   57 1
    55   59   53 ar
    56   60   59 1
    57   61   51 ar
    58   62   61 1
    59   63   55 ar
    60   64   63 1
    61   65   57 ar
    62   66   65 1
    63    4   10 2
    64    7   14 1
    65    9   15 ar
    66   11   14 1
    67   24   26 ar
    68   30   32 ar
    69   38   46 1
    70   46   50 2
    71   59   65 ar
    72   61   63 ar
@<TRIPOS>SUBSTRUCTURE
     1 RES1 1
     2 RES2 34

@<TRIPOS>CRYSIN
   9.5020   11.9060   13.6760 105.7120 108.2900 101.1300   2 1

