# MOL2 file generated by ConQuest
# Please check atom types

@<TRIPOS>MOLECULE
ABENAX
    23    23     1
SMALL
NO_CHARGES
****
Generated from CSD

@<TRIPOS>ATOM
      1 C1         5.1445    9.5748    1.5199 C.ar      1 RES1    0.0000
      2 C2         3.7396    9.6774    1.6851 C.ar      1 RES1    0.0000
      3 C3         3.1932   10.9650    1.6991 C.ar      1 RES1    0.0000
      4 C4         3.9444   12.0971    1.5319 C.ar      1 RES1    0.0000
      5 H1         3.5558   12.9420    1.5624 H         1 RES1    0.0000
      6 C5         5.3020   11.9416    1.3163 C.ar      1 RES1    0.0000
      7 C6         5.9063   10.7099    1.3202 C.ar      1 RES1    0.0000
      8 H2         6.8240   10.6396    1.1895 H         1 RES1    0.0000
      9 C7         5.7800    8.2347    1.6155 C.2       1 RES1    0.0000
     10 C8         7.8575    7.0904    1.7475 C.3       1 RES1    0.0000
     11 H3         7.7429    6.7616    2.6418 H         1 RES1    0.0000
     12 H4         8.7860    7.2715    1.5896 H         1 RES1    0.0000
     13 H5         7.5495    6.4312    1.1219 H         1 RES1    0.0000
     14 N1         1.7519   11.1683    1.9419 N.pl3     1 RES1    0.0000
     15 N2         6.1224   13.1358    1.1159 N.pl3     1 RES1    0.0000
     16 O1         7.0883    8.3141    1.5803 O.3       1 RES1    0.0000
     17 O2         5.1547    7.2037    1.7276 O.2       1 RES1    0.0000
     18 O3         2.9690    8.6084    1.8576 O.3       1 RES1    0.0000
     19 H6         3.4287    7.9306    1.8145 H         1 RES1    0.0000
     20 O4         0.9769   10.3407    1.5100 O.2       1 RES1    0.0000
     21 O5         1.4273   12.1662    2.5595 O.2       1 RES1    0.0000
     22 O6         5.6260   14.2220    1.3508 O.2       1 RES1    0.0000
     23 O7         7.2625   12.9793    0.7105 O.2       1 RES1    0.0000
@<TRIPOS>BOND
     1    1    2 ar
     2    2    3 ar
     3    3    4 ar
     4    4    5 1
     5    6    4 ar
     6    7    1 ar
     7    8    7 1
     8    9    1 1
     9   10   11 1
    10   12   10 1
    11   13   10 1
    12   14    3 1
    13   15    6 1
    14   16    9 1
    15   17    9 2
    16   18    2 1
    17   19   18 1
    18   20   14 2
    19   21   14 2
    20   22   15 2
    21   23   15 2
    22    6    7 ar
    23   10   16 1
@<TRIPOS>SUBSTRUCTURE
     1 RES1 1

@<TRIPOS>CRYSIN
   8.4590   16.9420    6.6832  90.0000  96.9290  90.0000  14 1

