# MOL2 file generated by ConQuest
# Please check atom types

@<TRIPOS>MOLECULE
ABEPON
    38    37     2
SMALL
NO_CHARGES
****
Generated from CSD

@<TRIPOS>ATOM
      1 O1         4.6659    2.7171    1.0347 O.2       1 RES1    0.0000
      2 O2         5.4483    1.1905   -0.2759 O.2       1 RES1    0.0000
      3 O3        -2.5364    0.2127    6.3171 O.2       1 RES1    0.0000
      4 O4        -1.3161   -1.5432    6.3444 O.2       1 RES1    0.0000
      5 N1         4.7806    1.5441    0.6899 N.pl3     1 RES1    0.0000
      6 N2        -1.5531   -0.4067    5.9557 N.pl3     1 RES1    0.0000
      7 N3         2.0142    1.7053    2.2617 N.3       1 RES1    0.0000
      8 C1         4.1658    0.5132    1.5204 C.ar      1 RES1    0.0000
      9 C2         4.8905   -0.6547    1.6748 C.ar      1 RES1    0.0000
     10 H1         5.6597   -0.7757    1.1655 H         1 RES1    0.0000
     11 C3         4.5138   -1.6514    2.5593 C.ar      1 RES1    0.0000
     12 C4         3.3592   -1.4646    3.3088 C.ar      1 RES1    0.0000
     13 H2         3.0893   -2.1155    3.9159 H         1 RES1    0.0000
     14 C5         2.6107   -0.3117    3.1546 C.ar      1 RES1    0.0000
     15 C6         1.3720    0.1063    3.7672 C.ar      1 RES1    0.0000
     16 C7         0.5228   -0.4751    4.6900 C.ar      1 RES1    0.0000
     17 H3         0.7198   -1.2980    5.0755 H         1 RES1    0.0000
     18 C8        -0.6233    0.2086    5.0168 C.ar      1 RES1    0.0000
     19 C9        -0.9510    1.4537    4.4765 C.ar      1 RES1    0.0000
     20 H4        -1.7306    1.8870    4.7399 H         1 RES1    0.0000
     21 C10       -0.1147    2.0351    3.5538 C.ar      1 RES1    0.0000
     22 H5        -0.3177    2.8630    3.1817 H         1 RES1    0.0000
     23 C11        1.0450    1.3515    3.1901 C.ar      1 RES1    0.0000
     24 C12        2.9818    0.7085    2.2490 C.ar      1 RES1    0.0000
     25 C13        1.8166    2.8313    1.3321 C.3       1 RES1    0.0000
     26 H6         0.8910    2.8439    1.0431 H         1 RES1    0.0000
     27 H7         2.3706    2.6955    0.5478 H         1 RES1    0.0000
     28 C14        2.1556    4.1631    1.9475 C.3       1 RES1    0.0000
     29 H8         2.0006    4.8609    1.3065 H         1 RES1    0.0000
     30 H9         3.0787    4.1686    2.2097 H         1 RES1    0.0000
     31 H10        1.6027    4.3090    2.7190 H         1 RES1    0.0000
     32 C15        5.3737   -2.8886    2.7318 C.3       1 RES1    0.0000
     33 H11        4.9685   -3.4722    3.3775 H         1 RES1    0.0000
     34 H12        6.2469   -2.6310    3.0372 H         1 RES1    0.0000
     35 H13        5.4504   -3.3456    1.8915 H         1 RES1    0.0000
     36 H14        6.1416   -2.8271    2.1596 Du        2 SUP2    0.0000
     37 H15        4.8638   -3.6683    2.4999 Du        2 SUP2    0.0000
     38 H16        5.6604   -2.9537    3.6455 Du        2 SUP2    0.0000
@<TRIPOS>BOND
     1    1    5 2
     2    2    5 2
     3    3    6 2
     4    4    6 2
     5    5    8 1
     6    6   18 1
     7    7   23 1
     8    8    9 ar
     9    9   10 1
    10   11    9 ar
    11   12   11 ar
    12   13   12 1
    13   14   12 ar
    14   15   14 1
    15   16   15 ar
    16   17   16 1
    17   18   16 ar
    18   19   18 ar
    19   20   19 1
    20   21   19 ar
    21   22   21 1
    22   23   15 ar
    23   24    7 1
    24   25    7 1
    25   26   25 1
    26   27   25 1
    27   28   25 1
    28   29   28 1
    29   30   28 1
    30   31   28 1
    31   32   11 1
    32   33   32 1
    33   34   32 1
    34   35   32 1
    35    8   24 ar
    36   14   24 ar
    37   21   23 ar
@<TRIPOS>SUBSTRUCTURE
     1 RES1 1
     2 SUP2 36

@<TRIPOS>CRYSIN
   6.7094    8.8147   12.2004  72.9080  87.7200  88.7180   2 1

