# MOL2 file generated by ConQuest
# Please check atom types

@<TRIPOS>MOLECULE
ABEQIK
    60    58     2
SMALL
NO_CHARGES
****
Generated from CSD

@<TRIPOS>ATOM
      1 O1         8.0305   11.8122    7.7057 O.2       1 RES1    0.0000
      2 O2         9.2679   11.4170    5.9753 O.2       1 RES1    0.0000
      3 O3         0.7272   12.2333    1.4078 O.2       1 RES1    0.0000
      4 N1         1.9279   12.1012   -1.8905 N.ar      1 RES1    0.0000
      5 N2         2.8096   11.6310    0.7009 N.am      1 RES1    0.0000
      6 N3         8.1856   11.4051    6.5575 N.pl3     1 RES1    0.0000
      7 C1         0.8693   13.6824   -3.3657 C.ar      1 RES1    0.0000
      8 H1         0.7593   14.0195   -4.2475 H         1 RES1    0.0000
      9 C2         1.7005   12.5937   -3.1160 C.ar      1 RES1    0.0000
     10 H2         2.1300   12.1771   -3.8545 H         1 RES1    0.0000
     11 C3         1.3008   12.6980   -0.8635 C.ar      1 RES1    0.0000
     12 C4         1.5850   12.1746    0.5228 C.2       1 RES1    0.0000
     13 C5         3.4969   11.2716    1.9768 C.3       1 RES1    0.0000
     14 C6         2.9708   10.0054    2.6359 C.ar      1 RES1    0.0000
     15 C7         3.5644    9.4414    3.7874 C.ar      1 RES1    0.0000
     16 C8         4.7801    9.9835    4.4757 C.ar      1 RES1    0.0000
     17 C9         6.0409    9.9596    3.8676 C.ar      1 RES1    0.0000
     18 H3         6.1306    9.6171    2.9867 H         1 RES1    0.0000
     19 C10        7.1673   10.4334    4.5408 C.ar      1 RES1    0.0000
     20 H4         8.0199   10.4389    4.1211 H         1 RES1    0.0000
     21 C11        7.0107   10.8958    5.8392 C.ar      1 RES1    0.0000
     22 C12        3.0087    8.2837    4.3487 C.ar      1 RES1    0.0000
     23 H5         3.3964    7.9167    5.1347 H         1 RES1    0.0000
     24 C13        1.9012    7.6603    3.7812 C.ar      1 RES1    0.0000
     25 H6         1.5366    6.8772    4.1753 H         1 RES1    0.0000
     26 C14        1.3342    8.1958    2.6325 C.ar      1 RES1    0.0000
     27 H7         0.5885    7.7709    2.2272 H         1 RES1    0.0000
     28 C15        1.8625    9.3569    2.0762 C.ar      1 RES1    0.0000
     29 H8         1.4598    9.7193    1.2955 H         1 RES1    0.0000
     30 C16        3.5436   12.4886    2.9217 C.3       1 RES1    0.0000
     31 H9         4.3067   12.3778    3.5421 H         1 RES1    0.0000
     32 H10        2.7160   12.4990    3.4643 H         1 RES1    0.0000
     33 C17        4.4854   13.3024   -0.1583 C.3       1 RES1    0.0000
     34 H11        5.2856   13.3662   -0.7387 H         1 RES1    0.0000
     35 H12        3.7494   13.7866   -0.6109 H         1 RES1    0.0000
     36 C18        4.0945   11.8348   -0.0343 C.3       1 RES1    0.0000
     37 H13        4.1303   11.3440   -0.9053 H         1 RES1    0.0000
     38 C19        0.2070   14.2622   -2.2965 C.ar      1 RES1    0.0000
     39 H14       -0.3830   14.9927   -2.4354 H         1 RES1    0.0000
     40 C20        0.4178   13.7604   -1.0161 C.ar      1 RES1    0.0000
     41 H15       -0.0297   14.1331   -0.2666 H         1 RES1    0.0000
     42 C21        4.7952   11.0781    1.1153 C.3       1 RES1    0.0000
     43 H16        5.5901   11.5447    1.4774 H         1 RES1    0.0000
     44 H17        5.0008   10.1321    0.9067 H         1 RES1    0.0000
     45 C22        4.6721   10.4415    5.7970 C.ar      1 RES1    0.0000
     46 H18        3.8242   10.4389    6.2247 H         1 RES1    0.0000
     47 C23        5.7861   10.8990    6.4892 C.ar      1 RES1    0.0000
     48 H19        5.7104   11.2057    7.3855 H         1 RES1    0.0000
     49 C24        3.6835   13.8544    2.2077 C.3       1 RES1    0.0000
     50 H20        2.8181   14.0611    1.7745 H         1 RES1    0.0000
     51 H21        3.8360   14.5440    2.9006 H         1 RES1    0.0000
     52 C25        4.7841   13.9977    1.1522 C.3       1 RES1    0.0000
     53 H22        4.9293   14.9605    0.9747 H         1 RES1    0.0000
     54 H23        5.6269   13.6313    1.5204 H         1 RES1    0.0000
     55 C26        4.2154   13.7146    2.5035 Du        2 SUP2    0.0000
     56 H24        5.1926   13.5631    2.5493 Du        2 SUP2    0.0000
     57 H25        3.9950   14.4247    3.1561 Du        2 SUP2    0.0000
     58 C27        3.8750   14.2297    1.1011 Du        2 SUP2    0.0000
     59 H26        4.2236   15.1518    1.0108 Du        2 SUP2    0.0000
     60 H27        2.8903   14.2732    1.0108 Du        2 SUP2    0.0000
@<TRIPOS>BOND
     1    1    6 2
     2    2    6 2
     3    3   12 2
     4    4    9 ar
     5    5   12 1
     6    6   21 1
     7    7    8 1
     8    9    7 ar
     9   10    9 1
    10   11    4 ar
    11   12   11 1
    12   13    5 1
    13   14   13 1
    14   15   14 ar
    15   16   15 1
    16   17   16 ar
    17   18   17 1
    18   19   17 ar
    19   20   19 1
    20   21   19 ar
    21   22   15 ar
    22   23   22 1
    23   24   22 ar
    24   25   24 1
    25   26   24 ar
    26   27   26 1
    27   28   14 ar
    28   29   28 1
    29   30   13 1
    30   31   30 1
    31   32   30 1
    32   33   34 1
    33   35   33 1
    34   36    5 1
    35   37   36 1
    36   38    7 ar
    37   39   38 1
    38   40   11 ar
    39   41   40 1
    40   42   13 1
    41   43   42 1
    42   44   42 1
    43   45   16 ar
    44   46   45 1
    45   47   21 ar
    46   48   47 1
    47   49   30 1
    48   50   49 1
    49   51   49 1
    50   52   33 1
    51   53   52 1
    52   54   52 1
    53   26   28 ar
    54   33   36 1
    55   36   42 1
    56   38   40 ar
    57   45   47 ar
    58   49   52 1
@<TRIPOS>SUBSTRUCTURE
     1 RES1 1
     2 SUP2 55

@<TRIPOS>CRYSIN
   7.6849   18.9350   13.9418  90.0000  95.1690  90.0000  14 1

