# MOL2 file generated by ConQuest
# Please check atom types

@<TRIPOS>MOLECULE
ABIFUO
    51    53     1
SMALL
NO_CHARGES
****
Generated from CSD

@<TRIPOS>ATOM
      1 C1         1.6245    0.3350    1.5603 C.ar      1 RES1    0.0000
      2 C2         1.6123   -0.5659    0.5209 C.ar      1 RES1    0.0000
      3 H1         0.8898   -1.1418    0.4172 H         1 RES1    0.0000
      4 C3         2.6741   -0.6211   -0.3761 C.ar      1 RES1    0.0000
      5 H2         2.6620   -1.2346   -1.0754 H         1 RES1    0.0000
      6 C4         3.7347    0.2284   -0.2291 C.ar      1 RES1    0.0000
      7 H3         4.4410    0.1995   -0.8331 H         1 RES1    0.0000
      8 C5         3.7572    1.1117    0.7999 C.ar      1 RES1    0.0000
      9 H4         4.4869    1.6800    0.9033 H         1 RES1    0.0000
     10 C6         2.7074    1.1769    1.6953 C.ar      1 RES1    0.0000
     11 H5         2.7304    1.7917    2.3919 H         1 RES1    0.0000
     12 C7         0.4757    0.3764    2.5468 C.3       1 RES1    0.0000
     13 H6         0.2602    1.3024    2.7415 H         1 RES1    0.0000
     14 H7        -0.3052   -0.0289    2.1376 H         1 RES1    0.0000
     15 C8         0.7739   -0.3341    3.8339 C.2       1 RES1    0.0000
     16 O1         1.8400   -0.5807    4.2926 O.2       1 RES1    0.0000
     17 O2        -0.4026   -0.6370    4.4539 O.3       1 RES1    0.0000
     18 N1        -0.1999   -1.3827    5.6649 N.2       1 RES1    0.0000
     19 C9        -1.3368   -1.6869    6.1761 C.2       1 RES1    0.0000
     20 C10       -1.3382   -2.5155    7.3969 C.ar      1 RES1    0.0000
     21 C11       -0.1551   -2.8984    8.0061 C.ar      1 RES1    0.0000
     22 H8         0.6564   -2.6148    7.6498 H         1 RES1    0.0000
     23 C12       -0.1597   -3.6951    9.1345 C.ar      1 RES1    0.0000
     24 H9         0.6393   -3.9398    9.5411 H         1 RES1    0.0000
     25 C13       -1.3615   -4.1217    9.6510 C.ar      1 RES1    0.0000
     26 H10       -1.3710   -4.6662   10.4046 H         1 RES1    0.0000
     27 C14       -2.5369   -3.7528    9.0683 C.ar      1 RES1    0.0000
     28 H11       -3.3448   -4.0464    9.4245 H         1 RES1    0.0000
     29 C15       -2.5292   -2.9410    7.9471 C.ar      1 RES1    0.0000
     30 H12       -3.3344   -2.6800    7.5611 H         1 RES1    0.0000
     31 C16       -2.6574   -1.2961    5.5306 C.2       1 RES1    0.0000
     32 O3        -3.2038   -2.0666    4.7625 O.2       1 RES1    0.0000
     33 N2        -3.1236   -0.1051    5.8887 N.am      1 RES1    0.0000
     34 C17       -4.3490    0.4730    5.3449 C.3       1 RES1    0.0000
     35 H13       -5.0037   -0.2484    5.2420 H         1 RES1    0.0000
     36 C18       -4.9143    1.4805    6.3175 C.3       1 RES1    0.0000
     37 H14       -4.2576    2.1756    6.4790 H         1 RES1    0.0000
     38 H15       -5.1025    1.0427    7.1624 H         1 RES1    0.0000
     39 C19       -6.1923    2.1054    5.7744 C.3       1 RES1    0.0000
     40 H16       -6.8774    1.4228    5.6963 H         1 RES1    0.0000
     41 H17       -6.5112    2.7804    6.3956 H         1 RES1    0.0000
     42 C20       -5.9542    2.7403    4.4156 C.3       1 RES1    0.0000
     43 H18       -6.7908    3.0878    4.0712 H         1 RES1    0.0000
     44 H19       -5.3357    3.4818    4.5110 H         1 RES1    0.0000
     45 C21       -5.3860    1.7340    3.4382 C.3       1 RES1    0.0000
     46 H20       -5.1899    2.1769    2.5985 H         1 RES1    0.0000
     47 H21       -6.0468    1.0439    3.2673 H         1 RES1    0.0000
     48 C22       -4.1163    1.0928    3.9811 C.3       1 RES1    0.0000
     49 H22       -3.8132    0.4078    3.3640 H         1 RES1    0.0000
     50 H23       -3.4197    1.7654    4.0474 H         1 RES1    0.0000
     51 H24       -2.6994    0.3137    6.5294 H         1 RES1    0.0000
@<TRIPOS>BOND
     1    1    2 ar
     2    2    3 1
     3    4    2 ar
     4    5    4 1
     5    6    4 ar
     6    7    6 1
     7    8    6 ar
     8    9    8 1
     9   10    1 ar
    10   11   10 1
    11   12    1 1
    12   13   12 1
    13   14   12 1
    14   15   12 1
    15   16   15 2
    16   17   15 1
    17   18   17 1
    18   19   18 2
    19   20   19 1
    20   21   20 ar
    21   22   21 1
    22   23   21 ar
    23   24   23 1
    24   25   23 ar
    25   26   25 1
    26   27   25 ar
    27   28   27 1
    28   29   20 ar
    29   30   29 1
    30   31   19 1
    31   32   31 2
    32   33   31 1
    33   34   33 1
    34   35   34 1
    35   36   34 1
    36   37   36 1
    37   38   36 1
    38   39   36 1
    39   40   39 1
    40   41   39 1
    41   42   39 1
    42   43   42 1
    43   44   42 1
    44   45   42 1
    45   46   45 1
    46   47   45 1
    47   48   34 1
    48   49   48 1
    49   50   48 1
    50   51   33 1
    51    8   10 ar
    52   27   29 ar
    53   45   48 1
@<TRIPOS>SUBSTRUCTURE
     1 RES1 1

@<TRIPOS>CRYSIN
  11.8850   12.5470   13.2760  90.0000  93.9700  90.0000 231 1

