# MOL2 file generated by ConQuest
# Please check atom types

@<TRIPOS>MOLECULE
ABIGUQ
   132   132     4
SMALL
NO_CHARGES
****
Generated from CSD

@<TRIPOS>ATOM
      1 C1         2.4102   24.8923   -0.1328 C.2       1 RES1    0.0000
      2 O1         1.3966   24.5660   -0.7480 O.2       1 RES1    0.0000
      3 N1         2.6124   26.1320    0.3242 N.am      1 RES1    0.0000
      4 H1         3.3448   26.3464    0.7603 H         1 RES1    0.0000
      5 C2         1.5961   27.0921    0.0769 C.2       1 RES1    0.0000
      6 C3         1.0551   27.8145    1.0583 C.2       1 RES1    0.0000
      7 H2         0.4526   28.5042    0.7979 H         1 RES1    0.0000
      8 C4         1.2988   27.6607    2.5186 C.3       1 RES1    0.0000
      9 H3         0.7713   28.3225    3.0097 H         1 RES1    0.0000
     10 H4         1.0337   26.7612    2.7991 H         1 RES1    0.0000
     11 H5         2.2509   27.7958    2.7073 H         1 RES1    0.0000
     12 C5         1.2600   27.2878   -1.3537 C.2       1 RES1    0.0000
     13 O2         2.0058   27.1014   -2.2817 O.2       1 RES1    0.0000
     14 O3         0.0161   27.7492   -1.4638 O.3       1 RES1    0.0000
     15 C6        -0.4338   28.0848   -2.8305 C.3       1 RES1    0.0000
     16 H6        -1.3564   28.4110   -2.7991 H         1 RES1    0.0000
     17 H7         0.1473   28.7839   -3.2011 H         1 RES1    0.0000
     18 H8        -0.3883   27.2878   -3.3959 H         1 RES1    0.0000
     19 C7         3.4720   23.8623    0.1267 C.ar      1 RES1    0.0000
     20 C8         4.6852   24.1186    0.7227 C.ar      1 RES1    0.0000
     21 H9         4.9289   25.0041    0.9613 H         1 RES1    0.0000
     22 C9         5.5435   23.0606    0.9674 C.ar      1 RES1    0.0000
     23 C10        5.2435   21.7510    0.7245 C.ar      1 RES1    0.0000
     24 H10        5.8407   21.0426    0.9421 H         1 RES1    0.0000
     25 C11        4.0063   21.5227    0.1407 C.ar      1 RES1    0.0000
     26 C12        3.1118   22.5247   -0.1398 C.ar      1 RES1    0.0000
     27 H11        2.2629   22.3196   -0.5156 H         1 RES1    0.0000
     28 N2         6.8450   23.4149    1.5861 N.pl3     1 RES1    0.0000
     29 O4         7.3056   24.5287    1.4070 O.2       1 RES1    0.0000
     30 O5         7.4167   22.5387    2.2258 O.2       1 RES1    0.0000
     31 N3         3.6180   20.1338   -0.1582 N.pl3     1 RES1    0.0000
     32 O6         4.2701   19.2483    0.3854 O.2       1 RES1    0.0000
     33 O7         2.6485   19.9334   -0.8652 O.2       1 RES1    0.0000
     34 C13        4.2942   24.8550    4.2366 C.2       2 RES2    0.0000
     35 O8         5.2904   24.5287    3.6039 O.2       2 RES2    0.0000
     36 N4         4.1429   26.0900    4.7242 N.am      2 RES2    0.0000
     37 H12        3.4278   26.2998    5.1909 H         2 RES2    0.0000
     38 C14        5.1605   27.0594    4.4761 C.2       2 RES2    0.0000
     39 C15        5.7376   27.7725    5.4531 C.2       2 RES2    0.0000
     40 H13        6.3402   28.4576    5.1970 H         2 RES2    0.0000
     41 C16        5.5060   27.5674    6.9002 C.3       2 RES2    0.0000
     42 H14        6.0416   28.2106    7.4106 H         2 RES2    0.0000
     43 H15        4.5566   27.6979    7.1021 H         2 RES2    0.0000
     44 H16        5.7671   26.6540    7.1475 H         2 RES2    0.0000
     45 C17        5.4966   27.2692    3.0516 C.2       2 RES2    0.0000
     46 O9         4.7521   27.1200    2.1367 O.2       2 RES2    0.0000
     47 O10        6.7579   27.6653    2.9214 O.3       2 RES2    0.0000
     48 C18        7.2092   27.8937    1.5512 C.3       2 RES2    0.0000
     49 H17        8.1465   28.1780    1.5599 H         2 RES2    0.0000
     50 H18        7.1248   27.0641    1.0364 H         2 RES2    0.0000
     51 H19        6.6588   28.5928    1.1387 H         2 RES2    0.0000
     52 C19        3.2350   23.8343    4.5302 C.ar      2 RES2    0.0000
     53 C20        1.9964   24.0953    5.0790 C.ar      2 RES2    0.0000
     54 H20        1.7487   24.9901    5.2800 H         2 RES2    0.0000
     55 C21        1.1127   23.0653    5.3395 C.ar      2 RES2    0.0000
     56 C22        1.4180   21.7464    5.0939 C.ar      2 RES2    0.0000
     57 H21        0.8155   21.0426    5.2975 H         2 RES2    0.0000
     58 C23        2.6579   21.5180    4.5302 C.ar      2 RES2    0.0000
     59 C24        3.5229   22.5200    4.1641 C.ar      2 RES2    0.0000
     60 H22        4.3076   22.3243    3.6677 H         2 RES2    0.0000
     61 N5        -0.1767   23.4195    5.9861 N.pl3     2 RES2    0.0000
     62 O11       -0.5838   24.5614    5.7886 O.2       2 RES2    0.0000
     63 O12       -0.7672   22.5387    6.5874 O.2       2 RES2    0.0000
     64 N6         3.0168   20.1198    4.2244 N.pl3     2 RES2    0.0000
     65 O13        2.3821   19.2343    4.7575 O.2       2 RES2    0.0000
     66 O14        3.9742   19.9054    3.5060 O.2       2 RES2    0.0000
     67 C25        7.5988   13.2408    8.8962 C.2       3 RES3    0.0000
     68 O15        8.6365   12.9285    9.4800 O.2       3 RES3    0.0000
     69 N7         7.4127   14.5038    8.4330 N.am      3 RES3    0.0000
     70 H23        6.6682   14.7322    8.0258 H         3 RES3    0.0000
     71 C26        8.4732   15.4545    8.6393 C.2       3 RES3    0.0000
     72 C27        9.0985   16.0837    7.6308 C.2       3 RES3    0.0000
     73 H24        9.6649   16.7921    7.9139 H         3 RES3    0.0000
     74 C28        9.0784   15.8926    6.1871 C.3       3 RES3    0.0000
     75 H25        9.6622   16.5451    5.7624 H         3 RES3    0.0000
     76 H26        9.3810   14.9838    5.9783 H         3 RES3    0.0000
     77 H27        8.1572   16.0092    5.8621 H         3 RES3    0.0000
     78 C29        8.8414   15.6410   10.0532 C.2       3 RES3    0.0000
     79 O16        8.0996   15.4685   10.9962 O.2       3 RES3    0.0000
     80 O17       10.1295   15.9998   10.2070 O.3       3 RES3    0.0000
     81 C30       10.6102   16.1536   11.5878 C.3       3 RES3    0.0000
     82 H28       11.5542   16.4146   11.5799 H         3 RES3    0.0000
     83 H29       10.0840   16.8434   12.0440 H         3 RES3    0.0000
     84 H30       10.5112   15.3007   12.0649 H         3 RES3    0.0000
     85 C31        6.5183   12.2248    8.6838 C.ar      3 RES3    0.0000
     86 C32        5.2797   12.5510    8.0835 C.ar      3 RES3    0.0000
     87 H31        5.0614   13.4505    7.8755 H         3 RES3    0.0000
     88 C33        4.4000   11.5303    7.8126 C.ar      3 RES3    0.0000
     89 C34        4.7374   10.2114    7.9961 C.ar      3 RES3    0.0000
     90 H32        4.1469    9.5216    7.7217 H         3 RES3    0.0000
     91 C35        5.9478    9.9084    8.5816 C.ar      3 RES3    0.0000
     92 C36        6.8316   10.8965    8.9137 C.ar      3 RES3    0.0000
     93 H33        7.6658   10.6681    9.3104 H         3 RES3    0.0000
     94 N8         3.1225   11.7960    7.1205 N.pl3     3 RES3    0.0000
     95 O18        2.6593   12.9052    7.2244 O.2       3 RES3    0.0000
     96 O19        2.5361   10.8639    6.6416 O.2       3 RES3    0.0000
     97 N9         6.4178    8.5336    8.8001 N.pl3     3 RES3    0.0000
     98 O20        5.7430    7.6201    8.3107 O.2       3 RES3    0.0000
     99 O21        7.2815    8.3332    9.6303 O.2       3 RES3    0.0000
    100 C37        5.7537   13.2221    4.4831 C.2       4 RES4    0.0000
    101 O22        4.7414   12.9378    5.1140 O.2       4 RES4    0.0000
    102 N10        5.9532   14.4991    4.0741 N.am      4 RES4    0.0000
    103 H34        6.7097   14.7228    3.6843 H         4 RES4    0.0000
    104 C38        4.9329   15.4639    4.2759 C.2       4 RES4    0.0000
    105 C39        4.3062   16.1630    3.3033 C.2       4 RES4    0.0000
    106 H35        3.6648   16.7968    3.5926 H         4 RES4    0.0000
    107 C40        4.4990   16.0511    1.8439 C.3       4 RES4    0.0000
    108 H36        3.9072   16.6849    1.3877 H         4 RES4    0.0000
    109 H37        5.4323   16.2608    1.6228 H         4 RES4    0.0000
    110 H38        4.2915   15.1376    1.5547 H         4 RES4    0.0000
    111 C41        4.5807   15.6643    5.6943 C.2       4 RES4    0.0000
    112 O23        5.3306   15.4406    6.6223 O.2       4 RES4    0.0000
    113 O24        3.3247   16.1257    5.8437 O.3       4 RES4    0.0000
    114 C42        2.7182   16.3727    7.1746 C.3       4 RES4    0.0000
    115 H39        1.8063   16.7036    7.0575 H         4 RES4    0.0000
    116 H40        2.7034   15.5338    7.6824 H         4 RES4    0.0000
    117 H41        3.2538   17.0392    7.6535 H         4 RES4    0.0000
    118 C43        6.7646   12.1688    4.1859 C.ar      4 RES4    0.0000
    119 C44        8.0541   12.5044    3.6966 C.ar      4 RES4    0.0000
    120 H42        8.3714   13.3992    3.6371 H         4 RES4    0.0000
    121 C45        8.7932   11.4185    3.3208 C.ar      4 RES4    0.0000
    122 C46        8.4839   10.1042    3.6004 C.ar      4 RES4    0.0000
    123 H43        9.0664    9.3958    3.3531 H         4 RES4    0.0000
    124 C47        7.3150    9.8712    4.2296 C.ar      4 RES4    0.0000
    125 C48        6.4366   10.8639    4.5355 C.ar      4 RES4    0.0000
    126 H44        5.6184   10.6728    4.9794 H         4 RES4    0.0000
    127 N11       10.1376   11.6701    2.7772 N.pl3     4 RES4    0.0000
    128 O25       10.5553   12.8027    2.7964 O.2       4 RES4    0.0000
    129 O26       10.6584   10.7520    2.1742 O.2       4 RES4    0.0000
    130 N12        6.9494    8.4776    4.5268 N.pl3     4 RES4    0.0000
    131 O27        7.5868    7.6014    3.9849 O.2       4 RES4    0.0000
    132 O28        5.9344    8.3192    5.1909 O.2       4 RES4    0.0000
@<TRIPOS>BOND
     1    1    2 2
     2    3    1 1
     3    4    3 1
     4    5    3 1
     5    6    5 2
     6    7    6 1
     7    8    6 1
     8    9    8 1
     9   10    8 1
    10   11    8 1
    11   12    5 1
    12   13   12 2
    13   14   12 1
    14   15   14 1
    15   16   15 1
    16   17   15 1
    17   18   15 1
    18   19    1 1
    19   20   19 ar
    20   21   20 1
    21   22   20 ar
    22   23   22 ar
    23   24   23 1
    24   25   23 ar
    25   26   19 ar
    26   27   26 1
    27   28   22 1
    28   29   28 2
    29   30   28 2
    30   31   25 1
    31   32   31 2
    32   33   31 2
    33   34   35 2
    34   36   34 1
    35   37   36 1
    36   38   36 1
    37   39   38 2
    38   40   39 1
    39   41   39 1
    40   42   41 1
    41   43   41 1
    42   44   41 1
    43   45   38 1
    44   46   45 2
    45   47   45 1
    46   48   47 1
    47   49   48 1
    48   50   48 1
    49   51   48 1
    50   52   34 1
    51   53   52 ar
    52   54   53 1
    53   55   53 ar
    54   56   55 ar
    55   57   56 1
    56   58   56 ar
    57   59   52 ar
    58   60   59 1
    59   61   55 1
    60   62   61 2
    61   63   61 2
    62   64   58 1
    63   65   64 2
    64   66   64 2
    65   67   68 2
    66   69   67 1
    67   70   69 1
    68   71   69 1
    69   72   71 2
    70   73   72 1
    71   74   72 1
    72   75   74 1
    73   76   74 1
    74   77   74 1
    75   78   71 1
    76   79   78 2
    77   80   78 1
    78   81   80 1
    79   82   81 1
    80   83   81 1
    81   84   81 1
    82   85   67 1
    83   86   85 ar
    84   87   86 1
    85   88   86 ar
    86   89   88 ar
    87   90   89 1
    88   91   89 ar
    89   92   85 ar
    90   93   92 1
    91   94   88 1
    92   95   94 2
    93   96   94 2
    94   97   91 1
    95   98   97 2
    96   99   97 2
    97  100  101 2
    98  102  100 1
    99  103  102 1
   100  104  102 1
   101  105  104 2
   102  106  105 1
   103  107  105 1
   104  108  107 1
   105  109  107 1
   106  110  107 1
   107  111  104 1
   108  112  111 2
   109  113  111 1
   110  114  113 1
   111  115  114 1
   112  116  114 1
   113  117  114 1
   114  118  100 1
   115  119  118 ar
   116  120  119 1
   117  121  119 ar
   118  122  121 ar
   119  123  122 1
   120  124  122 ar
   121  125  118 ar
   122  126  125 1
   123  127  121 1
   124  128  127 2
   125  129  127 2
   126  130  124 1
   127  131  130 2
   128  132  130 2
   129   25   26 ar
   130   58   59 ar
   131   91   92 ar
   132  124  125 ar
@<TRIPOS>SUBSTRUCTURE
     1 RES1 1
     2 RES2 34
     3 RES3 67
     4 RES4 100

@<TRIPOS>CRYSIN
  13.3900   46.6060    8.7389  90.0000  90.0000  90.0000  33 1

