# MOL2 file generated by ConQuest
# Please check atom types

@<TRIPOS>MOLECULE
ABIHAX
    43    43     1
SMALL
NO_CHARGES
****
Generated from CSD

@<TRIPOS>ATOM
      1 C1        -0.7751    4.2825    5.1103 C.2       1 RES1    0.0000
      2 O1        -0.0942    4.5468    4.1228 O.2       1 RES1    0.0000
      3 N1        -1.9246    3.5888    5.0054 N.am      1 RES1    0.0000
      4 H1        -2.4340    3.4195    5.6534 H         1 RES1    0.0000
      5 C2        -2.2173    2.9954    3.7372 C.2       1 RES1    0.0000
      6 C3        -1.1359    2.0829    3.2270 C.2       1 RES1    0.0000
      7 O2        -0.7964    1.1246    3.9362 O.2       1 RES1    0.0000
      8 N2        -0.6382    2.2831    2.0038 N.am      1 RES1    0.0000
      9 C4        -0.8392    3.4877    1.2236 C.3       1 RES1    0.0000
     10 H2         0.0299    3.8857    1.0068 H         1 RES1    0.0000
     11 H3        -1.3715    4.1281    1.7414 H         1 RES1    0.0000
     12 H4        -1.3119    3.2662    0.3939 H         1 RES1    0.0000
     13 C5         0.3112    1.3264    1.4504 C.3       1 RES1    0.0000
     14 H5         0.1028    1.1676    0.5067 H         1 RES1    0.0000
     15 H6         0.2508    0.4824    1.9460 H         1 RES1    0.0000
     16 H7         1.2198    1.6866    1.5278 H         1 RES1    0.0000
     17 C6        -3.3927    3.0430    3.1394 C.2       1 RES1    0.0000
     18 H8        -3.4579    2.5817    2.3111 H         1 RES1    0.0000
     19 C7        -4.6343    3.7330    3.6055 C.3       1 RES1    0.0000
     20 H9        -4.4031    4.3577    4.3512 H         1 RES1    0.0000
     21 C8        -5.6024    2.6797    4.1167 C.3       1 RES1    0.0000
     22 H10       -6.4702    3.0956    4.3025 H         1 RES1    0.0000
     23 H11       -5.2480    2.2829    4.9387 H         1 RES1    0.0000
     24 H12       -5.7142    1.9811    3.4385 H         1 RES1    0.0000
     25 C9        -5.2442    4.5335    2.4516 C.3       1 RES1    0.0000
     26 H13       -6.0630    4.9754    2.7581 H         1 RES1    0.0000
     27 H14       -5.4574    3.9278    1.7115 H         1 RES1    0.0000
     28 H15       -4.6027    5.2085    2.1474 H         1 RES1    0.0000
     29 C10       -0.2823    4.6922    6.4701 C.ar      1 RES1    0.0000
     30 C11        1.0446    5.1151    6.5300 C.ar      1 RES1    0.0000
     31 H16        1.5685    5.1619    5.7386 H         1 RES1    0.0000
     32 C12        1.5913    5.4665    7.7477 C.ar      1 RES1    0.0000
     33 C13        0.8730    5.4237    8.9171 C.ar      1 RES1    0.0000
     34 H17        1.2610    5.6676    9.7490 H         1 RES1    0.0000
     35 C14       -0.4401    5.0102    8.8245 C.ar      1 RES1    0.0000
     36 C15       -1.0449    4.6390    7.6346 C.ar      1 RES1    0.0000
     37 H18       -1.9520    4.3573    7.6138 H         1 RES1    0.0000
     38 N3         2.9920    5.9167    7.7930 N.pl3     1 RES1    0.0000
     39 O3         3.6059    6.0062    6.7440 O.2       1 RES1    0.0000
     40 O4         3.4639    6.1777    8.8913 O.2       1 RES1    0.0000
     41 N4        -1.2347    4.9435   10.0661 N.pl3     1 RES1    0.0000
     42 O5        -0.7828    5.4782   11.0648 O.2       1 RES1    0.0000
     43 O6        -2.2804    4.3241   10.0370 O.2       1 RES1    0.0000
@<TRIPOS>BOND
     1    1    2 2
     2    3    1 1
     3    4    3 1
     4    5    3 1
     5    6    5 1
     6    7    6 2
     7    8    6 1
     8    9    8 1
     9   10    9 1
    10   11    9 1
    11   12    9 1
    12   13    8 1
    13   14   13 1
    14   15   13 1
    15   16   13 1
    16   17    5 2
    17   18   17 1
    18   19   17 1
    19   20   19 1
    20   21   19 1
    21   22   21 1
    22   23   21 1
    23   24   21 1
    24   25   19 1
    25   26   25 1
    26   27   25 1
    27   28   25 1
    28   29    1 1
    29   30   29 ar
    30   31   30 1
    31   32   30 ar
    32   33   32 ar
    33   34   33 1
    34   35   33 ar
    35   36   29 ar
    36   37   36 1
    37   38   32 1
    38   39   38 2
    39   40   38 2
    40   41   35 1
    41   42   41 2
    42   43   41 2
    43   35   36 ar
@<TRIPOS>SUBSTRUCTURE
     1 RES1 1

@<TRIPOS>CRYSIN
   8.4153    9.3760   12.2991 110.4494  98.7296 106.5665   2 1

