# MOL2 file generated by ConQuest
# Please check atom types

@<TRIPOS>MOLECULE
ABITOX
    81    85     1
SMALL
NO_CHARGES
****
Generated from CSD

@<TRIPOS>ATOM
      1 O1        18.0643    8.5075    4.7481 O.2       1 RES1    0.0000
      2 O2        16.1866    8.7257    7.1753 O.2       1 RES1    0.0000
      3 O3        16.4003   10.7876    6.2928 O.3       1 RES1    0.0000
      4 O4        15.8795   10.4903    3.1320 O.2       1 RES1    0.0000
      5 O5        14.0901   11.1400    4.3373 O.3       1 RES1    0.0000
      6 O6         9.5627   10.4292    4.7277 O.2       1 RES1    0.0000
      7 O7        10.4382   10.1288    2.7815 O.2       1 RES1    0.0000
      8 O8        13.4148    6.2709    1.9333 O.3       1 RES1    0.0000
      9 N1        17.3998    7.3492    2.8855 N.am      1 RES1    0.0000
     10 N2        10.3066    9.8363    3.9662 N.pl3     1 RES1    0.0000
     11 N3        12.6442    5.1481    1.7828 N.pl3     1 RES1    0.0000
     12 N4        11.3137    5.1827    2.0112 N.2       1 RES1    0.0000
     13 N5        10.8138    4.0606    1.5584 N.2       1 RES1    0.0000
     14 C1        17.2035    7.9848    4.0507 C.2       1 RES1    0.0000
     15 C2        15.7207    7.8915    4.4110 C.3       1 RES1    0.0000
     16 C3        15.0501    7.4235    3.1116 C.3       1 RES1    0.0000
     17 C4        16.1928    6.7775    2.3042 C.3       1 RES1    0.0000
     18 C5        13.8797    6.4715    3.3155 C.3       1 RES1    0.0000
     19 C6        18.7061    7.1474    2.2792 C.3       1 RES1    0.0000
     20 C7        18.8975    7.9344    0.9879 C.3       1 RES1    0.0000
     21 C8        18.8043    9.4368    1.2317 C.3       1 RES1    0.0000
     22 C9        19.0337   10.2280   -0.0524 C.3       1 RES1    0.0000
     23 C10       20.3518    9.8484   -0.7180 C.3       1 RES1    0.0000
     24 C11       20.4225    8.3492   -0.9626 C.3       1 RES1    0.0000
     25 C12       20.2347    7.5753    0.3391 C.3       1 RES1    0.0000
     26 C13       15.9982    9.5240    6.2896 C.2       1 RES1    0.0000
     27 C14       15.1850    9.1836    5.0459 C.3       1 RES1    0.0000
     28 C15       15.1252   10.3370    4.0573 C.2       1 RES1    0.0000
     29 C16       17.2051   11.2308    7.4323 C.3       1 RES1    0.0000
     30 C17       18.6479   10.8686    7.2349 C.3       1 RES1    0.0000
     31 C18       13.9809   12.3511    3.5393 C.3       1 RES1    0.0000
     32 C19       12.6215   12.9358    3.7739 C.3       1 RES1    0.0000
     33 C20       12.7886    7.0699    4.1655 C.ar      1 RES1    0.0000
     34 C21       12.0125    8.1107    3.6624 C.ar      1 RES1    0.0000
     35 C22       11.1065    8.7213    4.5013 C.ar      1 RES1    0.0000
     36 C23       10.9354    8.3511    5.8229 C.ar      1 RES1    0.0000
     37 C24       11.7094    7.3121    6.3099 C.ar      1 RES1    0.0000
     38 C25       12.6247    6.6673    5.4872 C.ar      1 RES1    0.0000
     39 C26       13.0296    4.0351    1.1131 C.ar      1 RES1    0.0000
     40 C27       11.8365    3.3310    0.9861 C.ar      1 RES1    0.0000
     41 C28       11.8190    2.1030    0.3009 C.ar      1 RES1    0.0000
     42 C29       13.0136    1.6555   -0.1962 C.ar      1 RES1    0.0000
     43 C30       14.2144    2.3830   -0.0437 C.ar      1 RES1    0.0000
     44 C31       14.2501    3.5941    0.6053 C.ar      1 RES1    0.0000
     45 H1        15.6447    7.1856    5.1256 H         1 RES1    0.0000
     46 H2        14.7068    8.1981    2.6240 H         1 RES1    0.0000
     47 H3        16.1190    6.9841    1.3409 H         1 RES1    0.0000
     48 H4        16.2119    5.7639    2.4105 H         1 RES1    0.0000
     49 H5        14.1892    5.5984    3.6947 H         1 RES1    0.0000
     50 H6        19.3603    7.4556    2.9364 H         1 RES1    0.0000
     51 H7        18.8338    6.1407    2.1158 H         1 RES1    0.0000
     52 H8        18.1845    7.6646    0.3613 H         1 RES1    0.0000
     53 H9        19.4956    9.7041    1.9346 H         1 RES1    0.0000
     54 H10       17.9103    9.6465    1.6400 H         1 RES1    0.0000
     55 H11       18.2664   10.0118   -0.7149 H         1 RES1    0.0000
     56 H12       18.9990   11.1691    0.1468 H         1 RES1    0.0000
     57 H13       20.4423   10.3385   -1.5833 H         1 RES1    0.0000
     58 H14       21.0746   10.1242   -0.0967 H         1 RES1    0.0000
     59 H15       21.2744    8.1045   -1.3842 H         1 RES1    0.0000
     60 H16       19.6957    8.0812   -1.6022 H         1 RES1    0.0000
     61 H17       20.9801    7.8044    0.9762 H         1 RES1    0.0000
     62 H18       20.2523    6.5879    0.1345 H         1 RES1    0.0000
     63 H19       14.2857    9.0236    5.3969 H         1 RES1    0.0000
     64 H20       17.0925   12.2033    7.4582 H         1 RES1    0.0000
     65 H21       16.8517   10.8010    8.2477 H         1 RES1    0.0000
     66 H22       18.7444    9.8697    7.1425 H         1 RES1    0.0000
     67 H23       19.0134   11.2499    6.4087 H         1 RES1    0.0000
     68 H24       19.1668   11.2213    7.9942 H         1 RES1    0.0000
     69 H25       14.1262   12.1238    2.5861 H         1 RES1    0.0000
     70 H26       14.7065   12.9830    3.8470 H         1 RES1    0.0000
     71 H27       11.9703   12.3150    3.4578 H         1 RES1    0.0000
     72 H28       12.4809   13.1395    4.7509 H         1 RES1    0.0000
     73 H29       12.5309   13.8079    3.2655 H         1 RES1    0.0000
     74 H30       12.0838    8.4119    2.7385 H         1 RES1    0.0000
     75 H31       10.2916    8.8091    6.3686 H         1 RES1    0.0000
     76 H32       11.5964    7.0575    7.2337 H         1 RES1    0.0000
     77 H33       13.1504    5.9373    5.8161 H         1 RES1    0.0000
     78 H34       10.9735    1.6135    0.1534 H         1 RES1    0.0000
     79 H35       13.0255    0.8290   -0.7116 H         1 RES1    0.0000
     80 H36       15.0305    2.0284   -0.4492 H         1 RES1    0.0000
     81 H37       15.0529    4.1202    0.6949 H         1 RES1    0.0000
@<TRIPOS>BOND
     1    1   14 2
     2    2   26 2
     3    3   26 1
     4    4   28 2
     5    5   28 1
     6    6   10 2
     7    7   10 2
     8    8   11 1
     9    9   14 1
    10   10   35 1
    11   11   12 1
    12   12   13 2
    13   13   40 1
    14   14   15 1
    15   15   16 1
    16   16   17 1
    17   17    9 1
    18   18    8 1
    19   19    9 1
    20   20   19 1
    21   21   20 1
    22   22   21 1
    23   23   22 1
    24   24   23 1
    25   25   20 1
    26   26   27 1
    27   27   15 1
    28   28   27 1
    29   29    3 1
    30   30   29 1
    31   31    5 1
    32   32   31 1
    33   33   18 1
    34   34   33 ar
    35   35   34 ar
    36   36   35 ar
    37   37   36 ar
    38   38   33 ar
    39   39   11 1
    40   40   39 ar
    41   41   40 ar
    42   42   41 ar
    43   43   42 ar
    44   44   39 ar
    45   45   15 1
    46   46   16 1
    47   47   17 1
    48   48   17 1
    49   49   18 1
    50   50   19 1
    51   51   19 1
    52   52   20 1
    53   53   21 1
    54   54   21 1
    55   55   22 1
    56   56   22 1
    57   57   23 1
    58   58   23 1
    59   59   24 1
    60   60   24 1
    61   61   25 1
    62   62   25 1
    63   63   27 1
    64   64   29 1
    65   65   29 1
    66   66   30 1
    67   67   30 1
    68   68   30 1
    69   69   31 1
    70   70   31 1
    71   71   32 1
    72   72   32 1
    73   73   32 1
    74   74   34 1
    75   75   36 1
    76   76   37 1
    77   77   38 1
    78   78   41 1
    79   79   42 1
    80   80   43 1
    81   81   44 1
    82   16   18 1
    83   24   25 1
    84   37   38 ar
    85   43   44 ar
@<TRIPOS>SUBSTRUCTURE
     1 RES1 1

@<TRIPOS>CRYSIN
  11.5911   12.1293   12.5797  76.9890  62.6700  72.2830   2 1

