# MOL2 file generated by ConQuest
# Please check atom types

@<TRIPOS>MOLECULE
ABOFON
    67    70     1
SMALL
NO_CHARGES
****
Generated from CSD

@<TRIPOS>ATOM
      1 N1        -2.7150    2.3173    3.2939 N.3       1 RES1    0.0000
      2 N2        -4.5515   -0.1607    2.1414 N.pl3     1 RES1    0.0000
      3 O1        -1.7296    1.8359    2.3940 O.3       1 RES1    0.0000
      4 O2        -4.3698   -0.7498    5.4543 O.3       1 RES1    0.0000
      5 O3        -5.0577   -1.2588    2.2026 O.2       1 RES1    0.0000
      6 O4        -5.0627    0.7876    1.5908 O.2       1 RES1    0.0000
      7 O5        -2.4417   -1.7573    0.5940 O.3       1 RES1    0.0000
      8 C1        -3.3023    1.1273    3.8991 C.3       1 RES1    0.0000
      9 H1        -4.2414    1.3017    4.1216 H         1 RES1    0.0000
     10 C2        -3.2221    0.0411    2.8000 C.3       1 RES1    0.0000
     11 H2        -2.9055   -0.8029    3.1838 H         1 RES1    0.0000
     12 C3        -2.1854    0.5954    1.8144 C.3       1 RES1    0.0000
     13 H3        -2.6072    0.7667    0.9467 H         1 RES1    0.0000
     14 C4        -3.5490    3.3239    2.7421 C.ar      1 RES1    0.0000
     15 C5        -4.6027    3.8151    3.5019 C.ar      1 RES1    0.0000
     16 H4        -4.8086    3.4233    4.3196 H         1 RES1    0.0000
     17 C6        -5.3462    4.8866    3.0425 C.ar      1 RES1    0.0000
     18 H5        -6.0621    5.2001    3.5487 H         1 RES1    0.0000
     19 C7        -5.0443    5.4910    1.8589 C.ar      1 RES1    0.0000
     20 H6        -5.5444    6.2152    1.5596 H         1 RES1    0.0000
     21 C8        -3.9995    5.0228    1.1158 C.ar      1 RES1    0.0000
     22 H7        -3.7884    5.4383    0.3104 H         1 RES1    0.0000
     23 C9        -3.2478    3.9385    1.5441 C.ar      1 RES1    0.0000
     24 H8        -2.5415    3.6265    1.0245 H         1 RES1    0.0000
     25 C10       -2.5604    0.6774    5.1417 C.ar      1 RES1    0.0000
     26 C11       -3.1621   -0.3137    5.9148 C.ar      1 RES1    0.0000
     27 C12       -2.5352   -0.7620    7.0673 C.ar      1 RES1    0.0000
     28 H9        -2.9388   -1.4113    7.5957 H         1 RES1    0.0000
     29 C13       -1.3120   -0.2409    7.4233 C.ar      1 RES1    0.0000
     30 H10       -0.8938   -0.5650    8.1875 H         1 RES1    0.0000
     31 C14       -0.6792    0.7443    6.6902 C.ar      1 RES1    0.0000
     32 C15       -1.3427    1.1954    5.5366 C.ar      1 RES1    0.0000
     33 H11       -0.9505    1.8635    5.0237 H         1 RES1    0.0000
     34 C16       -5.0299   -1.7734    6.1796 C.3       1 RES1    0.0000
     35 H12       -5.8300   -2.0295    5.7146 H         1 RES1    0.0000
     36 H13       -5.2575   -1.4501    7.0539 H         1 RES1    0.0000
     37 H14       -4.4494   -2.5328    6.2597 H         1 RES1    0.0000
     38 C17        0.6269    1.3780    7.1529 C.3       1 RES1    0.0000
     39 C18        1.3273    2.2047    6.3375 C.3       1 RES1    0.0000
     40 H15        2.0150    2.6950    6.8136 H         1 RES1    0.0000
     41 H16        0.7523    2.8224    5.8603 H         1 RES1    0.0000
     42 C19        1.9327    1.0905    5.3853 C.3       1 RES1    0.0000
     43 H17        2.8687    1.2591    5.2507 H         1 RES1    0.0000
     44 H18        1.4799    1.1120    4.5387 H         1 RES1    0.0000
     45 H19        1.8178    0.2274    5.7880 H         1 RES1    0.0000
     46 C20        1.4536    0.4454    8.0473 C.3       1 RES1    0.0000
     47 H20        1.6363   -0.3707    7.5768 H         1 RES1    0.0000
     48 H21        0.9607    0.2505    8.8472 H         1 RES1    0.0000
     49 H22        2.2816    0.8742    8.2776 H         1 RES1    0.0000
     50 C21        0.1068    2.7042    8.2142 C.3       1 RES1    0.0000
     51 H23       -0.4491    2.3548    8.9150 H         1 RES1    0.0000
     52 H24       -0.3910    3.3470    7.7025 H         1 RES1    0.0000
     53 H25        0.8773    3.1284    8.5980 H         1 RES1    0.0000
     54 C22       -0.9848   -0.3037    1.6342 C.ar      1 RES1    0.0000
     55 C23       -1.1621   -1.5185    0.9778 C.ar      1 RES1    0.0000
     56 C24       -0.0783   -2.3787    0.7976 C.ar      1 RES1    0.0000
     57 H26       -0.1902   -3.1935    0.3638 H         1 RES1    0.0000
     58 C25        1.1643   -2.0041    1.2737 C.ar      1 RES1    0.0000
     59 H27        1.8885   -2.5790    1.1625 H         1 RES1    0.0000
     60 C26        1.3496   -0.8155    1.8967 C.ar      1 RES1    0.0000
     61 H28        2.1936   -0.5739    2.2026 H         1 RES1    0.0000
     62 C27        0.2734    0.0384    2.0780 C.ar      1 RES1    0.0000
     63 H29        0.4022    0.8530    2.5063 H         1 RES1    0.0000
     64 C28       -2.7262   -2.9040   -0.1780 C.3       1 RES1    0.0000
     65 H30       -3.6662   -2.9353   -0.3704 H         1 RES1    0.0000
     66 H31       -2.4730   -3.6907    0.3115 H         1 RES1    0.0000
     67 H32       -2.2328   -2.8660   -1.0001 H         1 RES1    0.0000
@<TRIPOS>BOND
     1    1    3 1
     2    2    5 2
     3    3   12 1
     4    4   26 1
     5    6    2 2
     6    7   55 1
     7    8    1 1
     8    9    8 1
     9   10    2 1
    10   11   10 1
    11   12   10 1
    12   13   12 1
    13   14    1 1
    14   15   14 ar
    15   16   15 1
    16   17   15 ar
    17   18   17 1
    18   19   17 ar
    19   20   19 1
    20   21   19 ar
    21   22   21 1
    22   23   14 ar
    23   24   23 1
    24   25    8 1
    25   26   25 ar
    26   27   26 ar
    27   28   27 1
    28   29   27 ar
    29   30   29 1
    30   31   29 ar
    31   32   25 ar
    32   33   32 1
    33   34    4 1
    34   35   34 1
    35   36   34 1
    36   37   34 1
    37   38   31 1
    38   39   38 1
    39   40   39 1
    40   41   39 1
    41   42   39 1
    42   43   42 1
    43   44   42 1
    44   45   42 1
    45   46   38 1
    46   47   46 1
    47   48   46 1
    48   49   46 1
    49   50   38 1
    50   51   50 1
    51   52   50 1
    52   53   50 1
    53   54   12 1
    54   55   54 ar
    55   56   55 ar
    56   57   56 1
    57   58   56 ar
    58   59   58 1
    59   60   58 ar
    60   61   60 1
    61   62   54 ar
    62   63   62 1
    63   64    7 1
    64   65   64 1
    65   66   64 1
    66   67   64 1
    67    8   10 1
    68   21   23 ar
    69   31   32 ar
    70   60   62 ar
@<TRIPOS>SUBSTRUCTURE
     1 RES1 1

@<TRIPOS>CRYSIN
   9.7540   12.6940   12.7970 100.1760 111.3870 111.5190   2 1

