# MOL2 file generated by ConQuest
# Please check atom types

@<TRIPOS>MOLECULE
ABOFIH
    62    63     2
SMALL
NO_CHARGES
****
Generated from CSD

@<TRIPOS>ATOM
      1 O1         0.7981   -0.9061    1.9540 O.3       1 RES1    0.0000
      2 O2         0.3648   -4.8195    4.1373 O.2       1 RES1    0.0000
      3 O3         1.0262   -3.0146    5.0519 O.2       1 RES1    0.0000
      4 O4        -0.0372   -4.3114    4.4546 Du        2 SUP2    0.0000
      5 O5         1.7541   -3.3834    4.9233 Du        2 SUP2    0.0000
      6 O6         3.1636   -5.0023    2.1941 O.3       1 RES1    0.0000
      7 N1         2.1120   -1.0211    2.5087 N.3       1 RES1    0.0000
      8 N2         0.8389   -3.6835    4.1073 N.pl3     1 RES1    0.0000
      9 C1         2.3689   -2.4618    2.4884 C.3       1 RES1    0.0000
     10 H1         2.9795   -2.7002    3.2164 H         1 RES1    0.0000
     11 C2         0.9881   -3.1151    2.7293 C.3       1 RES1    0.0000
     12 H2         0.8313   -3.8150    2.0622 H         1 RES1    0.0000
     13 C3        -0.0074   -1.9618    2.5177 C.3       1 RES1    0.0000
     14 H3        -0.3665   -1.6745    3.3833 H         1 RES1    0.0000
     15 C4         2.2421   -0.3177    3.7475 C.ar      1 RES1    0.0000
     16 C5         1.3190    0.6280    4.1280 C.ar      1 RES1    0.0000
     17 H4         0.5563    0.7655    3.6137 H         1 RES1    0.0000
     18 C6         1.5244    1.3729    5.2738 C.ar      1 RES1    0.0000
     19 H5         0.8973    2.0129    5.5237 H         1 RES1    0.0000
     20 C7         2.6345    1.1840    6.0411 C.ar      1 RES1    0.0000
     21 H6         2.7601    1.6816    6.8168 H         1 RES1    0.0000
     22 C8         3.5600    0.2537    5.6596 C.ar      1 RES1    0.0000
     23 H7         4.3226    0.1252    6.1780 H         1 RES1    0.0000
     24 C9         3.3799   -0.4968    4.5169 C.ar      1 RES1    0.0000
     25 H8         4.0211   -1.1222    4.2628 H         1 RES1    0.0000
     26 C10        2.9435   -2.9213    1.1652 C.ar      1 RES1    0.0000
     27 C11        3.3319   -4.2607    1.0525 C.ar      1 RES1    0.0000
     28 C12        3.8449   -4.7327   -0.1348 C.ar      1 RES1    0.0000
     29 H9         4.1117   -5.6204   -0.2105 H         1 RES1    0.0000
     30 C13        3.9588   -3.8740   -1.2174 C.ar      1 RES1    0.0000
     31 H10        4.2949   -4.2050   -2.0189 H         1 RES1    0.0000
     32 C14        3.5913   -2.5393   -1.1468 C.ar      1 RES1    0.0000
     33 C15        3.0825   -2.0905    0.0767 C.ar      1 RES1    0.0000
     34 H11        2.8289   -1.1996    0.1576 H         1 RES1    0.0000
     35 C16        3.4166   -6.3953    2.1267 C.3       1 RES1    0.0000
     36 H12        3.2390   -6.7937    2.9822 H         1 RES1    0.0000
     37 H13        4.3349   -6.5424    1.8893 H         1 RES1    0.0000
     38 H14        2.8461   -6.7917    1.4641 H         1 RES1    0.0000
     39 C17        3.6799   -1.5568   -2.3175 C.3       1 RES1    0.0000
     40 C18        2.2714   -1.0799   -2.6773 C.3       1 RES1    0.0000
     41 H15        2.3255   -0.4064   -3.3586 H         1 RES1    0.0000
     42 H16        1.8487   -0.7127   -1.8976 H         1 RES1    0.0000
     43 H17        1.7555   -1.8221   -3.0009 H         1 RES1    0.0000
     44 C19        4.5100   -0.3215   -1.9028 C.3       1 RES1    0.0000
     45 H18        4.5336    0.3060   -2.6286 H         1 RES1    0.0000
     46 H19        5.4057   -0.5953   -1.6881 H         1 RES1    0.0000
     47 H20        4.1090    0.0907   -1.1354 H         1 RES1    0.0000
     48 C20        4.3296   -2.1710   -3.5453 C.3       1 RES1    0.0000
     49 H21        4.3917   -1.5102   -4.2390 H         1 RES1    0.0000
     50 H22        3.7984   -2.9091   -3.8532 H         1 RES1    0.0000
     51 H23        5.2100   -2.4825   -3.3202 H         1 RES1    0.0000
     52 C21       -1.1431   -2.2848    1.5834 C.ar      1 RES1    0.0000
     53 C22       -1.1628   -1.8460    0.2748 C.ar      1 RES1    0.0000
     54 H24       -0.4632   -1.3276   -0.0498 H         1 RES1    0.0000
     55 C23       -2.2181   -2.1725   -0.5548 C.ar      1 RES1    0.0000
     56 H25       -2.2329   -1.8577   -1.4299 H         1 RES1    0.0000
     57 C24       -3.2369   -2.9544   -0.0964 C.ar      1 RES1    0.0000
     58 H26       -3.9388   -3.1813   -0.6626 H         1 RES1    0.0000
     59 C25       -3.2268   -3.4071    1.1997 C.ar      1 RES1    0.0000
     60 H27       -3.9174   -3.9477    1.5087 H         1 RES1    0.0000
     61 C26       -2.1924   -3.0586    2.0427 C.ar      1 RES1    0.0000
     62 H28       -2.2008   -3.3474    2.9272 H         1 RES1    0.0000
@<TRIPOS>BOND
     1    1    7 1
     2    2    8 2
     3    3    8 2
     4    6   27 1
     5    7    9 1
     6    8   11 1
     7    9   10 1
     8   11    9 1
     9   12   11 1
    10   13    1 1
    11   14   13 1
    12   15    7 1
    13   16   15 ar
    14   17   16 1
    15   18   16 ar
    16   19   18 1
    17   20   18 ar
    18   21   20 1
    19   22   20 ar
    20   23   22 1
    21   24   15 ar
    22   25   24 1
    23   26    9 1
    24   27   26 ar
    25   28   27 ar
    26   29   28 1
    27   30   28 ar
    28   31   30 1
    29   32   30 ar
    30   33   26 ar
    31   34   33 1
    32   35    6 1
    33   36   35 1
    34   37   35 1
    35   38   35 1
    36   39   32 1
    37   40   39 1
    38   41   40 1
    39   42   40 1
    40   43   40 1
    41   44   39 1
    42   45   44 1
    43   46   44 1
    44   47   44 1
    45   48   39 1
    46   49   48 1
    47   50   48 1
    48   51   48 1
    49   52   13 1
    50   53   52 ar
    51   54   53 1
    52   55   53 ar
    53   56   55 1
    54   57   55 ar
    55   58   57 1
    56   59   57 ar
    57   60   59 1
    58   61   52 ar
    59   62   61 1
    60   11   13 1
    61   22   24 ar
    62   32   33 ar
    63   59   61 ar
@<TRIPOS>SUBSTRUCTURE
     1 RES1 1
     2 SUP2 4

@<TRIPOS>CRYSIN
  10.5569   11.3410   11.3790 109.4020  96.9600 109.1180   2 1

