# MOL2 file generated by ConQuest
# Please check atom types

@<TRIPOS>MOLECULE
ABULIT07
    21    21     1
SMALL
NO_CHARGES
****
Generated from CSD

@<TRIPOS>ATOM
      1 O1         5.8946   -0.2055   10.0759 O.3       1 RES1    0.0000
      2 N1         6.3882    0.6809    9.1289 N.2       1 RES1    0.0000
      3 C1         6.8305    1.7598    9.6003 C.2       1 RES1    0.0000
      4 C2         7.2844    2.7915    8.6811 C.ar      1 RES1    0.0000
      5 C3         7.3918    2.5196    7.3168 C.ar      1 RES1    0.0000
      6 O2         7.1871    1.2906    6.8023 O.3       1 RES1    0.0000
      7 C4         7.7539    3.5354    6.4387 C.ar      1 RES1    0.0000
      8 O3         7.8080    3.1375    5.1241 O.3       1 RES1    0.0000
      9 C5         8.4733    4.0537    4.2510 C.3       1 RES1    0.0000
     10 C6         8.0158    4.7997    6.9020 C.ar      1 RES1    0.0000
     11 C7         7.9301    5.0558    8.2641 C.ar      1 RES1    0.0000
     12 C8         7.5523    4.0690    9.1390 C.ar      1 RES1    0.0000
     13 H1         5.5523   -0.8304    9.5416 H         1 RES1    0.0000
     14 H2         6.8414    1.9168   10.5357 H         1 RES1    0.0000
     15 H3         6.9645    0.7820    7.3704 H         1 RES1    0.0000
     16 H4         8.5095    3.6365    3.3780 H         1 RES1    0.0000
     17 H5         9.3665    4.2219    4.5655 H         1 RES1    0.0000
     18 H6         7.9687    4.8682    4.1992 H         1 RES1    0.0000
     19 H7         8.2560    5.4806    6.3054 H         1 RES1    0.0000
     20 H8         8.1245    5.9201    8.5609 H         1 RES1    0.0000
     21 H9         7.4775    4.2627   10.0468 H         1 RES1    0.0000
@<TRIPOS>BOND
     1    1    2 1
     2    2    3 2
     3    3    4 1
     4    4    5 ar
     5    5    6 1
     6    6   15 1
     7    7    5 ar
     8    8    7 1
     9    9    8 1
    10   10    7 ar
    11   11   10 ar
    12   12    4 ar
    13   13    1 1
    14   14    3 1
    15   16    9 1
    16   17    9 1
    17   18    9 1
    18   19   10 1
    19   20   11 1
    20   21   12 1
    21   11   12 ar
@<TRIPOS>SUBSTRUCTURE
     1 RES1 1

@<TRIPOS>CRYSIN
  12.0702    6.9200   14.7703  90.0000  90.0000  90.0000  61 1

