# MOL2 file generated by ConQuest
# Please check atom types

@<TRIPOS>MOLECULE
ABULIT05
    21    21     1
SMALL
NO_CHARGES
****
Generated from CSD

@<TRIPOS>ATOM
      1 O1         6.0119   -0.1794   10.1440 O.3       1 RES1    0.0000
      2 N1         6.5213    0.6903    9.1915 N.2       1 RES1    0.0000
      3 C1         6.9467    1.7855    9.6594 C.2       1 RES1    0.0000
      4 C2         7.4183    2.8192    8.7424 C.ar      1 RES1    0.0000
      5 C3         7.5344    2.5393    7.3748 C.ar      1 RES1    0.0000
      6 O2         7.3164    1.3088    6.8575 O.3       1 RES1    0.0000
      7 C4         7.9146    3.5479    6.4984 C.ar      1 RES1    0.0000
      8 O3         7.9761    3.1619    5.1848 O.3       1 RES1    0.0000
      9 C5         8.6241    4.0645    4.3059 C.3       1 RES1    0.0000
     10 C6         8.1942    4.8113    6.9715 C.ar      1 RES1    0.0000
     11 C7         8.0921    5.0752    8.3391 C.ar      1 RES1    0.0000
     12 C8         7.6996    4.0854    9.2089 C.ar      1 RES1    0.0000
     13 H1         5.6755   -0.8097    9.6369 H         1 RES1    0.0000
     14 H2         6.9374    1.9502   10.5886 H         1 RES1    0.0000
     15 H3         7.0174    0.8376    7.5069 H         1 RES1    0.0000
     16 H4         8.6758    3.6617    3.4362 H         1 RES1    0.0000
     17 H5         9.5142    4.2522    4.6188 H         1 RES1    0.0000
     18 H6         8.1402    4.9014    4.2450 H         1 RES1    0.0000
     19 H7         8.4456    5.4765    6.3734 H         1 RES1    0.0000
     20 H8         8.2695    5.9323    8.6538 H         1 RES1    0.0000
     21 H9         7.6084    4.2787   10.1239 H         1 RES1    0.0000
@<TRIPOS>BOND
     1    1    2 1
     2    2    3 2
     3    3    4 1
     4    4    5 ar
     5    5    6 1
     6    6   15 1
     7    7    5 ar
     8    8    7 1
     9    9    8 1
    10   10    7 ar
    11   11   10 ar
    12   12    4 ar
    13   13    1 1
    14   14    3 1
    15   16    9 1
    16   17    9 1
    17   18    9 1
    18   19   10 1
    19   20   11 1
    20   21   12 1
    21   11   12 ar
@<TRIPOS>SUBSTRUCTURE
     1 RES1 1

@<TRIPOS>CRYSIN
  12.3113    6.9800   14.8947  90.0000  90.0000  90.0000  61 1

