# MOL2 file generated by ConQuest
# Please check atom types

@<TRIPOS>MOLECULE
ABULIT
    21    21     1
SMALL
NO_CHARGES
****
Generated from CSD

@<TRIPOS>ATOM
      1 N1         0.3496    0.7717    6.1296 N.2       1 RES1    0.0000
      2 O1        -0.2471   -0.0533    5.1631 O.3       1 RES1    0.0000
      3 O2         1.1902    1.4259    8.4863 O.3       1 RES1    0.0000
      4 O3         2.1620    3.2264   10.0870 O.3       1 RES1    0.0000
      5 C1         0.7558    1.8870    5.6810 C.2       1 RES1    0.0000
      6 C2         1.3632    2.8690    6.5637 C.ar      1 RES1    0.0000
      7 C3         1.5312    2.6190    7.9244 C.ar      1 RES1    0.0000
      8 C4         2.0705    3.5903    8.7701 C.ar      1 RES1    0.0000
      9 C5         2.4622    4.8065    8.2411 C.ar      1 RES1    0.0000
     10 C6         2.3180    5.0586    6.8834 C.ar      1 RES1    0.0000
     11 C7         1.7663    4.1076    6.0553 C.ar      1 RES1    0.0000
     12 C8         2.7628    4.1494   10.9903 C.3       1 RES1    0.0000
     13 H1        -0.6435   -0.7349    5.7361 H         1 RES1    0.0000
     14 H2         0.6864    0.8358    7.8220 H         1 RES1    0.0000
     15 H3         0.6950    2.1111    4.7390 H         1 RES1    0.0000
     16 H4         2.8300    5.4686    8.8207 H         1 RES1    0.0000
     17 H5         2.5826    5.9369    6.5215 H         1 RES1    0.0000
     18 H6         1.6288    4.2942    5.0756 H         1 RES1    0.0000
     19 H7         2.2880    5.0003   10.9903 H         1 RES1    0.0000
     20 H8         3.6608    4.3446   10.6600 H         1 RES1    0.0000
     21 H9         2.7742    3.6673   11.8673 H         1 RES1    0.0000
@<TRIPOS>BOND
     1    1    2 1
     2    2   13 1
     3    3    7 1
     4    4    8 1
     5    5    1 2
     6    6    5 1
     7    7    6 ar
     8    8    7 ar
     9    9    8 ar
    10   10    9 ar
    11   11    6 ar
    12   12    4 1
    13   14    3 1
    14   15    5 1
    15   16    9 1
    16   17   10 1
    17   18   11 1
    18   19   12 1
    19   20   12 1
    20   21   12 1
    21   10   11 ar
@<TRIPOS>SUBSTRUCTURE
     1 RES1 1

@<TRIPOS>CRYSIN
  14.3000    7.2050   15.8020  90.0000  90.0000  90.0000  61 1

