# MOL2 file generated by ConQuest
# Please check atom types

@<TRIPOS>MOLECULE
ABURIY
    96    98     2
SMALL
NO_CHARGES
****
Generated from CSD

@<TRIPOS>ATOM
      1 C1         9.8820    0.3114   25.9577 C.3       1 RES1    0.0000
      2 H1         9.0754   -0.0089   25.5022 H         1 RES1    0.0000
      3 C2         9.6848    1.7682   26.2670 C.2       1 RES1    0.0000
      4 H2        10.3038    2.1543   26.8459 H         1 RES1    0.0000
      5 C3         8.7497    2.5486   25.8201 C.2       1 RES1    0.0000
      6 H3         8.1466    2.1860   25.2140 H         1 RES1    0.0000
      7 C4         8.5605    3.9900   26.2033 C.3       1 RES1    0.0000
      8 H4         9.2777    4.2623   26.7972 H         1 RES1    0.0000
      9 H5         8.6042    4.5436   25.4088 H         1 RES1    0.0000
     10 C5         7.2497    4.2030   26.8821 C.2       1 RES1    0.0000
     11 H6         6.5145    4.3705   26.3385 H         1 RES1    0.0000
     12 C6         7.0418    4.1737   28.1758 C.2       1 RES1    0.0000
     13 H7         6.1686    4.3428   28.4495 H         1 RES1    0.0000
     14 C7         8.0168    3.9046   29.2601 C.3       1 RES1    0.0000
     15 H8         8.0031    4.6461   29.8865 H         1 RES1    0.0000
     16 H9         8.9063    3.8591   28.8757 H         1 RES1    0.0000
     17 C8         7.7415    2.6031   30.0298 C.3       1 RES1    0.0000
     18 H10        8.3855    2.5177   30.7512 H         1 RES1    0.0000
     19 H11        6.8573    2.6470   30.4224 H         1 RES1    0.0000
     20 C9         7.8284    1.3967   29.1497 C.2       1 RES1    0.0000
     21 H12        7.0958    1.2308   28.5997 H         1 RES1    0.0000
     22 C10        8.8042    0.5658   29.0698 C.2       1 RES1    0.0000
     23 H13        9.5199    0.7105   29.6470 H         1 RES1    0.0000
     24 C11        8.9153   -0.6097   28.1519 C.3       1 RES1    0.0000
     25 H14        8.0980   -0.6772   27.6335 H         1 RES1    0.0000
     26 H15        8.9911   -1.4154   28.6890 H         1 RES1    0.0000
     27 C12       10.0937   -0.5520   27.1938 C.3       1 RES1    0.0000
     28 H16       10.3000   -1.4552   26.9068 H         1 RES1    0.0000
     29 H17       10.8655   -0.2162   27.6741 H         1 RES1    0.0000
     30 C13       11.0416    0.1252   25.0175 C.3       1 RES1    0.0000
     31 H18       11.8462    0.5195   25.3926 H         1 RES1    0.0000
     32 H19       11.2037   -0.8187   24.8608 H         1 RES1    0.0000
     33 O1        10.6850    0.7861   23.7789 O.3       1 RES1    0.0000
     34 C14       11.4919    0.6634   22.7336 C.2       1 RES1    0.0000
     35 O2        12.5339    0.0724   22.7551 O.2       1 RES1    0.0000
     36 C15       10.9250    1.3503   21.5482 C.ar      1 RES1    0.0000
     37 C16        9.7237    2.0340   21.5961 C.ar      1 RES1    0.0000
     38 H20        9.2646    2.0950   22.4048 H         1 RES1    0.0000
     39 C17        9.1933    2.6242   20.4728 C.ar      1 RES1    0.0000
     40 H21        8.3815    3.0762   20.5049 H         1 RES1    0.0000
     41 C18        9.9053    2.5267   19.2907 C.ar      1 RES1    0.0000
     42 C19       11.0963    1.8479   19.1973 C.ar      1 RES1    0.0000
     43 H22       11.5432    1.7747   18.3858 H         1 RES1    0.0000
     44 C20       11.6088    1.2796   20.3437 C.ar      1 RES1    0.0000
     45 H23       12.4274    0.8398   20.3100 H         1 RES1    0.0000
     46 N1         9.3224    3.1502   18.0850 N.pl3     1 RES1    0.0000
     47 O3         8.2604    3.7526   18.1828 O.2       1 RES1    0.0000
     48 O4         9.9515    3.0624   17.0469 O.2       1 RES1    0.0000
     49 C21        4.2967    0.4122   25.4506 C.3       2 RES2    0.0000
     50 H24        3.4828    0.0634   25.0313 H         2 RES2    0.0000
     51 C22        4.0524    1.8422   25.8083 C.2       2 RES2    0.0000
     52 H25        4.6719    2.2438   26.3750 H         2 RES2    0.0000
     53 C23        3.0557    2.5836   25.4044 C.2       2 RES2    0.0000
     54 H26        2.4426    2.1991   24.8202 H         2 RES2    0.0000
     55 C24        2.8271    4.0168   25.8132 C.3       2 RES2    0.0000
     56 H27        3.5920    4.3274   26.3222 H         2 RES2    0.0000
     57 H28        2.7573    4.5672   25.0191 H         2 RES2    0.0000
     58 C25        1.5956    4.1827   26.6295 C.2       2 RES2    0.0000
     59 H29        0.8040    4.3282   26.1639 H         2 RES2    0.0000
     60 C26        1.5085    4.1469   27.9367 C.2       2 RES2    0.0000
     61 H30        0.6604    4.2680   28.2992 H         2 RES2    0.0000
     62 C27        2.6214    3.9315   28.9029 C.3       2 RES2    0.0000
     63 H31        2.6510    4.6810   29.5171 H         2 RES2    0.0000
     64 H32        3.4604    3.9168   28.4170 H         2 RES2    0.0000
     65 C28        2.4959    2.6242   29.7156 C.3       2 RES2    0.0000
     66 H33        3.2377    2.5624   30.3372 H         2 RES2    0.0000
     67 H34        1.6746    2.6478   30.2316 H         2 RES2    0.0000
     68 C29        2.4894    1.4186   28.8384 C.2       2 RES2    0.0000
     69 H35        1.7048    1.2438   28.3683 H         2 RES2    0.0000
     70 C30        3.4625    0.5992   28.6683 C.2       2 RES2    0.0000
     71 H36        4.2166    0.7430   29.1924 H         2 RES2    0.0000
     72 C31        3.5255   -0.5634   27.7216 C.3       2 RES2    0.0000
     73 H37        2.6678   -0.6455   27.2762 H         2 RES2    0.0000
     74 H38        3.6651   -1.3739   28.2384 H         2 RES2    0.0000
     75 C32        4.6175   -0.4683   26.6596 C.3       2 RES2    0.0000
     76 H39        4.8127   -1.3641   26.3425 H         2 RES2    0.0000
     77 H40        5.4234   -0.1276   27.0814 H         2 RES2    0.0000
     78 C33        5.4195    0.2910   24.4524 C.3       2 RES2    0.0000
     79 H41        6.2243    0.7073   24.7999 H         2 RES2    0.0000
     80 H42        5.6097   -0.6431   24.2722 H         2 RES2    0.0000
     81 O5         4.9975    0.9536   23.2451 O.3       2 RES2    0.0000
     82 C34        5.7650    0.8609   22.1754 C.2       2 RES2    0.0000
     83 O6         6.8070    0.2707   22.1490 O.2       2 RES2    0.0000
     84 C35        5.1608    1.5690   21.0213 C.ar      2 RES2    0.0000
     85 C36        3.9525    2.2348   21.1479 C.ar      2 RES2    0.0000
     86 H43        3.5186    2.2527   21.9704 H         2 RES2    0.0000
     87 C37        3.3933    2.8697   20.0656 C.ar      2 RES2    0.0000
     88 H44        2.5815    3.3161   20.1476 H         2 RES2    0.0000
     89 C38        4.0535    2.8332   18.8608 C.ar      2 RES2    0.0000
     90 C39        5.2483    2.1763   18.7093 C.ar      2 RES2    0.0000
     91 H45        5.6733    2.1535   17.8824 H         2 RES2    0.0000
     92 C40        5.8071    1.5528   19.7989 C.ar      2 RES2    0.0000
     93 H46        6.6247    1.1170   19.7133 H         2 RES2    0.0000
     94 N2         3.4304    3.4990   17.7009 N.pl3     2 RES2    0.0000
     95 O7         2.4345    4.1632   17.8783 O.2       2 RES2    0.0000
     96 O8         3.9611    3.3437   16.6243 O.2       2 RES2    0.0000
@<TRIPOS>BOND
     1    1    2 1
     2    3    1 1
     3    4    3 1
     4    5    3 2
     5    6    5 1
     6    7    5 1
     7    8    7 1
     8    9    7 1
     9   10    7 1
    10   11   10 1
    11   12   10 2
    12   13   12 1
    13   14   12 1
    14   15   14 1
    15   16   14 1
    16   17   14 1
    17   18   17 1
    18   19   17 1
    19   20   17 1
    20   21   20 1
    21   22   20 2
    22   23   22 1
    23   24   22 1
    24   25   24 1
    25   26   24 1
    26   27    1 1
    27   28   27 1
    28   29   27 1
    29   30    1 1
    30   31   30 1
    31   32   30 1
    32   33   30 1
    33   34   33 1
    34   35   34 2
    35   36   34 1
    36   37   36 ar
    37   38   37 1
    38   39   37 ar
    39   40   39 1
    40   41   39 ar
    41   42   41 ar
    42   43   42 1
    43   44   36 ar
    44   45   44 1
    45   46   41 1
    46   47   46 2
    47   48   46 2
    48   49   50 1
    49   51   49 1
    50   52   51 1
    51   53   51 2
    52   54   53 1
    53   55   53 1
    54   56   55 1
    55   57   55 1
    56   58   55 1
    57   59   58 1
    58   60   58 2
    59   61   60 1
    60   62   60 1
    61   63   62 1
    62   64   62 1
    63   65   62 1
    64   66   65 1
    65   67   65 1
    66   68   65 1
    67   69   68 1
    68   70   68 2
    69   71   70 1
    70   72   70 1
    71   73   72 1
    72   74   72 1
    73   75   49 1
    74   76   75 1
    75   77   75 1
    76   78   49 1
    77   79   78 1
    78   80   78 1
    79   81   78 1
    80   82   81 1
    81   83   82 2
    82   84   82 1
    83   85   84 ar
    84   86   85 1
    85   87   85 ar
    86   88   87 1
    87   89   87 ar
    88   90   89 ar
    89   91   90 1
    90   92   84 ar
    91   93   92 1
    92   94   89 1
    93   95   94 2
    94   96   94 2
    95   24   27 1
    96   42   44 ar
    97   72   75 1
    98   90   92 ar
@<TRIPOS>SUBSTRUCTURE
     1 RES1 1
     2 RES2 49

@<TRIPOS>CRYSIN
  11.2389    8.1296   40.6370  90.0000  92.5840  90.0000  14 1

