# MOL2 file generated by ConQuest
# Please check atom types

@<TRIPOS>MOLECULE
ABUTIA01
   118   121     1
SMALL
NO_CHARGES
****
Generated from CSD

@<TRIPOS>ATOM
      1 O1         3.3195    6.7818   11.9212 O.3       1 RES1    0.0000
      2 C1         2.2732    5.8323   12.1845 C.3       1 RES1    0.0000
      3 H1         1.9396    5.5076   11.3238 H         1 RES1    0.0000
      4 C2         1.1183    6.5125   12.9040 C.3       1 RES1    0.0000
      5 H2         1.3855    6.8191   13.7950 H         1 RES1    0.0000
      6 C3         0.6528    7.6565   12.0534 C.3       1 RES1    0.0000
      7 H3         0.2970    7.3023   11.2095 H         1 RES1    0.0000
      8 C4         1.7944    8.6292   11.7407 C.3       1 RES1    0.0000
      9 H4         1.4852    9.3443   11.1456 H         1 RES1    0.0000
     10 C5         2.8762    7.8369   11.0851 C.3       1 RES1    0.0000
     11 H5         2.5514    7.4723   10.2378 H         1 RES1    0.0000
     12 N1         2.8230    4.7037   12.9013 N.3       1 RES1    0.0000
     13 C6         3.5756    5.1031   14.1413 C.3       1 RES1    0.0000
     14 H6         3.0546    5.7344   14.6624 H         1 RES1    0.0000
     15 H7         4.4190    5.5192   13.9026 H         1 RES1    0.0000
     16 C7         3.8183    3.8444   14.9348 C.3       1 RES1    0.0000
     17 H8         4.2971    4.0608   15.7484 H         1 RES1    0.0000
     18 H9         2.9693    3.4437   15.1768 H         1 RES1    0.0000
     19 C8         4.6174    2.8743   14.1245 C.ar      1 RES1    0.0000
     20 C9         4.5509    2.9438   12.7594 C.ar      1 RES1    0.0000
     21 C10        3.6088    3.8263   12.0130 C.3       1 RES1    0.0000
     22 H10        4.1309    4.3906   11.4045 H         1 RES1    0.0000
     23 C11        5.4986    1.9789   14.7263 C.ar      1 RES1    0.0000
     24 H11        5.5351    1.9351   15.6543 H         1 RES1    0.0000
     25 C12        6.3110    1.1647   13.9900 C.ar      1 RES1    0.0000
     26 C13        6.2811    1.2600   12.6014 C.ar      1 RES1    0.0000
     27 C14        5.4143    2.1322   11.9929 C.ar      1 RES1    0.0000
     28 H12        5.3955    2.1902   11.0649 H         1 RES1    0.0000
     29 C15        2.6046    3.0198   11.1826 C.ar      1 RES1    0.0000
     30 C16        1.9008    1.9969   11.7844 C.ar      1 RES1    0.0000
     31 H13        2.0660    1.8127   12.6787 H         1 RES1    0.0000
     32 C17        0.9565    1.2278   11.1120 C.ar      1 RES1    0.0000
     33 H14        0.5065    0.5282   11.5289 H         1 RES1    0.0000
     34 C18        0.7326    1.5524    9.8276 C.ar      1 RES1    0.0000
     35 C19        1.4043    2.5586    9.1888 C.ar      1 RES1    0.0000
     36 H15        1.2114    2.7570    8.3012 H         1 RES1    0.0000
     37 C20        2.3708    3.2788    9.8680 C.ar      1 RES1    0.0000
     38 H16        2.8585    3.9358    9.4242 H         1 RES1    0.0000
     39 O2         7.1367    0.4445   11.9249 O.3       1 RES1    0.0000
     40 C21        7.4648    0.8065   10.5841 C.3       1 RES1    0.0000
     41 H17        8.0711    0.1585   10.2176 H         1 RES1    0.0000
     42 H18        7.8793    1.6723   10.5774 H         1 RES1    0.0000
     43 H19        6.6646    0.8310   10.0529 H         1 RES1    0.0000
     44 O3         7.2099    0.2654   14.5014 O.3       1 RES1    0.0000
     45 C22        7.2886    0.1301   15.8829 C.3       1 RES1    0.0000
     46 H20        7.9525   -0.5269   16.1014 H         1 RES1    0.0000
     47 H21        6.4362   -0.1469   16.2258 H         1 RES1    0.0000
     48 H22        7.5313    0.9740   16.2729 H         1 RES1    0.0000
     49 N2        -0.2893    0.8387    9.0510 N.pl3     1 RES1    0.0000
     50 O4        -0.6473    1.1840    8.0524 O.2       1 RES1    0.0000
     51 O5        -0.6351   -0.2834    9.5418 O.2       1 RES1    0.0000
     52 O6         0.0488    5.5746   12.9790 O.3       1 RES1    0.0000
     53 C23       -0.3746    5.1507   14.1581 C.2       1 RES1    0.0000
     54 O7         0.0942    5.5463   15.1836 O.2       1 RES1    0.0000
     55 C24       -1.4819    4.1368   14.1144 C.3       1 RES1    0.0000
     56 C25       -2.1535    4.0376   12.7359 C.3       1 RES1    0.0000
     57 H23       -2.8496    3.3780   12.7662 H         1 RES1    0.0000
     58 H24       -1.4996    3.7838   12.0803 H         1 RES1    0.0000
     59 H25       -2.5282    4.8892   12.5005 H         1 RES1    0.0000
     60 C26       -2.5204    4.5749   15.1600 C.3       1 RES1    0.0000
     61 H26       -3.2508    3.9513   15.1634 H         1 RES1    0.0000
     62 H27       -2.8485    5.4496   14.9381 H         1 RES1    0.0000
     63 H28       -2.1114    4.5968   16.0275 H         1 RES1    0.0000
     64 C27       -0.9077    2.7660   14.5044 C.3       1 RES1    0.0000
     65 H29       -1.6060    2.1077   14.4809 H         1 RES1    0.0000
     66 H30       -0.5420    2.8124   15.3920 H         1 RES1    0.0000
     67 H31       -0.2161    2.5200   13.8858 H         1 RES1    0.0000
     68 O8        -0.3990    8.3806   12.7393 O.3       1 RES1    0.0000
     69 C28       -1.5406    8.5674   12.0803 C.2       1 RES1    0.0000
     70 O9        -1.7457    8.0521   11.0380 O.2       1 RES1    0.0000
     71 C29       -2.4583    9.5246   12.7325 C.3       1 RES1    0.0000
     72 C30       -2.8740    8.9719   14.1144 C.3       1 RES1    0.0000
     73 H32       -3.4703    9.5903   14.5414 H         1 RES1    0.0000
     74 H33       -2.0926    8.8521   14.6591 H         1 RES1    0.0000
     75 H34       -3.3173    8.1268   14.0001 H         1 RES1    0.0000
     76 C31       -3.7197    9.7578   11.8685 C.3       1 RES1    0.0000
     77 H35       -4.3004   10.3814   12.3123 H         1 RES1    0.0000
     78 H36       -4.1807    8.9243   11.7441 H         1 RES1    0.0000
     79 H37       -3.4625   10.1108   11.0145 H         1 RES1    0.0000
     80 C32       -1.7069   10.8645   12.9141 C.3       1 RES1    0.0000
     81 H38       -2.2865   11.5009   13.3377 H         1 RES1    0.0000
     82 H39       -1.4342   11.1995   12.0567 H         1 RES1    0.0000
     83 H40       -0.9310   10.7228   13.4655 H         1 RES1    0.0000
     84 O10        2.2688    9.1729   12.9763 O.3       1 RES1    0.0000
     85 C33        2.0604   10.4419   13.2772 C.2       1 RES1    0.0000
     86 O11        1.5207   11.1982   12.4972 O.2       1 RES1    0.0000
     87 C34        2.6301   10.8001   14.6120 C.3       1 RES1    0.0000
     88 C35        4.1397   10.5257   14.7364 C.3       1 RES1    0.0000
     89 H41        4.4401   10.7756   15.6139 H         1 RES1    0.0000
     90 H42        4.6130   11.0384   14.0774 H         1 RES1    0.0000
     91 H43        4.3071    9.5903   14.5952 H         1 RES1    0.0000
     92 C36        1.8665    9.9408   15.6375 C.3       1 RES1    0.0000
     93 H44        2.1923   10.1314   16.5217 H         1 RES1    0.0000
     94 H45        2.0017    9.0119   15.4391 H         1 RES1    0.0000
     95 H46        0.9299   10.1456   15.5937 H         1 RES1    0.0000
     96 C37        2.3553   12.2907   14.8843 C.3       1 RES1    0.0000
     97 H47        2.7166   12.5316   15.7417 H         1 RES1    0.0000
     98 H48        1.4087   12.4478   14.8810 H         1 RES1    0.0000
     99 H49        2.7698   12.8227   14.2018 H         1 RES1    0.0000
    100 C38        4.1375    8.7143   10.8329 C.3       1 RES1    0.0000
    101 H50        4.5398    8.9629   11.6802 H         1 RES1    0.0000
    102 H51        4.7914    8.2118   10.3219 H         1 RES1    0.0000
    103 O12        3.7706    9.8622   10.1302 O.3       1 RES1    0.0000
    104 C39        4.3115   10.1598    8.9804 C.2       1 RES1    0.0000
    105 O13        5.1583    9.4679    8.5231 O.2       1 RES1    0.0000
    106 C40        3.7485   11.3772    8.3617 C.3       1 RES1    0.0000
    107 C41        4.5365   11.7328    7.0875 C.3       1 RES1    0.0000
    108 H52        4.1652   12.5251    6.6907 H         1 RES1    0.0000
    109 H53        4.4811   11.0062    6.4621 H         1 RES1    0.0000
    110 H54        5.4565   11.8900    7.3127 H         1 RES1    0.0000
    111 C42        3.9314   12.4929    9.4040 C.3       1 RES1    0.0000
    112 H55        3.5822   13.3175    9.0577 H         1 RES1    0.0000
    113 H56        4.8657   12.5986    9.5990 H         1 RES1    0.0000
    114 H57        3.4614   12.2597   10.2075 H         1 RES1    0.0000
    115 C43        2.2544   11.2355    8.0188 C.3       1 RES1    0.0000
    116 H58        1.9396   12.0498    7.6187 H         1 RES1    0.0000
    117 H59        1.7579   11.0577    8.8190 H         1 RES1    0.0000
    118 H60        2.1358   10.5102    7.4001 H         1 RES1    0.0000
@<TRIPOS>BOND
     1    1    2 1
     2    2    3 1
     3    4    2 1
     4    5    4 1
     5    6    4 1
     6    7    6 1
     7    8    6 1
     8    9    8 1
     9   10    1 1
    10   11   10 1
    11   12    2 1
    12   13   12 1
    13   14   13 1
    14   15   13 1
    15   16   13 1
    16   17   16 1
    17   18   16 1
    18   19   16 1
    19   20   19 ar
    20   21   12 1
    21   22   21 1
    22   23   19 ar
    23   24   23 1
    24   25   23 ar
    25   26   25 ar
    26   27   20 ar
    27   28   27 1
    28   29   21 1
    29   30   29 ar
    30   31   30 1
    31   32   30 ar
    32   33   32 1
    33   34   32 ar
    34   35   34 ar
    35   36   35 1
    36   37   29 ar
    37   38   37 1
    38   39   26 1
    39   40   39 1
    40   41   40 1
    41   42   40 1
    42   43   40 1
    43   44   25 1
    44   45   44 1
    45   46   45 1
    46   47   45 1
    47   48   45 1
    48   49   34 1
    49   50   49 2
    50   51   49 2
    51   52    4 1
    52   53   52 1
    53   54   53 2
    54   55   53 1
    55   56   55 1
    56   57   56 1
    57   58   56 1
    58   59   56 1
    59   60   55 1
    60   61   60 1
    61   62   60 1
    62   63   60 1
    63   64   55 1
    64   65   64 1
    65   66   64 1
    66   67   64 1
    67   68    6 1
    68   69   68 1
    69   70   69 2
    70   71   69 1
    71   72   71 1
    72   73   72 1
    73   74   72 1
    74   75   72 1
    75   76   71 1
    76   77   76 1
    77   78   76 1
    78   79   76 1
    79   80   71 1
    80   81   80 1
    81   82   80 1
    82   83   80 1
    83   84    8 1
    84   85   84 1
    85   86   85 2
    86   87   85 1
    87   88   87 1
    88   89   88 1
    89   90   88 1
    90   91   88 1
    91   92   87 1
    92   93   92 1
    93   94   92 1
    94   95   92 1
    95   96   87 1
    96   97   96 1
    97   98   96 1
    98   99   96 1
    99  100   10 1
   100  101  100 1
   101  102  100 1
   102  103  100 1
   103  104  103 1
   104  105  104 2
   105  106  104 1
   106  107  106 1
   107  108  107 1
   108  109  107 1
   109  110  107 1
   110  111  106 1
   111  112  111 1
   112  113  111 1
   113  114  111 1
   114  115  106 1
   115  116  115 1
   116  117  115 1
   117  118  115 1
   118    8   10 1
   119   20   21 1
   120   26   27 ar
   121   35   37 ar
@<TRIPOS>SUBSTRUCTURE
     1 RES1 1

@<TRIPOS>CRYSIN
  11.0836   12.8833   33.6217  90.0000  90.0000  90.0000  19 1

