# MOL2 file generated by ConQuest
# Please check atom types

@<TRIPOS>MOLECULE
ABUTOG
   153   129     2
SMALL
NO_CHARGES
****
Generated from CSD

@<TRIPOS>ATOM
      1 O1         8.3005    3.6448   11.3006 O.3       1 RES1    0.0000
      2 C1         9.4778    2.8992   11.5976 C.3       1 RES1    0.0000
      3 H1         9.4202    2.5666   12.5182 H         1 RES1    0.0000
      4 C2         9.6230    1.7176   10.6561 C.3       1 RES1    0.0000
      5 H2        10.3894    1.1661   10.9209 H         1 RES1    0.0000
      6 C3         8.3469    0.8986   10.7032 C.3       1 RES1    0.0000
      7 H3         8.2673    0.4875   11.5896 H         1 RES1    0.0000
      8 C4         7.1215    1.7568   10.4496 C.3       1 RES1    0.0000
      9 H4         7.1531    2.1411    9.5480 H         1 RES1    0.0000
     10 C5         7.0958    2.8723   11.5080 C.3       1 RES1    0.0000
     11 H5         7.1410    2.4592   12.3956 H         1 RES1    0.0000
     12 N1         5.9336    3.6826   11.4478 N.3       1 RES1    0.0000
     13 C6         5.7938    4.5124   10.2382 C.3       1 RES1    0.0000
     14 H6         6.3306    4.1251    9.5303 H         1 RES1    0.0000
     15 H7         6.1448    5.3976   10.4249 H         1 RES1    0.0000
     16 C7         4.3798    4.6498    9.7503 C.3       1 RES1    0.0000
     17 H8         4.3638    5.2013    8.9649 H         1 RES1    0.0000
     18 H9         3.8416    5.0526   10.4367 H         1 RES1    0.0000
     19 H10        4.0285    3.7812    9.5392 H         1 RES1    0.0000
     20 C8         5.5001    4.3968   12.6665 C.3       1 RES1    0.0000
     21 H11        4.7439    4.9266   12.3395 H         1 RES1    0.0000
     22 C9         6.4738    5.4823   13.1575 C.ar      1 RES1    0.0000
     23 C10        7.7182    5.2127   13.7260 C.ar      1 RES1    0.0000
     24 H12        7.9805    4.3307   13.8615 H         1 RES1    0.0000
     25 C11        8.5664    6.2404   14.0909 C.ar      1 RES1    0.0000
     26 H13        9.3951    6.0565   14.4726 H         1 RES1    0.0000
     27 C12        8.1654    7.5428   13.8814 C.ar      1 RES1    0.0000
     28 C13        6.9306    7.8485   13.3379 C.ar      1 RES1    0.0000
     29 H14        6.6654    8.7305   13.2120 H         1 RES1    0.0000
     30 C14        6.1070    6.8033   12.9899 C.ar      1 RES1    0.0000
     31 H15        5.2717    6.9933   12.6289 H         1 RES1    0.0000
     32 N2         9.0624    8.6376   14.2674 N.pl3     1 RES1    0.0000
     33 O2        10.1617    8.3515   14.6885 O.2       1 RES1    0.0000
     34 O3         8.6672    9.7861   14.1302 O.2       1 RES1    0.0000
     35 C15        4.8294    3.4972   13.7707 C.3       1 RES1    0.0000
     36 C16        4.2257    4.4319   14.8240 C.3       1 RES1    0.0000
     37 H16        3.6905    5.1084   14.3796 H         1 RES1    0.0000
     38 H17        4.9423    4.8832   15.2964 H         1 RES1    0.0000
     39 C17        3.3496    3.6841   15.8381 C.3       1 RES1    0.0000
     40 H18        3.8911    3.0468   16.3282 H         1 RES1    0.0000
     41 H19        2.9773    4.3152   16.4729 H         1 RES1    0.0000
     42 C18        2.2252    2.9549   15.1295 C.3       1 RES1    0.0000
     43 H20        1.7089    2.4519   15.7791 H         1 RES1    0.0000
     44 H21        1.6359    3.6015   14.7118 H         1 RES1    0.0000
     45 C19        2.7580    2.0171   14.0829 C.3       1 RES1    0.0000
     46 H22        2.0139    1.6246   13.6002 H         1 RES1    0.0000
     47 H23        3.2452    1.2993   14.5169 H         1 RES1    0.0000
     48 C20        3.6867    2.7298   13.0880 C.3       1 RES1    0.0000
     49 H24        4.0661    2.0708   12.4842 H         1 RES1    0.0000
     50 H25        3.1640    3.3495   12.5565 H         1 RES1    0.0000
     51 C21        5.7420    2.4809   14.4136 C.2       1 RES1    0.0000
     52 O4         5.8253    1.3282   14.0977 O.2       1 RES1    0.0000
     53 O5         6.4234    3.0045   15.4268 O.3       1 RES1    0.0000
     54 C22        7.2838    2.0822   16.1732 C.3       1 RES1    0.0000
     55 H26        6.7942    1.2797   16.4109 H         1 RES1    0.0000
     56 H27        8.0513    1.8281   15.6374 H         1 RES1    0.0000
     57 C23        7.7104    2.7928   17.3704 C.3       1 RES1    0.0000
     58 H28        8.2778    2.2227   17.8959 H         1 RES1    0.0000
     59 H29        6.9406    3.0407   17.8871 H         1 RES1    0.0000
     60 H30        8.1940    3.5829   17.1195 H         1 RES1    0.0000
     61 C24       10.6157    3.8979   11.5040 C.3       1 RES1    0.0000
     62 H31       10.6450    4.2945   10.6198 H         1 RES1    0.0000
     63 H32       10.4963    4.6064   12.1565 H         1 RES1    0.0000
     64 O6        11.8364    3.1667   11.7708 O.3       1 RES1    0.0000
     65 C25       12.9351    3.6376   11.2457 C.2       1 RES1    0.0000
     66 O7        12.9590    4.8440   10.9120 O.2       1 RES1    0.0000
     67 O8        12.8347    4.1623   10.1134 Du        2 SUP2    0.0000
     68 C26       14.1741    2.7959   11.5099 C.3       1 RES1    0.0000
     69 C27       14.8170    3.3484   12.6303 C.3       1 RES1    0.0000
     70 H33       14.1960    3.4042   13.3611 H         1 RES1    0.0000
     71 H34       15.1366    4.2274   12.4133 H         1 RES1    0.0000
     72 H35       15.5575    2.7907   12.8813 H         1 RES1    0.0000
     73 C28       13.8183    1.3788   11.9971 C.3       1 RES1    0.0000
     74 H36       13.4047    0.8893   11.2811 H         1 RES1    0.0000
     75 H37       13.2107    1.4377   12.7381 H         1 RES1    0.0000
     76 H38       14.6186    0.9264   12.2731 H         1 RES1    0.0000
     77 C29       14.9495    2.7256   10.3378 C.3       1 RES1    0.0000
     78 H39       14.4111    2.3879    9.6189 H         1 RES1    0.0000
     79 H40       15.6956    2.1390   10.4825 H         1 RES1    0.0000
     80 H41       15.2704    3.6025   10.1134 H         1 RES1    0.0000
     81 O9         9.8106    2.2197    9.3206 O.3       1 RES1    0.0000
     82 C30       10.8041    1.6918    8.5856 C.2       1 RES1    0.0000
     83 O10       11.4930    0.8077    8.9770 O.2       1 RES1    0.0000
     84 C31       10.9064    2.3559    7.2171 C.3       1 RES1    0.0000
     85 C32        9.9028    1.6928    6.2930 C.3       1 RES1    0.0000
     86 H42        9.9586    2.0904    5.4221 H         1 RES1    0.0000
     87 H43        9.0163    1.8136    6.6444 H         1 RES1    0.0000
     88 H44       10.0962    0.7550    6.2310 H         1 RES1    0.0000
     89 C33       12.3086    2.2516    6.6547 C.3       1 RES1    0.0000
     90 H45       12.3421    2.6709    5.7926 H         1 RES1    0.0000
     91 H46       12.5483    1.3231    6.5661 H         1 RES1    0.0000
     92 H47       12.9259    2.6843    7.2481 H         1 RES1    0.0000
     93 C34       10.5135    3.8576    7.2201 C.3       1 RES1    0.0000
     94 H48       10.6062    4.2160    6.3344 H         1 RES1    0.0000
     95 H49       11.0865    4.3379    7.8224 H         1 RES1    0.0000
     96 H50        9.6006    3.9485    7.5079 H         1 RES1    0.0000
     97 C35       11.6395    3.6810    7.4917 Du        2 SUP2    0.0000
     98 H51       11.7561    4.1592    6.6680 Du        2 SUP2    0.0000
     99 H52       12.4986    3.4961    7.8785 Du        2 SUP2    0.0000
    100 H53       11.1225    4.2119    8.1014 Du        2 SUP2    0.0000
    101 C36       11.8449    1.4284    6.4082 Du        2 SUP2    0.0000
    102 H54       11.9649    1.7847    5.5254 Du        2 SUP2    0.0000
    103 H55       11.4560    0.5526    6.3506 Du        2 SUP2    0.0000
    104 H56       12.6959    1.3716    6.8496 Du        2 SUP2    0.0000
    105 C37        9.5488    2.3445    6.6340 Du        2 SUP2    0.0000
    106 H57        9.5721    2.7494    5.7616 Du        2 SUP2    0.0000
    107 H58        8.9558    2.8465    7.1994 Du        2 SUP2    0.0000
    108 H59        9.2363    1.4429    6.5617 Du        2 SUP2    0.0000
    109 O11        8.3754   -0.1406    9.7113 O.3       1 RES1    0.0000
    110 C38        8.9485   -1.2962   10.0677 C.2       1 RES1    0.0000
    111 O12        9.4518   -1.4522   11.1493 O.2       1 RES1    0.0000
    112 C39        8.9038   -2.3363    8.9797 C.3       1 RES1    0.0000
    113 C40        7.3315   -2.5397    8.6564 C.3       1 RES1    0.0000
    114 H60        6.8736   -2.8093    9.4550 H         1 RES1    0.0000
    115 H61        7.2290   -3.2173    7.9833 H         1 RES1    0.0000
    116 H62        6.9612   -1.7135    8.3376 H         1 RES1    0.0000
    117 C41        9.2884   -3.6893    9.6765 C.3       1 RES1    0.0000
    118 H63        8.7742   -3.7915   10.4825 H         1 RES1    0.0000
    119 H64       10.2233   -3.6851    9.8920 H         1 RES1    0.0000
    120 H65        9.0991   -4.4195    9.0830 H         1 RES1    0.0000
    121 C42        9.5891   -1.9582    7.8002 C.3       1 RES1    0.0000
    122 H66        9.5217   -2.6626    7.1507 H         1 RES1    0.0000
    123 H67       10.5127   -1.7992    8.0039 H         1 RES1    0.0000
    124 H68        9.1966   -1.1568    7.4445 H         1 RES1    0.0000
    125 C43        8.1728   -3.5023    9.2026 Du        2 SUP2    0.0000
    126 H69        8.2117   -4.0590    8.4217 Du        2 SUP2    0.0000
    127 H70        7.2590   -3.2761    9.3886 Du        2 SUP2    0.0000
    128 H71        8.5442   -3.9754    9.9510 Du        2 SUP2    0.0000
    129 C44       10.4670   -2.6750    8.7155 Du        2 SUP2    0.0000
    130 H72       10.9282   -1.8725    8.4571 Du        2 SUP2    0.0000
    131 H73       10.5393   -3.3247    8.0128 Du        2 SUP2    0.0000
    132 H74       10.8586   -3.0252    9.5185 Du        2 SUP2    0.0000
    133 C45        8.5226   -1.6742    7.5832 Du        2 SUP2    0.0000
    134 H75        8.9869   -0.8387    7.4873 Du        2 SUP2    0.0000
    135 H76        7.5746   -1.5183    7.5522 Du        2 SUP2    0.0000
    136 H77        8.7735   -2.2640    6.8702 Du        2 SUP2    0.0000
    137 O13        5.9685    0.9083   10.5925 O.3       1 RES1    0.0000
    138 C46        5.1713    0.7581    9.5246 C.2       1 RES1    0.0000
    139 O14        5.5210    1.1568    8.4512 O.2       1 RES1    0.0000
    140 O15        5.1733    1.4873    8.5678 Du        2 SUP2    0.0000
    141 C47        4.0320   -0.2262    9.7754 C.3       1 RES1    0.0000
    142 C48        4.2421   -1.0576   11.0169 C.3       1 RES1    0.0000
    143 H78        3.4967   -1.6484   11.1364 H         1 RES1    0.0000
    144 H79        4.3189   -0.4803   11.7786 H         1 RES1    0.0000
    145 H80        5.0472   -1.5720   10.9224 H         1 RES1    0.0000
    146 C49        2.7406    0.6073    9.9658 C.3       1 RES1    0.0000
    147 H81        2.5856    1.1392    9.1819 H         1 RES1    0.0000
    148 H82        2.8411    1.1816   10.7275 H         1 RES1    0.0000
    149 H83        1.9958    0.0165   10.1046 H         1 RES1    0.0000
    150 C50        3.8652   -1.0597    8.5236 C.3       1 RES1    0.0000
    151 H84        3.7236   -0.4813    7.7707 H         1 RES1    0.0000
    152 H85        3.1098   -1.6422    8.6239 H         1 RES1    0.0000
    153 H86        4.6573   -1.5833    8.3804 H         1 RES1    0.0000
@<TRIPOS>BOND
     1    1    2 1
     2    2    3 1
     3    4    2 1
     4    5    4 1
     5    6    4 1
     6    7    6 1
     7    8    6 1
     8    9    8 1
     9   10    1 1
    10   11   10 1
    11   12   10 1
    12   13   12 1
    13   14   13 1
    14   15   13 1
    15   16   13 1
    16   17   16 1
    17   18   16 1
    18   19   16 1
    19   20   12 1
    20   21   20 1
    21   22   20 1
    22   23   22 ar
    23   24   23 1
    24   25   23 ar
    25   26   25 1
    26   27   25 ar
    27   28   27 ar
    28   29   28 1
    29   30   22 ar
    30   31   30 1
    31   32   27 1
    32   33   32 2
    33   34   32 2
    34   35   20 1
    35   36   35 1
    36   37   36 1
    37   38   36 1
    38   39   36 1
    39   40   39 1
    40   41   39 1
    41   42   39 1
    42   43   42 1
    43   44   42 1
    44   45   42 1
    45   46   45 1
    46   47   45 1
    47   48   35 1
    48   49   48 1
    49   50   48 1
    50   51   35 1
    51   52   51 2
    52   53   51 1
    53   54   53 1
    54   55   54 1
    55   56   54 1
    56   57   54 1
    57   58   57 1
    58   59   57 1
    59   60   57 1
    60   61    2 1
    61   62   61 1
    62   63   61 1
    63   64   61 1
    64   65   64 1
    65   66   65 2
    66   68   65 1
    67   69   68 1
    68   70   69 1
    69   71   69 1
    70   72   69 1
    71   73   68 1
    72   74   73 1
    73   75   73 1
    74   76   73 1
    75   77   68 1
    76   78   77 1
    77   79   77 1
    78   80   77 1
    79   81    4 1
    80   82   81 1
    81   83   82 2
    82   84   82 1
    83   85   84 1
    84   86   85 1
    85   87   85 1
    86   88   85 1
    87   89   84 1
    88   90   89 1
    89   91   89 1
    90   92   89 1
    91   93   84 1
    92   94   93 1
    93   95   93 1
    94   96   93 1
    95  109    6 1
    96  110  109 1
    97  111  110 2
    98  112  110 1
    99  113  112 1
   100  114  113 1
   101  115  113 1
   102  116  113 1
   103  117  112 1
   104  118  117 1
   105  119  117 1
   106  120  117 1
   107  121  112 1
   108  122  121 1
   109  123  121 1
   110  124  121 1
   111  137    8 1
   112  138  137 1
   113  139  138 2
   114  141  138 1
   115  142  141 1
   116  143  142 1
   117  144  142 1
   118  145  142 1
   119  146  141 1
   120  147  146 1
   121  148  146 1
   122  149  146 1
   123  150  141 1
   124  151  150 1
   125  152  150 1
   126  153  150 1
   127    8   10 1
   128   28   30 ar
   129   45   48 1
@<TRIPOS>SUBSTRUCTURE
     1 RES1 1
     2 SUP2 67

@<TRIPOS>CRYSIN
  15.7340   10.3283   15.7830  90.0000 110.7220  90.0000   4 1

