# MOL2 file generated by ConQuest
# Please check atom types

@<TRIPOS>MOLECULE
ACAGAO
   104   110     2
SMALL
NO_CHARGES
****
Generated from CSD

@<TRIPOS>ATOM
      1 O1        13.3414    7.8299    8.3045 O.2       1 RES1    0.0000
      2 O2         9.5149    5.9985    7.0372 O.3       1 RES1    0.0000
      3 O3        11.3463    4.2722   11.0223 O.2       1 RES1    0.0000
      4 O4        13.1877    5.2283   10.1853 O.3       1 RES1    0.0000
      5 O5        11.8369    7.5848   11.1527 O.2       1 RES1    0.0000
      6 O6        10.6344    8.4292    9.4668 O.3       1 RES1    0.0000
      7 O7         3.1300    5.5156    8.2257 O.2       2 RES2    0.0000
      8 O8        -0.4599    7.3284    6.4516 O.3       2 RES2    0.0000
      9 O9         0.7156    9.2243   10.4915 O.2       2 RES2    0.0000
     10 O10        2.6433    8.1310   10.1965 O.3       2 RES2    0.0000
     11 O11        1.2794    5.7886   10.8658 O.2       2 RES2    0.0000
     12 O12        0.3047    4.9090    9.0638 O.3       2 RES2    0.0000
     13 N1        13.9824    5.8072    7.4363 N.am      1 RES1    0.0000
     14 N2        10.7614    6.7474    7.0443 N.3       1 RES1    0.0000
     15 N3         3.9053    7.5946    7.6288 N.am      2 RES2    0.0000
     16 N4         0.7906    6.6031    6.6428 N.3       2 RES2    0.0000
     17 C1        13.3824    4.5652    7.1850 C.ar      1 RES1    0.0000
     18 C2        13.9884    3.4250    6.7038 C.ar      1 RES1    0.0000
     19 H1        14.9162    3.4047    6.5064 H         1 RES1    0.0000
     20 C3        13.1869    2.3087    6.5211 C.ar      1 RES1    0.0000
     21 H2        13.5788    1.5058    6.1969 H         1 RES1    0.0000
     22 C4        11.8261    2.3362    6.7988 C.ar      1 RES1    0.0000
     23 H3        11.2964    1.5598    6.6579 H         1 RES1    0.0000
     24 C5        11.2408    3.4967    7.2811 C.ar      1 RES1    0.0000
     25 H4        10.3095    3.5224    7.4701 H         1 RES1    0.0000
     26 C6        12.0196    4.6113    7.4833 C.ar      1 RES1    0.0000
     27 C7        11.6915    6.0117    7.9568 C.3       1 RES1    0.0000
     28 C8        13.0901    6.7005    7.9293 C.2       1 RES1    0.0000
     29 C9        15.4176    6.0011    7.5193 C.3       1 RES1    0.0000
     30 H5        15.6066    6.9173    7.8104 H         1 RES1    0.0000
     31 H6        15.8202    5.8480    6.6381 H         1 RES1    0.0000
     32 H7        15.7964    5.3682    8.1660 H         1 RES1    0.0000
     33 C10       11.2164    6.7837    5.6773 C.ar      1 RES1    0.0000
     34 C11       12.0224    7.8424    5.3336 C.ar      1 RES1    0.0000
     35 H8        12.2690    8.4834    5.9906 H         1 RES1    0.0000
     36 C12       12.4770    7.9761    4.0321 C.ar      1 RES1    0.0000
     37 H9        13.0406    8.7038    3.7998 H         1 RES1    0.0000
     38 C13       12.1087    7.0439    3.0625 C.ar      1 RES1    0.0000
     39 H10       12.4069    7.1351    2.1644 H         1 RES1    0.0000
     40 C14       11.2976    5.9816    3.4330 C.ar      1 RES1    0.0000
     41 H11       11.0451    5.3416    2.7769 H         1 RES1    0.0000
     42 C15       10.8442    5.8294    4.7413 C.ar      1 RES1    0.0000
     43 H12       10.2961    5.0928    4.9852 H         1 RES1    0.0000
     44 C16        8.8475    6.2941    8.2540 C.3       1 RES1    0.0000
     45 H13        7.9270    5.9303    8.2274 H         1 RES1    0.0000
     46 H14        8.7893    7.2750    8.3745 H         1 RES1    0.0000
     47 C17        9.6126    5.6753    9.4196 C.3       1 RES1    0.0000
     48 H15        9.5406    4.6901    9.3689 H         1 RES1    0.0000
     49 H16        9.1986    5.9666   10.2711 H         1 RES1    0.0000
     50 C18       11.1101    6.0755    9.4216 C.3       1 RES1    0.0000
     51 C19       11.8656    5.0787   10.3104 C.2       1 RES1    0.0000
     52 C20       14.0064    4.3306   10.9683 C.3       1 RES1    0.0000
     53 H17       13.8742    4.5157   11.9219 H         1 RES1    0.0000
     54 H18       14.9497    4.4634   10.7365 H         1 RES1    0.0000
     55 H19       13.7500    3.4038   10.7782 H         1 RES1    0.0000
     56 C21       11.2694    7.4476   10.1025 C.2       1 RES1    0.0000
     57 C22       10.8190    9.7378   10.0551 C.3       1 RES1    0.0000
     58 H20       10.5173    9.7227   10.9867 H         1 RES1    0.0000
     59 H21       10.2966   10.3981    9.5533 H         1 RES1    0.0000
     60 H22       11.7678    9.9794   10.0231 H         1 RES1    0.0000
     61 C23        3.3447    8.8516    7.3426 C.ar      2 RES2    0.0000
     62 C24        4.0146   10.0396    7.1454 C.ar      2 RES2    0.0000
     63 H23        4.9623   10.0821    7.1716 H         2 RES2    0.0000
     64 C25        3.2451   11.1745    6.9055 C.ar      2 RES2    0.0000
     65 H24        3.6772   12.0128    6.7940 H         2 RES2    0.0000
     66 C26        1.8671   11.1063    6.8274 C.ar      2 RES2    0.0000
     67 H25        1.3676   11.8898    6.6294 H         2 RES2    0.0000
     68 C27        1.1989    9.8944    7.0379 C.ar      2 RES2    0.0000
     69 H26        0.2519    9.8493    6.9872 H         2 RES2    0.0000
     70 C28        1.9457    8.7640    7.3202 C.ar      2 RES2    0.0000
     71 C29        1.5567    7.3440    7.6817 C.3       2 RES2    0.0000
     72 C30        2.9426    6.6677    7.8868 C.2       2 RES2    0.0000
     73 C31        5.3100    7.4087    7.9620 C.3       2 RES2    0.0000
     74 H27        5.5448    7.9823    8.7213 H         2 RES2    0.0000
     75 H28        5.8640    7.6468    7.1891 H         2 RES2    0.0000
     76 H29        5.4681    6.4712    8.2011 H         2 RES2    0.0000
     77 C32        1.4152    6.5730    5.3360 C.ar      2 RES2    0.0000
     78 C33        1.1011    7.4795    4.3326 C.ar      2 RES2    0.0000
     79 H30        0.4990    8.1948    4.5045 H         2 RES2    0.0000
     80 C34        1.6762    7.3316    3.0734 C.ar      2 RES2    0.0000
     81 H31        1.4449    7.9389    2.3795 H         2 RES2    0.0000
     82 C35        2.5794    6.3145    2.8135 C.ar      2 RES2    0.0000
     83 H32        2.9687    6.2233    1.9515 H         2 RES2    0.0000
     84 C36        2.9083    5.4310    3.8312 C.ar      2 RES2    0.0000
     85 H33        3.5389    4.7387    3.6681 H         2 RES2    0.0000
     86 C37        2.3264    5.5487    5.0827 C.ar      2 RES2    0.0000
     87 H34        2.5487    4.9308    5.7689 H         2 RES2    0.0000
     88 C38       -1.2996    6.9952    7.5570 C.3       2 RES2    0.0000
     89 H35       -1.3378    6.0117    7.6655 H         2 RES2    0.0000
     90 H36       -2.2175    7.3254    7.3911 H         2 RES2    0.0000
     91 C39       -0.7473    7.6255    8.8076 C.3       2 RES2    0.0000
     92 H37       -1.2781    7.3201    9.5862 H         2 RES2    0.0000
     93 H38       -0.8422    8.6091    8.7433 H         2 RES2    0.0000
     94 C40        0.7476    7.2759    9.0449 C.3       2 RES2    0.0000
     95 C41        1.3391    8.3214   10.0163 C.2       2 RES2    0.0000
     96 C42        3.3126    9.1216   11.0133 C.3       2 RES2    0.0000
     97 H39        3.3195    9.9821   10.5433 H         2 RES2    0.0000
     98 H40        4.2345    8.8366   11.1843 H         2 RES2    0.0000
     99 H41        2.8385    9.2181   11.8648 H         2 RES2    0.0000
    100 C43        0.8382    5.9135    9.7629 C.2       2 RES2    0.0000
    101 C44        0.4352    3.6109    9.7050 C.3       2 RES2    0.0000
    102 H42        1.3844    3.3790    9.7816 H         2 RES2    0.0000
    103 H43       -0.0238    2.9328    9.1670 H         2 RES2    0.0000
    104 H44        0.0334    3.6455   10.5982 H         2 RES2    0.0000
@<TRIPOS>BOND
     1    1   28 2
     2    2   14 1
     3    3   51 2
     4    4   51 1
     5    5   56 2
     6    6   56 1
     7    7   72 2
     8    8   16 1
     9    9   95 2
    10   10   95 1
    11   11  100 2
    12   12  100 1
    13   13   17 1
    14   14   27 1
    15   15   61 1
    16   16   71 1
    17   17   18 ar
    18   18   19 1
    19   20   18 ar
    20   21   20 1
    21   22   20 ar
    22   23   22 1
    23   24   22 ar
    24   25   24 1
    25   26   17 ar
    26   27   26 1
    27   28   13 1
    28   29   13 1
    29   30   29 1
    30   31   29 1
    31   32   29 1
    32   33   14 1
    33   34   33 ar
    34   35   34 1
    35   36   34 ar
    36   37   36 1
    37   38   36 ar
    38   39   38 1
    39   40   38 ar
    40   41   40 1
    41   42   33 ar
    42   43   42 1
    43   44    2 1
    44   45   44 1
    45   46   44 1
    46   47   44 1
    47   48   47 1
    48   49   47 1
    49   50   27 1
    50   51   50 1
    51   52    4 1
    52   53   52 1
    53   54   52 1
    54   55   52 1
    55   56   50 1
    56   57    6 1
    57   58   57 1
    58   59   57 1
    59   60   57 1
    60   61   62 ar
    61   62   63 1
    62   64   62 ar
    63   65   64 1
    64   66   64 ar
    65   67   66 1
    66   68   66 ar
    67   69   68 1
    68   70   61 ar
    69   71   70 1
    70   72   15 1
    71   73   15 1
    72   74   73 1
    73   75   73 1
    74   76   73 1
    75   77   16 1
    76   78   77 ar
    77   79   78 1
    78   80   78 ar
    79   81   80 1
    80   82   80 ar
    81   83   82 1
    82   84   82 ar
    83   85   84 1
    84   86   77 ar
    85   87   86 1
    86   88    8 1
    87   89   88 1
    88   90   88 1
    89   91   88 1
    90   92   91 1
    91   93   91 1
    92   94   71 1
    93   95   94 1
    94   96   10 1
    95   97   96 1
    96   98   96 1
    97   99   96 1
    98  100   94 1
    99  101   12 1
   100  102  101 1
   101  103  101 1
   102  104  101 1
   103   24   26 ar
   104   27   28 1
   105   40   42 ar
   106   47   50 1
   107   68   70 ar
   108   71   72 1
   109   84   86 ar
   110   91   94 1
@<TRIPOS>SUBSTRUCTURE
     1 RES1 1
     2 RES2 7

@<TRIPOS>CRYSIN
  20.2060    8.8525   22.0320  90.0000  94.8980  90.0000  14 1

