# MOL2 file generated by ConQuest
# Please check atom types

@<TRIPOS>MOLECULE
ACALAR
    28    29     1
SMALL
NO_CHARGES
****
Generated from CSD

@<TRIPOS>ATOM
      1 O1         0.9211    0.3678    6.3053 O.2       1 RES1    0.0000
      2 O2         2.4361   -2.3552    0.1479 O.2       1 RES1    0.0000
      3 O3         4.0330   -0.9557   -0.0408 O.2       1 RES1    0.0000
      4 N1         3.1221    0.7716    6.6784 N.am      1 RES1    0.0000
      5 H1         3.9035    0.7509    6.3196 H         1 RES1    0.0000
      6 N2         3.1358   -1.4684    0.5891 N.pl3     1 RES1    0.0000
      7 C1         3.0433    1.2218    8.0270 C.ar      1 RES1    0.0000
      8 C2         4.0478    0.8516    8.9018 C.ar      1 RES1    0.0000
      9 H2         4.7469    0.3154    8.6060 H         1 RES1    0.0000
     10 C3         4.0141    1.2741   10.2075 C.ar      1 RES1    0.0000
     11 H3         4.6974    1.0291   10.7890 H         1 RES1    0.0000
     12 C4         2.9650    2.0665   10.6717 C.ar      1 RES1    0.0000
     13 H4         2.9291    2.3329   11.5617 H         1 RES1    0.0000
     14 C5         1.9859    2.4470    9.7855 C.ar      1 RES1    0.0000
     15 H5         1.2932    2.9924   10.0813 H         1 RES1    0.0000
     16 C6         2.0062    2.0390    8.4682 C.ar      1 RES1    0.0000
     17 H6         1.3357    2.3061    7.8817 H         1 RES1    0.0000
     18 C7         2.0834    0.3721    5.9077 C.2       1 RES1    0.0000
     19 C8         2.4109   -0.0966    4.5166 C.ar      1 RES1    0.0000
     20 C9         3.4861    0.4028    3.7783 C.ar      1 RES1    0.0000
     21 H7         4.0466    1.0391    4.1595 H         1 RES1    0.0000
     22 C10        3.7282   -0.0310    2.4993 C.ar      1 RES1    0.0000
     23 H8         4.4426    0.3056    2.0071 H         1 RES1    0.0000
     24 C11        2.8811   -0.9817    1.9612 C.ar      1 RES1    0.0000
     25 C12        1.8076   -1.5043    2.6587 C.ar      1 RES1    0.0000
     26 H9         1.2573   -2.1510    2.2787 H         1 RES1    0.0000
     27 C13        1.5780   -1.0376    3.9338 C.ar      1 RES1    0.0000
     28 H10        0.8497   -1.3609    4.4120 H         1 RES1    0.0000
@<TRIPOS>BOND
     1    1   18 2
     2    2    6 2
     3    3    6 2
     4    4    5 1
     5    6   24 1
     6    7    4 1
     7    8    7 ar
     8    9    8 1
     9   10    8 ar
    10   11   10 1
    11   12   10 ar
    12   13   12 1
    13   14   12 ar
    14   15   14 1
    15   16    7 ar
    16   17   16 1
    17   18    4 1
    18   19   18 1
    19   20   19 ar
    20   21   20 1
    21   22   20 ar
    22   23   22 1
    23   24   22 ar
    24   25   24 ar
    25   26   25 1
    26   27   19 ar
    27   28   27 1
    28   14   16 ar
    29   25   27 ar
@<TRIPOS>SUBSTRUCTURE
     1 RES1 1

@<TRIPOS>CRYSIN
   5.2180    8.4120   13.2490 102.6100  98.6400  92.8700   2 1

