# MOL2 file generated by ConQuest
# Please check atom types

@<TRIPOS>MOLECULE
ACALUL
    40    41     1
SMALL
NO_CHARGES
****
Generated from CSD

@<TRIPOS>ATOM
      1 O1         0.2141   -4.1291   -1.2865 O.2       1 RES1    0.0000
      2 O2        -3.2671   -7.2293   -7.0470 O.2       1 RES1    0.0000
      3 O3        -1.3867   -8.1533   -6.5902 O.2       1 RES1    0.0000
      4 N1        -2.0162   -4.3427   -1.6317 N.am      1 RES1    0.0000
      5 H1        -2.7832   -4.1420   -1.2990 H         1 RES1    0.0000
      6 N2        -2.2919   -7.3880   -6.3324 N.pl3     1 RES1    0.0000
      7 C1        -2.0382   -5.1317   -2.7970 C.ar      1 RES1    0.0000
      8 C2        -3.1590   -5.0335   -3.5955 C.ar      1 RES1    0.0000
      9 H2        -3.8571   -4.4677   -3.3564 H         1 RES1    0.0000
     10 C3        -3.2378   -5.7834   -4.7531 C.ar      1 RES1    0.0000
     11 H3        -3.9863   -5.7179   -5.3025 H         1 RES1    0.0000
     12 C4        -2.2211   -6.6144   -5.0872 C.ar      1 RES1    0.0000
     13 C5        -1.0982   -6.7338   -4.2975 C.ar      1 RES1    0.0000
     14 H4        -0.4065   -7.3060   -4.5403 H         1 RES1    0.0000
     15 C6        -1.0213   -5.9902   -3.1437 C.ar      1 RES1    0.0000
     16 H5        -0.2758   -6.0684   -2.5930 H         1 RES1    0.0000
     17 C7        -0.9391   -3.8592   -0.9674 C.2       1 RES1    0.0000
     18 C8        -1.2523   -2.9369    0.1577 C.ar      1 RES1    0.0000
     19 C9        -2.4086   -2.9919    0.8898 C.ar      1 RES1    0.0000
     20 H6        -3.0445   -3.6403    0.6921 H         1 RES1    0.0000
     21 C10       -2.6443   -2.1019    1.9160 C.ar      1 RES1    0.0000
     22 H7        -3.4341   -2.1706    2.4016 H         1 RES1    0.0000
     23 C11       -1.7370   -1.1056    2.2439 C.ar      1 RES1    0.0000
     24 C12       -0.5756   -1.0728    1.5068 C.ar      1 RES1    0.0000
     25 H8         0.0629   -0.4244    1.7007 H         1 RES1    0.0000
     26 C13       -0.3298   -1.9668    0.4918 C.ar      1 RES1    0.0000
     27 H9         0.4719   -1.9168    0.0238 H         1 RES1    0.0000
     28 C14       -2.0481   -0.0493    3.3189 C.3       1 RES1    0.0000
     29 C15       -2.8892   -0.6342    4.4440 C.3       1 RES1    0.0000
     30 H10       -3.6883   -1.0208    4.0785 H         1 RES1    0.0000
     31 H11       -3.1240    0.0603    5.0622 H         1 RES1    0.0000
     32 H12       -2.3858   -1.3126    4.9007 H         1 RES1    0.0000
     33 C16       -2.8417    1.0691    2.6406 C.3       1 RES1    0.0000
     34 H13       -3.6312    0.7019    2.2376 H         1 RES1    0.0000
     35 H14       -2.2994    1.4824    1.9648 H         1 RES1    0.0000
     36 H15       -3.0920    1.7252    3.2951 H         1 RES1    0.0000
     37 C17       -0.7923    0.5274    3.9521 C.3       1 RES1    0.0000
     38 H16       -1.0378    1.1774    4.6154 H         1 RES1    0.0000
     39 H17       -0.2557    0.9471    3.2763 H         1 RES1    0.0000
     40 H18       -0.2896   -0.1780    4.3676 H         1 RES1    0.0000
@<TRIPOS>BOND
     1    1   17 2
     2    2    6 2
     3    3    6 2
     4    4    5 1
     5    6   12 1
     6    7    4 1
     7    8    7 ar
     8    9    8 1
     9   10    8 ar
    10   11   10 1
    11   12   10 ar
    12   13   12 ar
    13   14   13 1
    14   15    7 ar
    15   16   15 1
    16   17    4 1
    17   18   17 1
    18   19   18 ar
    19   20   19 1
    20   21   19 ar
    21   22   21 1
    22   23   21 ar
    23   24   23 ar
    24   25   24 1
    25   26   18 ar
    26   27   26 1
    27   28   23 1
    28   29   28 1
    29   30   29 1
    30   31   29 1
    31   32   29 1
    32   33   28 1
    33   34   33 1
    34   35   33 1
    35   36   33 1
    36   37   28 1
    37   38   37 1
    38   39   37 1
    39   40   37 1
    40   13   15 ar
    41   24   26 ar
@<TRIPOS>SUBSTRUCTURE
     1 RES1 1

@<TRIPOS>CRYSIN
   5.7120   10.5750   12.7980  88.0800  77.9600  85.3200   2 1

