# MOL2 file generated by ConQuest
# Please check atom types

@<TRIPOS>MOLECULE
ACALOF
    92    94     2
SMALL
NO_CHARGES
****
Generated from CSD

@<TRIPOS>ATOM
      1 N1         4.5414    7.2554    4.9146 N.am      1 RES1    0.0000
      2 H1         4.8123    8.0806    4.7717 H         1 RES1    0.0000
      3 N2         9.7247    7.3471    1.0164 N.pl3     1 RES1    0.0000
      4 O1         4.9180    5.0866    4.5700 O.2       1 RES1    0.0000
      5 O2        10.1114    8.4962    0.8664 O.2       1 RES1    0.0000
      6 O3        10.2491    6.3970    0.4619 O.2       1 RES1    0.0000
      7 C1         5.2484    6.2604    4.3935 C.2       1 RES1    0.0000
      8 C2         6.4285    6.6048    3.5271 C.ar      1 RES1    0.0000
      9 C3         7.1304    5.5513    2.9593 C.ar      1 RES1    0.0000
     10 H2         6.8693    4.6568    3.1468 H         1 RES1    0.0000
     11 C4         8.2078    5.7883    2.1212 C.ar      1 RES1    0.0000
     12 H3         8.6793    5.0694    1.7177 H         1 RES1    0.0000
     13 C5         8.5770    7.0983    1.8861 C.ar      1 RES1    0.0000
     14 C6         7.9098    8.1528    2.4378 C.ar      1 RES1    0.0000
     15 H4         8.1881    9.0434    2.2573 H         1 RES1    0.0000
     16 C7         6.8247    7.9158    3.2637 C.ar      1 RES1    0.0000
     17 H5         6.3515    8.6435    3.6489 H         1 RES1    0.0000
     18 C8         3.3595    7.0545    5.6969 C.ar      1 RES1    0.0000
     19 C9         2.1193    7.0691    5.0353 C.ar      1 RES1    0.0000
     20 C10        0.9834    6.9764    5.8359 C.ar      1 RES1    0.0000
     21 H6         0.1258    6.9920    5.4279 H         1 RES1    0.0000
     22 C11        1.0737    6.8633    7.2043 C.ar      1 RES1    0.0000
     23 H7         0.2817    6.8155    7.7287 H         1 RES1    0.0000
     24 C12        2.2968    6.8194    7.8129 C.ar      1 RES1    0.0000
     25 H8         2.3463    6.7257    8.7566 H         1 RES1    0.0000
     26 C13        3.4663    6.9091    7.0756 C.ar      1 RES1    0.0000
     27 C14        4.8194    6.9023    7.7696 C.3       1 RES1    0.0000
     28 H9         5.5153    6.8486    7.0527 H         1 RES1    0.0000
     29 C15        5.0565    8.1938    8.5214 C.3       1 RES1    0.0000
     30 H10        4.9377    8.9527    7.9126 H         1 RES1    0.0000
     31 H11        5.9680    8.2006    8.8791 H         1 RES1    0.0000
     32 H12        4.4144    8.2640    9.2587 H         1 RES1    0.0000
     33 C16        5.0057    5.6927    8.6597 C.3       1 RES1    0.0000
     34 H13        4.8575    4.8773    8.1359 H         1 RES1    0.0000
     35 H14        4.3616    5.7288    9.3970 H         1 RES1    0.0000
     36 H15        5.9172    5.6888    9.0195 H         1 RES1    0.0000
     37 C17        2.0040    7.1900    3.5246 C.3       1 RES1    0.0000
     38 H16        2.9300    7.1510    3.1508 H         1 RES1    0.0000
     39 C18        1.4098    8.5147    3.1152 C.3       1 RES1    0.0000
     40 H17        1.3567    8.5605    2.1368 H         1 RES1    0.0000
     41 H18        1.9759    9.2424    3.4453 H         1 RES1    0.0000
     42 H19        0.5109    8.6015    3.4967 H         1 RES1    0.0000
     43 C19        1.2306    6.0283    2.9343 C.3       1 RES1    0.0000
     44 H20        1.1813    6.1307    1.9608 H         1 RES1    0.0000
     45 H21        0.3259    6.0146    3.3089 H         1 RES1    0.0000
     46 H22        1.6880    5.1884    3.1508 H         1 RES1    0.0000
     47 N3        14.4386    2.6347    4.5934 N.am      2 RES2    0.0000
     48 H23       14.4403    1.8338    4.9575 H         2 RES2    0.0000
     49 N4        10.6108    2.5274    9.8438 N.pl3     2 RES2    0.0000
     50 O4        13.7897    4.7837    4.7796 O.2       2 RES2    0.0000
     51 O5        10.4021    1.3773   10.1719 O.2       2 RES2    0.0000
     52 O6        10.1605    3.4794   10.4482 O.2       2 RES2    0.0000
     53 C20       13.7797    3.6218    5.2144 C.2       2 RES2    0.0000
     54 C21       12.9908    3.2765    6.4459 C.ar      2 RES2    0.0000
     55 C22       12.8374    1.9772    6.9179 C.ar      2 RES2    0.0000
     56 H24       13.2651    1.2544    6.4755 H         2 RES2    0.0000
     57 C23       12.0537    1.7441    8.0414 C.ar      2 RES2    0.0000
     58 H25       11.9492    0.8613    8.3771 H         2 RES2    0.0000
     59 C24       11.4371    2.7878    8.6560 C.ar      2 RES2    0.0000
     60 C25       11.5836    4.0920    8.2126 C.ar      2 RES2    0.0000
     61 H26       11.1602    4.8119    8.6657 H         2 RES2    0.0000
     62 C26       12.3499    4.3105    7.1112 C.ar      2 RES2    0.0000
     63 H27       12.4491    5.1991    6.7878 H         2 RES2    0.0000
     64 C27       15.1410    2.8337    3.3585 C.ar      2 RES2    0.0000
     65 C28       14.4118    2.8747    2.1636 C.ar      2 RES2    0.0000
     66 C29       15.1228    3.0288    0.9804 C.ar      2 RES2    0.0000
     67 H28       14.6540    3.0805    0.1562 H         2 RES2    0.0000
     68 C30       16.4999    3.1078    0.9860 C.ar      2 RES2    0.0000
     69 H29       16.9710    3.2034    0.1660 H         2 RES2    0.0000
     70 C31       17.1910    3.0483    2.1672 C.ar      2 RES2    0.0000
     71 H30       18.1386    3.1058    2.1546 H         2 RES2    0.0000
     72 C32       16.5413    2.9078    3.3749 C.ar      2 RES2    0.0000
     73 C33       17.3063    2.7956    4.6817 C.3       2 RES2    0.0000
     74 H31       16.7974    2.1889    5.2915 H         2 RES2    0.0000
     75 C34       18.7283    2.1899    4.4633 C.3       2 RES2    0.0000
     76 H32       18.6466    1.3120    4.0344 H         2 RES2    0.0000
     77 H33       19.1776    2.0904    5.3291 H         2 RES2    0.0000
     78 H34       19.2522    2.7869    3.8901 H         2 RES2    0.0000
     79 C35       17.4305    4.1457    5.3508 C.3       2 RES2    0.0000
     80 H35       16.5349    4.5134    5.5109 H         2 RES2    0.0000
     81 H36       17.9334    4.7534    4.7697 H         2 RES2    0.0000
     82 H37       17.9010    4.0452    6.2047 H         2 RES2    0.0000
     83 C36       12.9032    2.7186    2.1200 C.3       2 RES2    0.0000
     84 H38       12.5925    2.5849    3.0599 H         2 RES2    0.0000
     85 C37       12.2238    3.9759    1.5952 C.3       2 RES2    0.0000
     86 H39       12.5064    4.7475    2.1308 H         2 RES2    0.0000
     87 H40       11.2521    3.8725    1.6584 H         2 RES2    0.0000
     88 H41       12.4776    4.1183    0.6602 H         2 RES2    0.0000
     89 C38       12.4955    1.4827    1.3283 C.3       2 RES2    0.0000
     90 H42       12.9450    0.6945    1.6979 H         2 RES2    0.0000
     91 H43       12.7539    1.5958    0.3894 H         2 RES2    0.0000
     92 H44       11.5245    1.3617    1.3876 H         2 RES2    0.0000
@<TRIPOS>BOND
     1    1    2 1
     2    3    5 2
     3    4    7 2
     4    6    3 2
     5    7    1 1
     6    8    7 1
     7    9    8 ar
     8   10    9 1
     9   11    9 ar
    10   12   11 1
    11   13    3 1
    12   14   13 ar
    13   15   14 1
    14   16    8 ar
    15   17   16 1
    16   18    1 1
    17   19   18 ar
    18   20   19 ar
    19   21   20 1
    20   22   20 ar
    21   23   22 1
    22   24   22 ar
    23   25   24 1
    24   26   18 ar
    25   27   26 1
    26   28   27 1
    27   29   27 1
    28   30   29 1
    29   31   29 1
    30   32   29 1
    31   33   27 1
    32   34   33 1
    33   35   33 1
    34   36   33 1
    35   37   19 1
    36   38   37 1
    37   39   37 1
    38   40   39 1
    39   41   39 1
    40   42   39 1
    41   43   37 1
    42   44   43 1
    43   45   43 1
    44   46   43 1
    45   47   48 1
    46   49   51 2
    47   50   53 2
    48   52   49 2
    49   53   47 1
    50   54   53 1
    51   55   54 ar
    52   56   55 1
    53   57   55 ar
    54   58   57 1
    55   59   49 1
    56   60   59 ar
    57   61   60 1
    58   62   54 ar
    59   63   62 1
    60   64   47 1
    61   65   64 ar
    62   66   65 ar
    63   67   66 1
    64   68   66 ar
    65   69   68 1
    66   70   68 ar
    67   71   70 1
    68   72   64 ar
    69   73   72 1
    70   74   73 1
    71   75   73 1
    72   76   75 1
    73   77   75 1
    74   78   75 1
    75   79   73 1
    76   80   79 1
    77   81   79 1
    78   82   79 1
    79   83   65 1
    80   84   83 1
    81   85   83 1
    82   86   85 1
    83   87   85 1
    84   88   85 1
    85   89   83 1
    86   90   89 1
    87   91   89 1
    88   92   89 1
    89   11   13 ar
    90   14   16 ar
    91   24   26 ar
    92   57   59 ar
    93   60   62 ar
    94   70   72 ar
@<TRIPOS>SUBSTRUCTURE
     1 RES1 1
     2 RES2 47

@<TRIPOS>CRYSIN
  19.1970    9.7545   19.7670  90.0000  90.3740  90.0000 231 1

