# MOL2 file generated by ConQuest
# Please check atom types

@<TRIPOS>MOLECULE
ACALUO
   144   156     2
SMALL
NO_CHARGES
****
Generated from CSD

@<TRIPOS>ATOM
      1 O1         4.0684    8.4309    9.7513 O.2       1 RES1    0.0000
      2 O2         2.4905    7.4371    8.6657 O.2       1 RES1    0.0000
      3 N1        13.1282    4.1147    9.4491 N.ar      1 RES1    0.0000
      4 N2         8.6752   -1.8729   15.8510 N.ar      1 RES1    0.0000
      5 N3         5.8485   -2.6025    4.6690 N.ar      1 RES1    0.0000
      6 N4        -0.1902   -1.6046   12.4281 N.ar      1 RES1    0.0000
      7 N5         5.8144    2.3923   10.3565 N.pl3     1 RES1    0.0000
      8 N6         3.5226    7.4046    9.3270 N.pl3     1 RES1    0.0000
      9 C1         4.1207    6.1170    9.6207 C.ar      1 RES1    0.0000
     10 C2         5.2501    6.0381   10.4255 C.ar      1 RES1    0.0000
     11 H1         5.6216    6.8092   10.7890 H         1 RES1    0.0000
     12 C3         5.8146    4.8047   10.6814 C.ar      1 RES1    0.0000
     13 H2         6.5607    4.7454   11.2330 H         1 RES1    0.0000
     14 C4         5.2735    3.6417   10.1185 C.ar      1 RES1    0.0000
     15 C5         4.1217    3.7620    9.3100 C.ar      1 RES1    0.0000
     16 H3         3.7439    3.0010    8.9312 H         1 RES1    0.0000
     17 C6         3.5550    4.9854    9.0780 C.ar      1 RES1    0.0000
     18 H4         2.7887    5.0526    8.5551 H         1 RES1    0.0000
     19 C7         5.0858    1.2229    9.9198 C.ar      1 RES1    0.0000
     20 C8         5.4576    0.5788    8.7530 C.ar      1 RES1    0.0000
     21 H5         6.2067    0.8686    8.2844 H         1 RES1    0.0000
     22 C9         4.7159   -0.5032    8.2733 C.ar      1 RES1    0.0000
     23 C10        3.5910   -0.8994    9.0064 C.ar      1 RES1    0.0000
     24 H6         3.0801   -1.6130    8.6990 H         1 RES1    0.0000
     25 C11        3.2151   -0.2575   10.1796 C.ar      1 RES1    0.0000
     26 C12        3.9860    0.8038   10.6449 C.ar      1 RES1    0.0000
     27 H7         3.7610    1.2299   11.4405 H         1 RES1    0.0000
     28 C13        2.0371   -0.7250   10.9580 C.ar      1 RES1    0.0000
     29 C14        0.8896   -1.1633   10.3489 C.ar      1 RES1    0.0000
     30 H8         0.8326   -1.1810    9.4208 H         1 RES1    0.0000
     31 C15       -0.1785   -1.5787   11.1131 C.ar      1 RES1    0.0000
     32 H9        -0.9451   -1.8588   10.6677 H         1 RES1    0.0000
     33 C16        0.8831   -1.1230   13.0113 C.ar      1 RES1    0.0000
     34 H10        0.8876   -1.0632   13.9387 H         1 RES1    0.0000
     35 C17        2.0145   -0.6937   12.3198 C.ar      1 RES1    0.0000
     36 H11        2.7559   -0.3856   12.7899 H         1 RES1    0.0000
     37 C18        5.1040   -1.2164    7.0283 C.ar      1 RES1    0.0000
     38 C19        4.2272   -2.0832    6.3635 C.ar      1 RES1    0.0000
     39 H12        3.3641   -2.2172    6.6842 H         1 RES1    0.0000
     40 C20        4.6584   -2.7352    5.2278 C.ar      1 RES1    0.0000
     41 H13        4.0600   -3.3192    4.8200 H         1 RES1    0.0000
     42 C21        6.6769   -1.7727    5.2940 C.ar      1 RES1    0.0000
     43 H14        7.5254   -1.6529    4.9334 H         1 RES1    0.0000
     44 C22        6.3609   -1.0730    6.4491 C.ar      1 RES1    0.0000
     45 H15        6.9899   -0.5070    6.8367 H         1 RES1    0.0000
     46 C23        7.0884    2.1737   10.9848 C.ar      1 RES1    0.0000
     47 C24        8.2348    2.7770   10.4845 C.ar      1 RES1    0.0000
     48 H16        8.1725    3.3791    9.7784 H         1 RES1    0.0000
     49 C25        9.4820    2.4804   11.0402 C.ar      1 RES1    0.0000
     50 C26        9.5392    1.5825   12.1118 C.ar      1 RES1    0.0000
     51 H17       10.3654    1.3814   12.4898 H         1 RES1    0.0000
     52 C27        8.3974    0.9837   12.6258 C.ar      1 RES1    0.0000
     53 C28        7.1643    1.2826   12.0374 C.ar      1 RES1    0.0000
     54 H18        6.3898    0.8787   12.3572 H         1 RES1    0.0000
     55 C29        8.4901    0.0113   13.7547 C.ar      1 RES1    0.0000
     56 C30        9.6466   -0.7150   13.9887 C.ar      1 RES1    0.0000
     57 H19       10.3908   -0.5925   13.4440 H         1 RES1    0.0000
     58 C31        9.6932   -1.6188   15.0290 C.ar      1 RES1    0.0000
     59 H20       10.4880   -2.0808   15.1662 H         1 RES1    0.0000
     60 C32        7.5616   -1.1711   15.6122 C.ar      1 RES1    0.0000
     61 H21        6.8265   -1.3275   16.1609 H         1 RES1    0.0000
     62 C33        7.4255   -0.2329   14.6139 C.ar      1 RES1    0.0000
     63 H22        6.6270    0.2332   14.5138 H         1 RES1    0.0000
     64 C34       10.7339    3.0486   10.4749 C.ar      1 RES1    0.0000
     65 C35       10.8085    4.3648   10.0113 C.ar      1 RES1    0.0000
     66 H23       10.0592    4.9159   10.0244 H         1 RES1    0.0000
     67 C36       12.0146    4.8320    9.5347 C.ar      1 RES1    0.0000
     68 H24       12.0517    5.7169    9.2525 H         1 RES1    0.0000
     69 C37       13.0379    2.8527    9.8885 C.ar      1 RES1    0.0000
     70 H25       13.8016    2.3221    9.8446 H         1 RES1    0.0000
     71 C38       11.8850    2.2833   10.4038 C.ar      1 RES1    0.0000
     72 H26       11.8850    1.4014   10.6962 H         1 RES1    0.0000
     73 O3         5.6390    2.8753   15.0006 O.2       2 RES2    0.0000
     74 O4         4.1583    1.8554   13.7962 O.2       2 RES2    0.0000
     75 N7         0.8355   14.5073   16.2504 N.ar      2 RES2    0.0000
     76 N8         8.5638   11.5538   11.0517 N.ar      2 RES2    0.0000
     77 N9         2.3006    7.8463   13.0210 N.pl3     2 RES2    0.0000
     78 N10       -4.8792    5.5645   13.6058 N.ar      2 RES2    0.0000
     79 N11       -0.4265   12.1728    7.6389 N.ar      2 RES2    0.0000
     80 N12        4.6659    2.8916   14.2418 N.pl3     2 RES2    0.0000
     81 C39        1.7483   14.7376   15.3085 C.ar      2 RES2    0.0000
     82 H27        1.9440   15.6226   15.0993 H         2 RES2    0.0000
     83 C40        2.4242   13.7458   14.6235 C.ar      2 RES2    0.0000
     84 H28        3.0375   13.9728   13.9618 H         2 RES2    0.0000
     85 C41        2.1836   12.4022   14.9237 C.ar      2 RES2    0.0000
     86 C42        1.2311   12.1677   15.9014 C.ar      2 RES2    0.0000
     87 H29        1.0231   11.2928   16.1409 H         2 RES2    0.0000
     88 C43        0.5926   13.2160   16.5218 C.ar      2 RES2    0.0000
     89 H30       -0.0458   13.0186   17.1688 H         2 RES2    0.0000
     90 C44        2.8977   11.3243   14.2098 C.ar      2 RES2    0.0000
     91 C45        4.1642   11.5443   13.6806 C.ar      2 RES2    0.0000
     92 H31        4.5752   12.3661   13.8199 H         2 RES2    0.0000
     93 C46        4.8360   10.5689   12.9484 C.ar      2 RES2    0.0000
     94 C47        4.2257    9.3342   12.7719 C.ar      2 RES2    0.0000
     95 H32        4.6663    8.6668   12.2957 H         2 RES2    0.0000
     96 C48        2.9706    9.0846   13.2975 C.ar      2 RES2    0.0000
     97 C49        2.3089   10.0640   14.0253 C.ar      2 RES2    0.0000
     98 H33        1.4740    9.8842   14.3921 H         2 RES2    0.0000
     99 C50        6.1457   10.8701   12.3150 C.ar      2 RES2    0.0000
    100 C51        7.0112   11.8086   12.8530 C.ar      2 RES2    0.0000
    101 H34        6.8015   12.2318   13.6543 H         2 RES2    0.0000
    102 C52        8.1804   12.1147   12.2003 C.ar      2 RES2    0.0000
    103 H35        8.7393   12.7519   12.5819 H         2 RES2    0.0000
    104 C53        7.7237   10.6430   10.5347 C.ar      2 RES2    0.0000
    105 H36        7.9614   10.2352    9.7331 H         2 RES2    0.0000
    106 C54        6.5191   10.2732   11.1244 C.ar      2 RES2    0.0000
    107 H37        5.9743    9.6355   10.7243 H         2 RES2    0.0000
    108 C55        1.0346    7.9714   12.3428 C.ar      2 RES2    0.0000
    109 C56       -0.1007    7.3289   12.8135 C.ar      2 RES2    0.0000
    110 H38       -0.0413    6.7483   13.5376 H         2 RES2    0.0000
    111 C57       -1.3306    7.5549   12.1987 C.ar      2 RES2    0.0000
    112 C58       -1.4056    8.4522   11.1421 C.ar      2 RES2    0.0000
    113 H39       -2.2291    8.6218   10.7462 H         2 RES2    0.0000
    114 C59       -0.2667    9.1050   10.6607 C.ar      2 RES2    0.0000
    115 C60        0.9531    8.8423   11.2646 C.ar      2 RES2    0.0000
    116 H40        1.7244    9.2528   10.9449 H         2 RES2    0.0000
    117 C61       -0.3454   10.1157    9.5814 C.ar      2 RES2    0.0000
    118 C62        0.6250   10.2340    8.5993 C.ar      2 RES2    0.0000
    119 H41        1.3316    9.6289    8.5675 H         2 RES2    0.0000
    120 C63        0.5416   11.2495    7.6672 C.ar      2 RES2    0.0000
    121 H42        1.2039   11.2952    7.0161 H         2 RES2    0.0000
    122 C64       -1.3686   12.0295    8.5799 C.ar      2 RES2    0.0000
    123 H43       -2.0689   12.6406    8.5814 H         2 RES2    0.0000
    124 C65       -1.3786   11.0469    9.5428 C.ar      2 RES2    0.0000
    125 H44       -2.0706   11.0057   10.1637 H         2 RES2    0.0000
    126 C66       -2.5532    6.8739   12.6979 C.ar      2 RES2    0.0000
    127 C67       -2.5296    5.5582   13.1324 C.ar      2 RES2    0.0000
    128 H45       -1.7311    5.0828   13.1417 H         2 RES2    0.0000
    129 C68       -3.7036    4.9569   13.5541 C.ar      2 RES2    0.0000
    130 H46       -3.6642    4.0653   13.8182 H         2 RES2    0.0000
    131 C69       -3.7881    7.5300   12.7496 C.ar      2 RES2    0.0000
    132 H47       -3.8605    8.4151   12.4759 H         2 RES2    0.0000
    133 C70       -4.9002    6.8461   13.2148 C.ar      2 RES2    0.0000
    134 H48       -5.7082    7.3047   13.2572 H         2 RES2    0.0000
    135 C71        2.9059    6.6104   13.2803 C.ar      2 RES2    0.0000
    136 C72        3.9973    6.5390   14.1588 C.ar      2 RES2    0.0000
    137 H49        4.3282    7.3178   14.5445 H         2 RES2    0.0000
    138 C73        4.5848    5.3271   14.4570 C.ar      2 RES2    0.0000
    139 H50        5.3094    5.2848   15.0384 H         2 RES2    0.0000
    140 C74        4.0807    4.1755   13.8794 C.ar      2 RES2    0.0000
    141 C75        3.0313    4.2235   12.9903 C.ar      2 RES2    0.0000
    142 H51        2.7152    3.4396   12.6029 H         2 RES2    0.0000
    143 C76        2.4480    5.4249   12.6730 C.ar      2 RES2    0.0000
    144 H52        1.7506    5.4562   12.0580 H         2 RES2    0.0000
@<TRIPOS>BOND
     1    1    8 2
     2    2    8 2
     3    3   67 ar
     4    4   58 ar
     5    5   40 ar
     6    6   31 ar
     7    7   14 1
     8    8    9 1
     9    9   10 ar
    10   10   11 1
    11   12   10 ar
    12   13   12 1
    13   14   12 ar
    14   15   14 ar
    15   16   15 1
    16   17    9 ar
    17   18   17 1
    18   19    7 1
    19   20   19 ar
    20   21   20 1
    21   22   20 ar
    22   23   22 ar
    23   24   23 1
    24   25   23 ar
    25   26   19 ar
    26   27   26 1
    27   28   25 1
    28   29   28 ar
    29   30   29 1
    30   31   29 ar
    31   32   31 1
    32   33    6 ar
    33   34   33 1
    34   35   28 ar
    35   36   35 1
    36   37   22 1
    37   38   37 ar
    38   39   38 1
    39   40   38 ar
    40   41   40 1
    41   42    5 ar
    42   43   42 1
    43   44   37 ar
    44   45   44 1
    45   46    7 1
    46   47   46 ar
    47   48   47 1
    48   49   47 ar
    49   50   49 ar
    50   51   50 1
    51   52   50 ar
    52   53   46 ar
    53   54   53 1
    54   55   52 1
    55   56   55 ar
    56   57   56 1
    57   58   56 ar
    58   59   58 1
    59   60    4 ar
    60   61   60 1
    61   62   55 ar
    62   63   62 1
    63   64   49 1
    64   65   64 ar
    65   66   65 1
    66   67   65 ar
    67   68   67 1
    68   69    3 ar
    69   70   69 1
    70   71   64 ar
    71   72   71 1
    72   73   80 2
    73   74   80 2
    74   75   81 ar
    75   76  102 ar
    76   77   96 1
    77   78  129 ar
    78   79  120 ar
    79   80  140 1
    80   81   82 1
    81   83   81 ar
    82   84   83 1
    83   85   83 ar
    84   86   85 ar
    85   87   86 1
    86   88   75 ar
    87   89   88 1
    88   90   85 1
    89   91   90 ar
    90   92   91 1
    91   93   91 ar
    92   94   93 ar
    93   95   94 1
    94   96   94 ar
    95   97   90 ar
    96   98   97 1
    97   99   93 1
    98  100   99 ar
    99  101  100 1
   100  102  100 ar
   101  103  102 1
   102  104   76 ar
   103  105  104 1
   104  106   99 ar
   105  107  106 1
   106  108   77 1
   107  109  108 ar
   108  110  109 1
   109  111  109 ar
   110  112  111 ar
   111  113  112 1
   112  114  112 ar
   113  115  108 ar
   114  116  115 1
   115  117  114 1
   116  118  117 ar
   117  119  118 1
   118  120  118 ar
   119  121  120 1
   120  122   79 ar
   121  123  122 1
   122  124  117 ar
   123  125  124 1
   124  126  111 1
   125  127  126 ar
   126  128  127 1
   127  129  127 ar
   128  130  129 1
   129  131  126 ar
   130  132  131 1
   131  133   78 ar
   132  134  133 1
   133  135   77 1
   134  136  135 ar
   135  137  136 1
   136  138  136 ar
   137  139  138 1
   138  140  138 ar
   139  141  140 ar
   140  142  141 1
   141  143  135 ar
   142  144  143 1
   143   15   17 ar
   144   25   26 ar
   145   33   35 ar
   146   42   44 ar
   147   52   53 ar
   148   60   62 ar
   149   69   71 ar
   150   86   88 ar
   151   96   97 ar
   152  104  106 ar
   153  114  115 ar
   154  122  124 ar
   155  131  133 ar
   156  141  143 ar
@<TRIPOS>SUBSTRUCTURE
     1 RES1 1
     2 RES2 73

@<TRIPOS>CRYSIN
  12.7590   16.2930   16.8790 106.0900  92.9600  96.6800   2 1

