# MOL2 file generated by ConQuest
# Please check atom types

@<TRIPOS>MOLECULE
ACAMOX
    17    16     1
SMALL
NO_CHARGES
****
Generated from CSD

@<TRIPOS>ATOM
      1 C1         0.6627    1.9198    0.7512 C.2       1 RES1    0.0000
      2 C2         1.4316    1.0824   -0.2138 C.3       1 RES1    0.0000
      3 C3         2.3872    1.5385    2.4487 C.3       1 RES1    0.0000
      4 C4         0.3780    2.8593    2.9540 C.3       1 RES1    0.0000
      5 H1        -1.4870    2.9603   -1.0262 H         1 RES1    0.0000
      6 H2         1.0143    1.0830   -1.0405 H         1 RES1    0.0000
      7 H3         1.5595    0.1354    0.1354 H         1 RES1    0.0000
      8 H4         2.3546    1.3752   -0.3492 H         1 RES1    0.0000
      9 H5         3.0365    2.2282    2.3162 H         1 RES1    0.0000
     10 H6         2.3568    1.3895    3.2925 H         1 RES1    0.0000
     11 H7         2.5632    0.7036    2.0739 H         1 RES1    0.0000
     12 H8        -0.4883    2.8300    2.9220 H         1 RES1    0.0000
     13 H9         0.5895    2.6933    3.8413 H         1 RES1    0.0000
     14 H10        0.4853    3.7547    2.7580 H         1 RES1    0.0000
     15 N1         1.0622    1.9543    2.0582 N.3       1 RES1    0.0000
     16 N2        -0.3847    2.5977    0.4476 N.2       1 RES1    0.0000
     17 O1        -0.7778    2.3872   -0.9108 O.3       1 RES1    0.0000
@<TRIPOS>BOND
     1    1    2 1
     2    2    6 1
     3    3    9 1
     4    4   12 1
     5    5   17 1
     6    7    2 1
     7    8    2 1
     8   10    3 1
     9   11    3 1
    10   13    4 1
    11   14    4 1
    12   15    1 1
    13   16    1 2
    14   17   16 1
    15    3   15 1
    16    4   15 1
@<TRIPOS>SUBSTRUCTURE
     1 RES1 1

@<TRIPOS>CRYSIN
   6.0690    7.5820    7.3640  84.9700  79.6600 114.1600   2 1

