# MOL2 file generated by ConQuest
# Please check atom types

@<TRIPOS>MOLECULE
ACAMEW
   162   141     4
SMALL
NO_CHARGES
****
Generated from CSD

@<TRIPOS>ATOM
      1 O1         9.1717   -0.1080   10.7212 O.2       1 RES1    0.0000
      2 O2         7.1032    0.4743   10.7568 O.2       1 RES1    0.0000
      3 O3         8.8964    1.7049    4.0908 O.2       1 RES1    0.0000
      4 N1         8.1080    0.1423   10.1526 N.pl3     1 RES1    0.0000
      5 N2         7.9352   -0.2688    4.5365 N.am      1 RES1    0.0000
      6 H1         7.5700   -1.0171    4.1938 H         1 RES1    0.0000
      7 C1         8.0538    0.0764    8.6906 C.ar      1 RES1    0.0000
      8 C2         9.2285   -0.1212    8.0092 C.ar      1 RES1    0.0000
      9 H2        10.0489   -0.2266    8.4945 H         1 RES1    0.0000
     10 C3         9.2228   -0.2345    6.6126 C.ar      1 RES1    0.0000
     11 C4         7.9764   -0.1265    5.9608 C.ar      1 RES1    0.0000
     12 C5         6.7995    0.0870    6.6720 C.ar      1 RES1    0.0000
     13 C6         6.8452    0.1845    8.0488 C.ar      1 RES1    0.0000
     14 H3         6.0353    0.3136    8.5480 H         1 RES1    0.0000
     15 C7         8.4026    0.6535    3.6827 C.2       1 RES1    0.0000
     16 C8         8.3018    0.3847    2.2465 C.ar      1 RES1    0.0000
     17 C9         8.4951   -0.8485    1.7254 C.ar      1 RES1    0.0000
     18 H4         8.6317   -1.5837    2.3257 H         1 RES1    0.0000
     19 C10        8.5230   -1.0725    0.3249 C.ar      1 RES1    0.0000
     20 H5         8.7345   -1.9368   -0.0376 H         1 RES1    0.0000
     21 C11        8.2127   -0.0501   -0.5666 C.ar      1 RES1    0.0000
     22 C12        7.9815    1.1146   -0.0139 C.ar      1 RES1    0.0000
     23 H6         7.8201    1.8525   -0.6062 H         1 RES1    0.0000
     24 C13        7.9829    1.3228    1.3629 C.ar      1 RES1    0.0000
     25 H7         7.8093    2.2029    1.7037 H         1 RES1    0.0000
     26 C14        5.4883    0.2029    5.9489 C.3       1 RES1    0.0000
     27 H8         5.6552    0.1265    5.0060 H         1 RES1    0.0000
     28 H9         4.9016   -0.5033    6.2283 H         1 RES1    0.0000
     29 H10        5.0802    1.0514    6.1332 H         1 RES1    0.0000
     30 C15       10.5069   -0.4849    5.8756 C.3       1 RES1    0.0000
     31 H11       10.3221   -0.5086    4.9347 H         1 RES1    0.0000
     32 H12       11.1330    0.2187    6.0619 H         1 RES1    0.0000
     33 H13       10.8819   -1.3255    6.1490 H         1 RES1    0.0000
     34 C16        8.1759   -0.2714   -2.0563 C.3       1 RES1    0.0000
     35 C17        7.2408   -1.3571   -2.5674 Du        4 SUP4    0.0000
     36 H14        6.2920   -1.2991   -2.4723 Du        4 SUP4    0.0000
     37 H15        7.5819   -2.0527   -1.9988 Du        4 SUP4    0.0000
     38 H16        7.4660   -1.5547   -3.4806 Du        4 SUP4    0.0000
     39 C18        6.6802   -0.4295   -2.3990 C.3       1 RES1    0.0000
     40 H17        6.2172    0.4111   -2.4228 H         1 RES1    0.0000
     41 H18        6.2725   -1.0013   -1.7413 H         1 RES1    0.0000
     42 H19        6.6295   -0.8485   -3.2607 H         1 RES1    0.0000
     43 C19        8.4529    0.8907   -2.8962 C.3       1 RES1    0.0000
     44 H20        9.3549    1.1832   -2.7516 H         1 RES1    0.0000
     45 H21        8.3255    0.6983   -3.8293 H         1 RES1    0.0000
     46 H22        7.8446    1.5837   -2.6288 H         1 RES1    0.0000
     47 C20        9.6097   -0.7378   -2.3613 Du        4 SUP4    0.0000
     48 H23        9.8986   -0.4269   -3.2191 Du        4 SUP4    0.0000
     49 H24        9.7416   -1.6970   -2.3138 Du        4 SUP4    0.0000
     50 H25       10.1345   -0.3215   -1.6739 Du        4 SUP4    0.0000
     51 C21        8.7877   -1.6100   -2.4822 C.3       1 RES1    0.0000
     52 H26        8.6300   -1.7734   -3.4152 H         1 RES1    0.0000
     53 H27        8.4949   -2.3690   -1.9711 H         1 RES1    0.0000
     54 H28        9.7232   -1.4651   -2.3356 H         1 RES1    0.0000
     55 O4         6.0310    3.2043    9.3563 O.2       2 RES2    0.0000
     56 O5         3.9710    2.6456    9.5009 O.2       2 RES2    0.0000
     57 O6         4.5835    2.4058   16.3333 O.2       2 RES2    0.0000
     58 N3         5.0110    3.0330   10.0040 N.pl3     2 RES2    0.0000
     59 N4         5.1505    4.3980   15.4538 N.am      2 RES2    0.0000
     60 H29        5.4056    5.2465   15.6162 H         2 RES2    0.0000
     61 C22        5.0317    3.2754   11.4680 C.ar      2 RES2    0.0000
     62 C23        6.2597    3.4098   12.0762 C.ar      2 RES2    0.0000
     63 H30        7.0804    3.2807   11.5948 H         2 RES2    0.0000
     64 C24        6.3076    3.7287   13.4351 C.ar      2 RES2    0.0000
     65 C25        5.0907    3.9421   14.0968 C.ar      2 RES2    0.0000
     66 C26        3.8508    3.7735   13.4767 C.ar      2 RES2    0.0000
     67 C27        3.8343    3.4335   12.1336 C.ar      2 RES2    0.0000
     68 H31        2.9987    3.3150   11.6740 H         2 RES2    0.0000
     69 C28        4.9024    3.5732   16.4997 C.2       2 RES2    0.0000
     70 C29        5.0552    4.1819   17.8528 C.ar      2 RES2    0.0000
     71 C30        5.0342    3.3334   18.9324 C.ar      2 RES2    0.0000
     72 H32        4.9154    2.3900   18.7957 H         2 RES2    0.0000
     73 C31        5.1904    3.8367   20.2042 C.ar      2 RES2    0.0000
     74 H33        5.1569    3.2280   20.9471 H         2 RES2    0.0000
     75 C32        5.3349    5.1305   20.5231 C.ar      2 RES2    0.0000
     76 C33        5.2409    5.4705   18.1459 C.ar      2 RES2    0.0000
     77 H34        5.3273    6.0897   17.4209 H         2 RES2    0.0000
     78 C34        5.3667    5.9158   19.4415 C.ar      2 RES2    0.0000
     79 H35        5.4574    6.8565   19.6000 H         2 RES2    0.0000
     80 C35        2.5527    3.9974   14.2038 C.3       2 RES2    0.0000
     81 H36        2.7256    4.2214   15.1210 H         2 RES2    0.0000
     82 H37        2.0859    4.7195   13.7798 H         2 RES2    0.0000
     83 H38        2.0162    3.2016   14.1641 H         2 RES2    0.0000
     84 C36        7.6232    3.8710   14.1542 C.3       2 RES2    0.0000
     85 H39        7.4758    4.0976   15.0754 H         2 RES2    0.0000
     86 H40        8.1176    3.0488   14.1027 H         2 RES2    0.0000
     87 H41        8.1214    4.5719   13.7283 H         2 RES2    0.0000
     88 C37        5.4649    5.6576   21.9396 C.3       2 RES2    0.0000
     89 C38        5.5284    4.6193   22.9281 C.3       2 RES2    0.0000
     90 H42        4.6695    4.1845   22.9400 H         2 RES2    0.0000
     91 H43        6.2049    3.9843   22.6983 H         2 RES2    0.0000
     92 H44        5.7100    4.9856   23.7977 H         2 RES2    0.0000
     93 C39        4.7289    6.9593   22.2129 C.3       2 RES2    0.0000
     94 H45        3.7879    6.8170   22.1119 H         2 RES2    0.0000
     95 H46        5.0229    7.6286   21.5889 H         2 RES2    0.0000
     96 H47        4.9170    7.2544   23.1064 H         2 RES2    0.0000
     97 C40        3.9930    5.9026   22.4051 Du        4 SUP4    0.0000
     98 H48        3.5698    5.0541   22.5774 Du        4 SUP4    0.0000
     99 H49        3.5137    6.3585   21.7098 Du        4 SUP4    0.0000
    100 H50        3.9930    6.4296   23.2014 Du        4 SUP4    0.0000
    101 C41        6.9791    6.0291   22.1773 C.3       2 RES2    0.0000
    102 H51        7.0904    6.4007   23.0529 H         2 RES2    0.0000
    103 H52        7.2613    6.6668   21.5176 H         2 RES2    0.0000
    104 H53        7.5082    5.2307   22.0961 H         2 RES2    0.0000
    105 C42        6.5034    6.8144   21.9495 Du        4 SUP4    0.0000
    106 H54        7.3262    6.4744   22.2922 Du        4 SUP4    0.0000
    107 H55        6.1814    7.5232   22.5041 Du        4 SUP4    0.0000
    108 H56        6.6442    7.1490   21.0540 Du        4 SUP4    0.0000
    109 O7         6.0861   10.0266   21.0045 O.2       3 RES3    0.0000
    110 O8         4.0004   10.1346   20.9669 O.2       3 RES3    0.0000
    111 O9         5.8913    7.1332   14.8852 O.2       3 RES3    0.0000
    112 N5         5.0419    9.9923   20.4122 N.pl3     3 RES3    0.0000
    113 N6         5.0302    9.1965   14.8436 N.am      3 RES3    0.0000
    114 H57        4.7313    9.8632   14.3187 H         3 RES3    0.0000
    115 C43        5.0320    9.7736   18.9542 C.ar      3 RES3    0.0000
    116 C44        6.2316    9.7947   18.3044 C.ar      3 RES3    0.0000
    117 H58        7.0487    9.9291   18.7898 H         3 RES3    0.0000
    118 C45        6.2573    9.5812   16.9177 C.ar      3 RES3    0.0000
    119 C46        5.0314    9.3889   16.2759 C.ar      3 RES3    0.0000
    120 C47        3.8027    9.3889   16.9494 C.ar      3 RES3    0.0000
    121 C48        3.8300    9.5891   18.3183 C.ar      3 RES3    0.0000
    122 H59        3.0103    9.6049   18.8175 H         3 RES3    0.0000
    123 C49        5.4400    8.0634   14.2295 C.2       3 RES3    0.0000
    124 C50        5.3555    8.0450   12.7576 C.ar      3 RES3    0.0000
    125 C51        5.8443    6.9909   12.0643 C.ar      3 RES3    0.0000
    126 H60        6.2850    6.3032   12.5655 H         3 RES3    0.0000
    127 C52        5.8063    6.8934   10.6776 C.ar      3 RES3    0.0000
    128 H61        6.2104    6.1424   10.2358 H         3 RES3    0.0000
    129 C53        5.2686    7.8605    9.9050 C.ar      3 RES3    0.0000
    130 C54        4.8295    8.9066   10.5983 C.ar      3 RES3    0.0000
    131 H62        4.4992    9.6392   10.0754 H         3 RES3    0.0000
    132 C55        4.8676    9.0120   11.9850 C.ar      3 RES3    0.0000
    133 H63        4.5738    9.8210   12.4129 H         3 RES3    0.0000
    134 C56        2.5142    9.1754   16.2105 C.3       3 RES3    0.0000
    135 H64        2.7167    9.0410   15.2814 H         3 RES3    0.0000
    136 H65        2.0496    8.4060   16.5493 H         3 RES3    0.0000
    137 H66        1.9612    9.9528   16.3096 H         3 RES3    0.0000
    138 C57        7.5360    9.6313   16.1689 C.3       3 RES3    0.0000
    139 H67        7.3469    9.4837   15.2398 H         3 RES3    0.0000
    140 H68        7.9642   10.4851   16.2739 H         3 RES3    0.0000
    141 H69        8.1175    8.9409   16.4918 H         3 RES3    0.0000
    142 C58        5.2112    7.7156    8.3935 C.3       3 RES3    0.0000
    143 C59        5.7551    8.9514    7.8051 Du        4 SUP4    0.0000
    144 H70        6.5886    9.1596    8.2291 Du        4 SUP4    0.0000
    145 H71        5.1307    9.6682    7.9616 Du        4 SUP4    0.0000
    146 H72        5.8841    8.8381    6.8681 Du        4 SUP4    0.0000
    147 C60        4.6301    8.8961    7.7199 C.3       3 RES3    0.0000
    148 H73        4.8642    9.6893    8.2073 H         3 RES3    0.0000
    149 H74        3.6782    8.8091    7.6823 H         3 RES3    0.0000
    150 H75        4.9851    8.9567    6.8285 H         3 RES3    0.0000
    151 C61        6.4982    7.2254    7.8626 C.3       3 RES3    0.0000
    152 H76        6.3391    6.6378    7.1197 H         3 RES3    0.0000
    153 H77        6.9646    6.7485    8.5539 H         3 RES3    0.0000
    154 H78        7.0287    7.9712    7.5734 H         3 RES3    0.0000
    155 C62        3.5913    7.5996    7.9676 Du        4 SUP4    0.0000
    156 H79        3.0974    8.2953    8.4014 Du        4 SUP4    0.0000
    157 H80        3.2501    6.7432    8.2390 Du        4 SUP4    0.0000
    158 H81        3.5115    7.6892    7.0167 Du        4 SUP4    0.0000
    159 C63        4.5757    6.4270    7.9834 C.3       3 RES3    0.0000
    160 H82        4.5035    6.3928    7.0266 H         3 RES3    0.0000
    161 H83        3.6989    6.3664    8.3737 H         3 RES3    0.0000
    162 H84        5.1129    5.6945    8.2905 H         3 RES3    0.0000
@<TRIPOS>BOND
     1    1    4 2
     2    2    4 2
     3    3   15 2
     4    4    7 1
     5    5    6 1
     6    7    8 ar
     7    8    9 1
     8   10    8 ar
     9   11    5 1
    10   12   11 ar
    11   13    7 ar
    12   14   13 1
    13   15    5 1
    14   16   15 1
    15   17   16 ar
    16   18   17 1
    17   19   17 ar
    18   20   19 1
    19   21   19 ar
    20   22   21 ar
    21   23   22 1
    22   24   16 ar
    23   25   24 1
    24   26   12 1
    25   27   26 1
    26   28   26 1
    27   29   26 1
    28   30   10 1
    29   31   30 1
    30   32   30 1
    31   33   30 1
    32   34   21 1
    33   39   34 1
    34   40   39 1
    35   41   39 1
    36   42   39 1
    37   43   34 1
    38   44   43 1
    39   45   43 1
    40   46   43 1
    41   51   34 1
    42   52   51 1
    43   53   51 1
    44   54   51 1
    45   55   58 2
    46   56   58 2
    47   57   69 2
    48   58   61 1
    49   59   60 1
    50   61   62 ar
    51   62   63 1
    52   64   62 ar
    53   65   59 1
    54   66   65 ar
    55   67   61 ar
    56   68   67 1
    57   69   59 1
    58   70   69 1
    59   71   70 ar
    60   72   71 1
    61   73   71 ar
    62   74   73 1
    63   75   73 ar
    64   76   70 ar
    65   77   76 1
    66   78   75 ar
    67   79   78 1
    68   80   66 1
    69   81   80 1
    70   82   80 1
    71   83   80 1
    72   84   64 1
    73   85   84 1
    74   86   84 1
    75   87   84 1
    76   88   75 1
    77   89   88 1
    78   90   89 1
    79   91   89 1
    80   92   89 1
    81   93   88 1
    82   94   93 1
    83   95   93 1
    84   96   93 1
    85  101   88 1
    86  102  101 1
    87  103  101 1
    88  104  101 1
    89  109  112 2
    90  110  112 2
    91  111  123 2
    92  112  115 1
    93  113  114 1
    94  115  116 ar
    95  116  117 1
    96  118  116 ar
    97  119  113 1
    98  120  119 ar
    99  121  115 ar
   100  122  121 1
   101  123  113 1
   102  124  123 1
   103  125  124 ar
   104  126  125 1
   105  127  125 ar
   106  128  127 1
   107  129  127 ar
   108  130  129 ar
   109  131  130 1
   110  132  124 ar
   111  133  132 1
   112  134  120 1
   113  135  134 1
   114  136  134 1
   115  137  134 1
   116  138  118 1
   117  139  138 1
   118  140  138 1
   119  141  138 1
   120  142  129 1
   121  147  142 1
   122  148  147 1
   123  149  147 1
   124  150  147 1
   125  151  142 1
   126  152  151 1
   127  153  151 1
   128  154  151 1
   129  159  142 1
   130  160  159 1
   131  161  159 1
   132  162  159 1
   133   10   11 ar
   134   12   13 ar
   135   22   24 ar
   136   64   65 ar
   137   66   67 ar
   138   76   78 ar
   139  118  119 ar
   140  120  121 ar
   141  130  132 ar
@<TRIPOS>SUBSTRUCTURE
     1 RES1 1
     2 RES2 55
     3 RES3 109
     4 SUP4 35

@<TRIPOS>CRYSIN
  10.8180   26.3510   19.8100  90.0000  90.0800  90.0000 231 1

