# MOL2 file generated by ConQuest
# Please check atom types

@<TRIPOS>MOLECULE
ACAMIA
   156   159     3
SMALL
NO_CHARGES
****
Generated from CSD

@<TRIPOS>ATOM
      1 O1         4.3002   -0.4124   16.9383 O.2       1 RES1    0.0000
      2 O2         2.2672   -0.3180   16.7511 O.2       1 RES1    0.0000
      3 O3         3.3209    6.4813   16.2803 O.2       1 RES1    0.0000
      4 O4         2.4959   -0.6299   13.4664 O.2       2 RES2    0.0000
      5 O5         0.4125   -0.4986   13.6536 O.2       2 RES2    0.0000
      6 O6         1.0672    5.9663   11.9163 O.2       2 RES2    0.0000
      7 O7         0.7670   -1.2146   10.4378 O.2       3 RES3    0.0000
      8 O8        -1.3250   -1.1736   10.5479 O.2       3 RES3    0.0000
      9 O9        -0.7097    4.8830    7.4367 O.2       3 RES3    0.0000
     10 N1         3.3097    0.1929   16.9163 N.pl3     1 RES1    0.0000
     11 N2         3.4648    5.6011   18.3150 N.am      1 RES1    0.0000
     12 H1         3.4886    5.7591   19.1603 H         1 RES1    0.0000
     13 N3         1.4943   -0.0103   13.6206 N.pl3     2 RES2    0.0000
     14 N4         1.8216    5.5622   13.9785 N.am      2 RES2    0.0000
     15 H2         2.1168    5.8884   14.7192 H         2 RES2    0.0000
     16 N5        -0.2647   -0.6504   10.4268 N.pl3     3 RES3    0.0000
     17 N6        -0.2232    4.9210    9.6126 N.am      3 RES3    0.0000
     18 H3        -0.1046    5.4124   10.3084 H         3 RES3    0.0000
     19 C1         3.3311    1.5977   17.2285 C.ar      1 RES1    0.0000
     20 C2         4.5590    2.2431   17.3172 C.ar      1 RES1    0.0000
     21 H4         5.3442    1.7706   17.1641 H         1 RES1    0.0000
     22 C3         4.6116    3.5950   17.6363 C.ar      1 RES1    0.0000
     23 C4         3.4364    4.3012   17.8665 C.ar      1 RES1    0.0000
     24 C5         2.2086    3.6557   17.7778 C.ar      1 RES1    0.0000
     25 C6         2.1559    2.3039   17.4590 C.ar      1 RES1    0.0000
     26 H5         1.3348    1.8712   17.4009 H         1 RES1    0.0000
     27 C7         0.7813    4.5199   17.7175 C.3       1 RES1    0.0000
     28 H6         0.9157    5.4185   17.3789 H         1 RES1    0.0000
     29 H7         0.1053    4.0706   17.1889 H         1 RES1    0.0000
     30 C8         0.4922    4.5178   18.9455 C.3       1 RES1    0.0000
     31 H8         0.8855    3.7464   19.3640 H         1 RES1    0.0000
     32 H9        -0.4590    4.4891   19.0529 H         1 RES1    0.0000
     33 H10        0.8393    5.3139   19.3585 H         1 RES1    0.0000
     34 C9         5.9156    4.3988   17.4780 C.3       1 RES1    0.0000
     35 H11        6.4063    3.9659   16.7594 H         1 RES1    0.0000
     36 H12        5.6515    5.2688   17.1393 H         1 RES1    0.0000
     37 C10        6.5754    4.5753   18.1801 C.3       1 RES1    0.0000
     38 H13        6.1328    4.9754   18.9345 H         1 RES1    0.0000
     39 H14        7.2448    5.1723   17.8469 H         1 RES1    0.0000
     40 H15        6.9819    3.7485   18.4499 H         1 RES1    0.0000
     41 C11        3.4557    6.6180   17.4573 C.2       1 RES1    0.0000
     42 C12        3.5694    7.9930   18.0576 C.ar      1 RES1    0.0000
     43 C13        3.5903    8.2468   19.4240 C.ar      1 RES1    0.0000
     44 H16        3.5150    7.5441   20.0275 H         1 RES1    0.0000
     45 C14        3.7256    9.5505   19.8871 C.ar      1 RES1    0.0000
     46 H17        3.7396    9.7210   20.8012 H         1 RES1    0.0000
     47 C15        3.8390   10.6005   18.9835 C.ar      1 RES1    0.0000
     48 C16        3.8181   10.3467   17.6170 C.ar      1 RES1    0.0000
     49 H18        3.8945   11.0484   17.0127 H         1 RES1    0.0000
     50 C17        3.6838    9.0431   17.1539 C.ar      1 RES1    0.0000
     51 H19        3.6698    8.8736   16.2390 H         1 RES1    0.0000
     52 C18        3.8663   12.0558   19.4851 C.3       1 RES1    0.0000
     53 C19        3.8522   12.1645   20.9169 C.3       1 RES1    0.0000
     54 H20        4.6298   11.7255   21.2775 H         1 RES1    0.0000
     55 H21        3.0619   11.7501   21.2638 H         1 RES1    0.0000
     56 H22        3.8680   13.0919   21.1674 H         1 RES1    0.0000
     57 C20        5.0662   12.6487   19.0143 C.3       1 RES1    0.0000
     58 H23        5.8161   12.2569   19.4686 H         1 RES1    0.0000
     59 H24        5.0458   13.5925   19.1878 H         1 RES1    0.0000
     60 H25        5.1479   12.4990   18.0699 H         1 RES1    0.0000
     61 C21        2.6968   12.8806   18.9758 C.3       1 RES1    0.0000
     62 H26        2.7736   13.7813   19.2979 H         1 RES1    0.0000
     63 H27        1.8745   12.4969   19.2869 H         1 RES1    0.0000
     64 H28        2.7035   12.8847   18.0149 H         1 RES1    0.0000
     65 C22        1.5975    1.4339   13.6688 C.ar      2 RES2    0.0000
     66 C23        2.8418    2.0546   13.6853 C.ar      2 RES2    0.0000
     67 H29        3.6168    1.5429   13.6454 H         2 RES2    0.0000
     68 C24        2.9256    3.4407   13.7629 C.ar      2 RES2    0.0000
     69 C25        1.7673    4.2043   13.8238 C.ar      2 RES2    0.0000
     70 C26        0.5230    3.5839   13.8073 C.ar      2 RES2    0.0000
     71 C27        0.4392    2.1986   13.7296 C.ar      2 RES2    0.0000
     72 H30       -0.3933    1.7829   13.7197 H         2 RES2    0.0000
     73 C28       -0.7524    4.3640   13.9785 C.3       2 RES2    0.0000
     74 H31       -0.5820    5.0287   14.6641 H         2 RES2    0.0000
     75 H32       -0.8954    4.8502   13.1525 H         2 RES2    0.0000
     76 C29       -1.9248    3.7751   14.2924 C.3       2 RES2    0.0000
     77 H33       -2.1235    3.0960   13.6426 H         2 RES2    0.0000
     78 H34       -2.6242    4.4337   14.2897 H         2 RES2    0.0000
     79 H35       -1.8616    3.3791   15.1625 H         2 RES2    0.0000
     80 C30        4.2560    4.0624   13.8023 C.3       2 RES2    0.0000
     81 H36        4.1783    4.9323   14.2263 H         2 RES2    0.0000
     82 H37        4.8365    3.5187   14.3585 H         2 RES2    0.0000
     83 C31        4.8417    4.2224   12.5909 C.3       2 RES2    0.0000
     84 H38        4.9049    3.3730   12.1503 H         2 RES2    0.0000
     85 H39        5.7217    4.5897   12.7065 H         2 RES2    0.0000
     86 H40        4.3145    4.8215   12.0567 H         2 RES2    0.0000
     87 C32        1.4374    6.3670   13.0405 C.2       2 RES2    0.0000
     88 C33        1.4726    7.8404   13.2599 C.ar      2 RES2    0.0000
     89 C34        1.2695    8.3775   14.5256 C.ar      2 RES2    0.0000
     90 H41        1.1343    7.8149   15.2533 H         2 RES2    0.0000
     91 C35        1.2699    9.7560   14.7038 C.ar      2 RES2    0.0000
     92 H42        1.1336   10.1149   15.5507 H         2 RES2    0.0000
     93 C36        1.4724   10.5972   13.6159 C.ar      2 RES2    0.0000
     94 C37        1.6755   10.0601   12.3502 C.ar      2 RES2    0.0000
     95 H43        1.8119   10.6237   11.6217 H         2 RES2    0.0000
     96 C38        1.6762    8.6816   12.1721 C.ar      2 RES2    0.0000
     97 H44        1.8115    8.3217   11.3243 H         2 RES2    0.0000
     98 C39        1.4165   12.1235   13.7968 C.3       2 RES2    0.0000
     99 C40        2.8270   12.4682   14.1960 C.3       2 RES2    0.0000
    100 H45        2.9618   12.2589   15.1239 H         2 RES2    0.0000
    101 H46        2.9833   13.4058   14.0584 H         2 RES2    0.0000
    102 H47        3.4477   11.9614   13.6647 H         2 RES2    0.0000
    103 C41        0.5755   12.5420   14.9009 C.3       2 RES2    0.0000
    104 H48       -0.2959   12.1420   14.8100 H         2 RES2    0.0000
    105 H49        0.4831   13.4981   14.8899 H         2 RES2    0.0000
    106 H50        0.9675   12.2651   15.7296 H         2 RES2    0.0000
    107 C42        1.2855   12.9072   12.4149 C.3       2 RES2    0.0000
    108 H51        0.5084   12.5995   11.9438 H         2 RES2    0.0000
    109 H52        2.0687   12.7472   11.8805 H         2 RES2    0.0000
    110 H53        1.2057   13.8490   12.5881 H         2 RES2    0.0000
    111 C43       -0.2078    0.7755   10.2216 C.ar      3 RES3    0.0000
    112 C44        1.0155    1.4116   10.0394 C.ar      3 RES3    0.0000
    113 H54        1.8033    0.9171   10.0633 H         3 RES3    0.0000
    114 C45        1.0617    2.7821    9.8221 C.ar      3 RES3    0.0000
    115 C46       -0.1165    3.5207    9.7874 C.ar      3 RES3    0.0000
    116 C47       -1.3398    2.8867    9.9697 C.ar      3 RES3    0.0000
    117 C48       -1.3849    1.5142   10.1867 C.ar      3 RES3    0.0000
    118 H55       -2.2036    1.0895   10.3084 H         3 RES3    0.0000
    119 C49        2.2799    3.5371    9.6889 C.3       3 RES3    0.0000
    120 H56        2.1512    4.4235   10.0606 H         3 RES3    0.0000
    121 H57        2.9844    3.1001   10.1927 H         3 RES3    0.0000
    122 C50        2.6513    3.6418    8.4003 C.3       3 RES3    0.0000
    123 H58        2.6075    2.7760    7.9846 H         3 RES3    0.0000
    124 H59        3.5498    3.9741    8.3535 H         3 RES3    0.0000
    125 H60        2.0604    4.2450    7.9460 H         3 RES3    0.0000
    126 C51       -2.7470    3.6746   10.3166 C.3       3 RES3    0.0000
    127 H61       -3.1844    3.2725   11.0848 H         3 RES3    0.0000
    128 H62       -2.5762    4.6102   10.5121 H         3 RES3    0.0000
    129 C52       -3.4936    3.5535    9.2456 C.3       3 RES3    0.0000
    130 H63       -2.9599    3.7382    8.4664 H         3 RES3    0.0000
    131 H64       -4.2204    4.1732    9.2924 H         3 RES3    0.0000
    132 H65       -3.8307    2.6570    9.1933 H         3 RES3    0.0000
    133 C53       -0.4855    5.5334    8.4917 C.2       3 RES3    0.0000
    134 C54       -0.6000    6.9819    8.4785 C.ar      3 RES3    0.0000
    135 C55       -0.6400    7.7000    9.6677 C.ar      3 RES3    0.0000
    136 H66       -0.5723    7.2569   10.4818 H         3 RES3    0.0000
    137 C56       -0.7809    9.0829    9.6393 C.ar      3 RES3    0.0000
    138 H67       -0.8071    9.5630   10.4350 H         3 RES3    0.0000
    139 C57       -0.8817    9.7456    8.4224 C.ar      3 RES3    0.0000
    140 C58       -0.8417    9.0275    7.2332 C.ar      3 RES3    0.0000
    141 H68       -0.9093    9.4706    6.4180 H         3 RES3    0.0000
    142 C59       -0.7008    7.6446    7.2613 C.ar      3 RES3    0.0000
    143 H69       -0.6746    7.1645    6.4648 H         3 RES3    0.0000
    144 C60       -0.9533   11.3131    8.4169 C.3       3 RES3    0.0000
    145 C61        0.4664   11.8691    8.5573 C.3       3 RES3    0.0000
    146 H70        1.0175   11.5182    7.8524 H         3 RES3    0.0000
    147 H71        0.8291   11.6085    9.4080 H         3 RES3    0.0000
    148 H72        0.4425   12.8272    8.4995 H         3 RES3    0.0000
    149 C62       -1.7599   11.8075    9.5677 C.3       3 RES3    0.0000
    150 H73       -1.8396   12.7616    9.5182 H         3 RES3    0.0000
    151 H74       -1.3304   11.5634   10.3910 H         3 RES3    0.0000
    152 H75       -2.6373   11.4116    9.5374 H         3 RES3    0.0000
    153 C63       -1.4561   11.7768    7.1228 C.3       3 RES3    0.0000
    154 H76       -2.2965   11.3603    6.9356 H         3 RES3    0.0000
    155 H77       -0.8227   11.5470    6.4345 H         3 RES3    0.0000
    156 H78       -1.5660   12.7308    7.1448 H         3 RES3    0.0000
@<TRIPOS>BOND
     1    1   10 2
     2    2   10 2
     3    3   41 2
     4    4   13 2
     5    5   13 2
     6    6   87 2
     7    7   16 2
     8    8   16 2
     9    9  133 2
    10   10   19 1
    11   11   12 1
    12   13   65 1
    13   14   15 1
    14   16  111 1
    15   17   18 1
    16   19   20 ar
    17   20   21 1
    18   22   20 ar
    19   23   11 1
    20   24   23 ar
    21   25   19 ar
    22   26   25 1
    23   27   24 1
    24   28   27 1
    25   29   27 1
    26   30   27 1
    27   31   30 1
    28   32   30 1
    29   33   30 1
    30   34   22 1
    31   35   34 1
    32   36   34 1
    33   37   34 1
    34   38   37 1
    35   39   37 1
    36   40   37 1
    37   41   11 1
    38   42   41 1
    39   43   42 ar
    40   44   43 1
    41   45   43 ar
    42   46   45 1
    43   47   45 ar
    44   48   47 ar
    45   49   48 1
    46   50   42 ar
    47   51   50 1
    48   52   47 1
    49   53   52 1
    50   54   53 1
    51   55   53 1
    52   56   53 1
    53   57   52 1
    54   58   57 1
    55   59   57 1
    56   60   57 1
    57   61   52 1
    58   62   61 1
    59   63   61 1
    60   64   61 1
    61   65   66 ar
    62   66   67 1
    63   68   66 ar
    64   69   14 1
    65   70   69 ar
    66   71   65 ar
    67   72   71 1
    68   73   70 1
    69   74   73 1
    70   75   73 1
    71   76   73 1
    72   77   76 1
    73   78   76 1
    74   79   76 1
    75   80   68 1
    76   81   80 1
    77   82   80 1
    78   83   80 1
    79   84   83 1
    80   85   83 1
    81   86   83 1
    82   87   14 1
    83   88   87 1
    84   89   88 ar
    85   90   89 1
    86   91   89 ar
    87   92   91 1
    88   93   91 ar
    89   94   93 ar
    90   95   94 1
    91   96   88 ar
    92   97   96 1
    93   98   93 1
    94   99   98 1
    95  100   99 1
    96  101   99 1
    97  102   99 1
    98  103   98 1
    99  104  103 1
   100  105  103 1
   101  106  103 1
   102  107   98 1
   103  108  107 1
   104  109  107 1
   105  110  107 1
   106  111  112 ar
   107  112  113 1
   108  114  112 ar
   109  115   17 1
   110  116  115 ar
   111  117  111 ar
   112  118  117 1
   113  119  114 1
   114  120  119 1
   115  121  119 1
   116  122  119 1
   117  123  122 1
   118  124  122 1
   119  125  122 1
   120  126  116 1
   121  127  126 1
   122  128  126 1
   123  129  126 1
   124  130  129 1
   125  131  129 1
   126  132  129 1
   127  133   17 1
   128  134  133 1
   129  135  134 ar
   130  136  135 1
   131  137  135 ar
   132  138  137 1
   133  139  137 ar
   134  140  139 ar
   135  141  140 1
   136  142  134 ar
   137  143  142 1
   138  144  139 1
   139  145  144 1
   140  146  145 1
   141  147  145 1
   142  148  145 1
   143  149  144 1
   144  150  149 1
   145  151  149 1
   146  152  149 1
   147  153  144 1
   148  154  153 1
   149  155  153 1
   150  156  153 1
   151   22   23 ar
   152   24   25 ar
   153   48   50 ar
   154   68   69 ar
   155   70   71 ar
   156   94   96 ar
   157  114  115 ar
   158  116  117 ar
   159  140  142 ar
@<TRIPOS>SUBSTRUCTURE
     1 RES1 1
     2 RES2 4
     3 RES3 7

@<TRIPOS>CRYSIN
  10.6010   20.5170   27.6230  90.0000  94.6250  90.0000 231 1

