# MOL2 file generated by ConQuest
# Please check atom types

@<TRIPOS>MOLECULE
ACAMOG
   142   119     2
SMALL
NO_CHARGES
****
Generated from CSD

@<TRIPOS>ATOM
      1 O1        12.3932    1.6994   17.1188 O.2       1 RES1    0.0000
      2 O2        12.0298   -0.2251   17.2607 O.2       1 RES1    0.0000
      3 O3        10.2095    0.7553   10.5684 O.3       1 RES1    0.0000
      4 N1        12.2925    0.7137   16.5711 N.2       1 RES1    0.0000
      5 N2        12.1733    0.3744   11.1671 N.2       1 RES1    0.0000
      6 H1        12.9647    0.2283   10.8611 H         1 RES1    0.0000
      7 C1        12.2004    0.6177   15.1874 C.2       1 RES1    0.0000
      8 C2        12.3869    1.7656   14.4268 C.2       1 RES1    0.0000
      9 H2        12.5012    2.5881   14.8459 H         1 RES1    0.0000
     10 C3        12.4042    1.6834   13.0387 C.2       1 RES1    0.0000
     11 C4        12.2322    0.4545   12.4133 C.2       1 RES1    0.0000
     12 C5        12.0457   -0.6934   13.1739 C.2       1 RES1    0.0000
     13 C6        12.0303   -0.6113   14.5621 C.2       1 RES1    0.0000
     14 H3        11.9053   -1.3794   15.0721 H         1 RES1    0.0000
     15 C7        12.5848    2.9657   12.2071 C.3       1 RES1    0.0000
     16 H4        12.7039    2.6915   11.2758 H         1 RES1    0.0000
     17 C8        13.8579    3.6634   12.6351 C.3       1 RES1    0.0000
     18 H5        14.2105    4.1605   11.8967 H         1 RES1    0.0000
     19 H6        14.5028    3.0094   12.9145 H         1 RES1    0.0000
     20 H7        13.6695    4.2565   13.3646 H         1 RES1    0.0000
     21 C9        11.3988    3.8778   12.2515 C.3       1 RES1    0.0000
     22 H8        10.5986    3.3615   12.4178 H         1 RES1    0.0000
     23 H9        11.3195    4.3419   11.4155 H         1 RES1    0.0000
     24 H10       11.5102    4.5126   12.9610 H         1 RES1    0.0000
     25 C10       11.8560   -2.0323   12.4776 C.3       1 RES1    0.0000
     26 H11       11.7464   -1.8722   11.5153 H         1 RES1    0.0000
     27 C11       10.6143   -2.7331   12.9987 C.3       1 RES1    0.0000
     28 H12        9.9520   -2.0781   13.2338 H         1 RES1    0.0000
     29 H13       10.8431   -3.2537   13.7749 H         1 RES1    0.0000
     30 H14       10.2645   -3.3177   12.3202 H         1 RES1    0.0000
     31 C12       13.0763   -2.9230   12.6839 C.3       1 RES1    0.0000
     32 H15       13.8540   -2.3758   12.7947 H         1 RES1    0.0000
     33 H16       13.1837   -3.4991   11.9255 H         1 RES1    0.0000
     34 H17       12.9534   -3.4564   13.4733 H         1 RES1    0.0000
     35 C13       11.3398    0.4331   10.1626 C.2       1 RES1    0.0000
     36 C14       11.7645    0.5131    8.5638 C.2       1 RES1    0.0000
     37 C15       10.6613    0.8097    7.7722 C.2       1 RES1    0.0000
     38 H18        9.8437    1.0081    8.1691 H         1 RES1    0.0000
     39 C16       10.7784    0.8108    6.3885 C.2       1 RES1    0.0000
     40 H19       10.0406    1.0092    5.8585 H         1 RES1    0.0000
     41 C17       11.9995    0.5142    5.7942 C.2       1 RES1    0.0000
     42 C18       13.1027    0.2176    6.5859 C.2       1 RES1    0.0000
     43 H20       13.9204    0.0192    6.1889 H         1 RES1    0.0000
     44 C19       12.9847    0.2166    7.9718 C.2       1 RES1    0.0000
     45 H21       13.7224    0.0181    8.5017 H         1 RES1    0.0000
     46 C20       12.1673    0.4619    4.3041 C.3       1 RES1    0.0000
     47 C21       11.0934    0.7265    3.5125 C.3       1 RES1    0.0000
     48 H22       10.2875    0.5014    3.9803 H         1 RES1    0.0000
     49 H23       11.1529    0.2134    2.7075 H         1 RES1    0.0000
     50 H24       11.0758    1.6610    3.3040 H         1 RES1    0.0000
     51 C22       13.4881    1.1169    3.8872 C.3       1 RES1    0.0000
     52 H25       14.2043    0.5014    4.0358 H         1 RES1    0.0000
     53 H26       13.6299    1.9096    4.4127 H         1 RES1    0.0000
     54 H27       13.4450    1.3655    2.9603 H         1 RES1    0.0000
     55 C23       12.5756   -1.1745    4.0203 C.3       1 RES1    0.0000
     56 H28       11.9104   -1.7432    4.4127 H         1 RES1    0.0000
     57 H29       13.4306   -1.3655    4.4127 H         1 RES1    0.0000
     58 H30       12.6165   -1.3335    3.0756 H         1 RES1    0.0000
     59 O4        14.2601    0.1344   10.5861 Du        2 SUP2    0.0000
     60 H31       11.3819    0.2784   10.8434 Du        2 SUP2    0.0000
     61 C24       13.1228    0.4139   10.2934 Du        2 SUP2    0.0000
     62 C25       12.9565    0.0224    8.5727 Du        2 SUP2    0.0000
     63 C26       11.7087    0.2806    8.0205 Du        2 SUP2    0.0000
     64 H32       10.9985    0.5227    8.5683 Du        2 SUP2    0.0000
     65 C27       11.5229    0.1750    6.6457 Du        2 SUP2    0.0000
     66 H33       10.6855    0.3467    6.2754 Du        2 SUP2    0.0000
     67 C28       12.5838   -0.1878    5.8253 Du        2 SUP2    0.0000
     68 C29       13.8325   -0.4449    6.3796 Du        2 SUP2    0.0000
     69 H34       14.5426   -0.6881    5.8319 Du        2 SUP2    0.0000
     70 C30       14.0193   -0.3403    7.7522 Du        2 SUP2    0.0000
     71 H35       14.8547   -0.5121    8.1226 Du        2 SUP2    0.0000
     72 C31       12.3627   -0.2294    4.3351 Du        2 SUP2    0.0000
     73 C32       11.3749    1.0871    3.9515 Du        2 SUP2    0.0000
     74 H36       11.3611    1.2055    2.9980 Du        2 SUP2    0.0000
     75 H37       11.7228    1.8818    4.3684 Du        2 SUP2    0.0000
     76 H38       10.4839    0.9281    4.2797 Du        2 SUP2    0.0000
     77 C33       13.6131    0.1451    3.6255 Du        2 SUP2    0.0000
     78 H39       14.3215   -0.4374    3.9027 Du        2 SUP2    0.0000
     79 H40       13.8447    1.0561    3.8362 Du        2 SUP2    0.0000
     80 H41       13.4811    0.0640    2.6787 Du        2 SUP2    0.0000
     81 C34       11.6592   -1.3516    3.8872 Du        2 SUP2    0.0000
     82 H42       10.9195   -1.0711    3.3484 Du        2 SUP2    0.0000
     83 H43       11.3213   -1.8456    4.6411 Du        2 SUP2    0.0000
     84 H44       12.2521   -1.9096    3.3705 Du        2 SUP2    0.0000
     85 O3F        9.3342    0.7553   11.6062 O.3       1 RES1    0.0000
     86 C13F       8.2039    0.4331   12.0120 C.2       1 RES1    0.0000
     87 N2F        7.3704    0.3744   11.0075 N.2       1 RES1    0.0000
     88 H1F        6.5791    0.2283   11.3135 H         1 RES1    0.0000
     89 C4F        7.3115    0.4545    9.7613 C.2       1 RES1    0.0000
     90 C3F        7.1395    1.6834    9.1359 C.2       1 RES1    0.0000
     91 C2F        7.1568    1.7656    7.7478 C.2       1 RES1    0.0000
     92 C1F        7.3433    0.6177    6.9872 C.2       1 RES1    0.0000
     93 N1F        7.2513    0.7137    5.6035 N.2       1 RES1    0.0000
     94 O1F        7.1505    1.6994    5.0558 O.2       1 RES1    0.0000
     95 O2F        7.5140   -0.2251    4.9139 O.2       1 RES1    0.0000
     96 C6F        7.5134   -0.6113    7.6125 C.2       1 RES1    0.0000
     97 C5F        7.4980   -0.6934    9.0007 C.2       1 RES1    0.0000
     98 C10F       7.6877   -2.0323    9.6969 C.3       1 RES1    0.0000
     99 H11F       7.7973   -1.8722   10.6593 H         1 RES1    0.0000
    100 C11F       8.9294   -2.7331    9.1758 C.3       1 RES1    0.0000
    101 H12F       9.5917   -2.0781    8.9408 H         1 RES1    0.0000
    102 H13F       8.7006   -3.2537    8.3997 H         1 RES1    0.0000
    103 H14F       9.2792   -3.3177    9.8544 H         1 RES1    0.0000
    104 C12F       6.4674   -2.9230    9.4907 C.3       1 RES1    0.0000
    105 H15F       5.6897   -2.3758    9.3799 H         1 RES1    0.0000
    106 H16F       6.3600   -3.4991   10.2491 H         1 RES1    0.0000
    107 H17F       6.5903   -3.4564    8.7013 H         1 RES1    0.0000
    108 H3F        7.6384   -1.3794    7.1025 H         1 RES1    0.0000
    109 H2F        7.0425    2.5881    7.3287 H         1 RES1    0.0000
    110 C7F        6.9589    2.9657    9.9675 C.3       1 RES1    0.0000
    111 H4F        6.8398    2.6915   10.8988 H         1 RES1    0.0000
    112 C8F        5.6858    3.6634    9.5395 C.3       1 RES1    0.0000
    113 H5F        5.3332    4.1605   10.2779 H         1 RES1    0.0000
    114 H6F        5.0409    3.0094    9.2601 H         1 RES1    0.0000
    115 H7F        5.8742    4.2565    8.8100 H         1 RES1    0.0000
    116 C9F        8.1450    3.8778    9.9231 C.3       1 RES1    0.0000
    117 H8F        8.9451    3.3615    9.7568 H         1 RES1    0.0000
    118 H9F        8.2242    4.3419   10.7591 H         1 RES1    0.0000
    119 H10F       8.0335    4.5126    9.2135 H         1 RES1    0.0000
    120 C14F       7.7792    0.5131   13.6108 C.2       1 RES1    0.0000
    121 C15F       8.8824    0.8097   14.4024 C.2       1 RES1    0.0000
    122 H18F       9.7000    1.0081   14.0055 H         1 RES1    0.0000
    123 C16F       8.7654    0.8108   15.7861 C.2       1 RES1    0.0000
    124 H19F       9.5031    1.0092   16.3161 H         1 RES1    0.0000
    125 C17F       7.5442    0.5142   16.3804 C.2       1 RES1    0.0000
    126 C18F       6.4410    0.2176   15.5887 C.2       1 RES1    0.0000
    127 H20F       5.6234    0.0192   15.9857 H         1 RES1    0.0000
    128 C19F       6.5590    0.2166   14.2028 C.2       1 RES1    0.0000
    129 H21F       5.8213    0.0181   13.6729 H         1 RES1    0.0000
    130 C20F       7.3764    0.4619   17.8705 C.3       1 RES1    0.0000
    131 C21F       8.4503    0.7265   18.6621 C.3       1 RES1    0.0000
    132 H22F       9.2562    0.5014   18.1943 H         1 RES1    0.0000
    133 H23F       8.3908    0.2134   19.4671 H         1 RES1    0.0000
    134 H24F       8.4679    1.6610   18.8706 H         1 RES1    0.0000
    135 C22F       6.0556    1.1169   18.2874 C.3       1 RES1    0.0000
    136 H25F       5.3394    0.5014   18.1388 H         1 RES1    0.0000
    137 H26F       5.9138    1.9096   17.7618 H         1 RES1    0.0000
    138 H27F       6.0987    1.3655   19.2143 H         1 RES1    0.0000
    139 C23F       6.9681   -1.1745   18.1543 C.3       1 RES1    0.0000
    140 H28F       7.6333   -1.7432   17.7618 H         1 RES1    0.0000
    141 H29F       6.1131   -1.3655   17.7618 H         1 RES1    0.0000
    142 H30F       6.9272   -1.3335   19.0990 H         1 RES1    0.0000
@<TRIPOS>BOND
     1    1    4 1
     2    2    4 1
     3    3   35 1
     4    4    7 1
     5    5    6 1
     6    7    8 1
     7    8    9 1
     8   10    8 1
     9   11    5 1
    10   12   11 1
    11   13    7 1
    12   14   13 1
    13   15   10 1
    14   16   15 1
    15   17   15 1
    16   18   17 1
    17   19   17 1
    18   20   17 1
    19   21   15 1
    20   22   21 1
    21   23   21 1
    22   24   21 1
    23   25   12 1
    24   26   25 1
    25   27   25 1
    26   28   27 1
    27   29   27 1
    28   30   27 1
    29   31   25 1
    30   32   31 1
    31   33   31 1
    32   34   31 1
    33   35    5 1
    34   36   35 1
    35   37   36 1
    36   38   37 1
    37   39   37 1
    38   40   39 1
    39   41   39 1
    40   42   41 1
    41   43   42 1
    42   44   36 1
    43   45   44 1
    44   46   41 1
    45   47   46 1
    46   48   47 1
    47   49   47 1
    48   50   47 1
    49   51   46 1
    50   52   51 1
    51   53   51 1
    52   54   51 1
    53   55   46 1
    54   56   55 1
    55   57   55 1
    56   58   55 1
    57   85    3 1
    58   86   85 1
    59   87   86 1
    60   88   87 1
    61   89   87 1
    62   90   89 1
    63   91   90 1
    64   92   91 1
    65   93   92 1
    66   94   93 1
    67   95   93 1
    68   96   92 1
    69   97   89 1
    70   98   97 1
    71   99   98 1
    72  100   98 1
    73  101  100 1
    74  102  100 1
    75  103  100 1
    76  104   98 1
    77  105  104 1
    78  106  104 1
    79  107  104 1
    80  108   96 1
    81  109   91 1
    82  110   90 1
    83  111  110 1
    84  112  110 1
    85  113  112 1
    86  114  112 1
    87  115  112 1
    88  116  110 1
    89  117  116 1
    90  118  116 1
    91  119  116 1
    92  120   86 1
    93  121  120 1
    94  122  121 1
    95  123  121 1
    96  124  123 1
    97  125  123 1
    98  126  125 1
    99  127  126 1
   100  128  120 1
   101  129  128 1
   102  130  125 1
   103  131  130 1
   104  132  131 1
   105  133  131 1
   106  134  131 1
   107  135  130 1
   108  136  135 1
   109  137  135 1
   110  138  135 1
   111  139  130 1
   112  140  139 1
   113  141  139 1
   114  142  139 1
   115   10   11 1
   116   12   13 1
   117   42   44 1
   118   96   97 1
   119  126  128 1
@<TRIPOS>SUBSTRUCTURE
     1 RES1 1
     2 SUP2 59

