# MOL2 file generated by ConQuest
# Please check atom types

@<TRIPOS>MOLECULE
ACEMUR
    34    36     1
SMALL
NO_CHARGES
****
Generated from CSD

@<TRIPOS>ATOM
      1 O1         3.7201    6.4060    7.7037 O.2       1 RES1    0.0000
      2 O2         5.6006    5.8336    8.6002 O.2       1 RES1    0.0000
      3 O3         6.8889    1.2617    9.0739 O.2       1 RES1    0.0000
      4 O4         5.3936   -0.2584    8.7466 O.2       1 RES1    0.0000
      5 O5        -4.4730    3.3369    2.9325 O.3       1 RES1    0.0000
      6 O6        -3.0074    1.6941    3.6272 O.3       1 RES1    0.0000
      7 N1         2.0636    4.6170    6.7288 N.pl3     1 RES1    0.0000
      8 H1         2.2231    5.4244    6.7253 H         1 RES1    0.0000
      9 N2         0.9621    4.1100    6.0544 N.2       1 RES1    0.0000
     10 N3         4.5310    5.5464    8.0675 N.pl3     1 RES1    0.0000
     11 N4         5.7794    0.9113    8.7037 N.pl3     1 RES1    0.0000
     12 C1         2.9964    3.7529    7.2188 C.ar      1 RES1    0.0000
     13 C2         4.2007    4.1591    7.8657 C.ar      1 RES1    0.0000
     14 C3         5.1294    3.2292    8.3287 C.ar      1 RES1    0.0000
     15 H2         5.9254    3.5383    8.7102 H         1 RES1    0.0000
     16 C4         4.8574    1.9009    8.1755 C.ar      1 RES1    0.0000
     17 C5         3.6852    1.4700    7.5519 C.ar      1 RES1    0.0000
     18 H3         3.5143    0.4880    7.4845 H         1 RES1    0.0000
     19 C6         2.7798    2.3670    7.0875 C.ar      1 RES1    0.0000
     20 H4         2.0090    2.0670    6.6833 H         1 RES1    0.0000
     21 C7        -1.0181    4.5603    4.7989 C.ar      1 RES1    0.0000
     22 C8        -1.8981    5.5398    4.3600 C.ar      1 RES1    0.0000
     23 H5        -1.6317    6.4177    4.4594 H         1 RES1    0.0000
     24 C9        -3.1066    5.2378    3.7149 C.ar      1 RES1    0.0000
     25 H6        -3.6954    5.9167    3.4076 H         1 RES1    0.0000
     26 C10       -3.3763    3.9133    3.5441 C.ar      1 RES1    0.0000
     27 C11       -2.4995    2.9302    3.9674 C.ar      1 RES1    0.0000
     28 C12       -1.3190    3.2061    4.5937 C.ar      1 RES1    0.0000
     29 H7        -0.7546    2.5134    4.8361 H         1 RES1    0.0000
     30 C13        0.1941    4.9765    5.5120 C.2       1 RES1    0.0000
     31 H8         0.3997    5.8708    5.5750 H         1 RES1    0.0000
     32 C14       -4.3399    1.9335    3.1526 C.3       1 RES1    0.0000
     33 H9        -4.4317    1.4498    2.2167 H         1 RES1    0.0000
     34 H10       -4.9400    1.6938    3.8669 H         1 RES1    0.0000
@<TRIPOS>BOND
     1    1   10 2
     2    2   10 2
     3    3   11 2
     4    4   11 2
     5    5   26 1
     6    6   27 1
     7    7    8 1
     8    9    7 1
     9   10   13 1
    10   11   16 1
    11   12    7 1
    12   13   12 ar
    13   14   13 ar
    14   15   14 1
    15   16   14 ar
    16   17   16 ar
    17   18   17 1
    18   19   12 ar
    19   20   19 1
    20   21   22 ar
    21   22   23 1
    22   24   22 ar
    23   25   24 1
    24   26   24 ar
    25   27   26 ar
    26   28   21 ar
    27   29   28 1
    28   30    9 2
    29   31   30 1
    30   32    5 1
    31   33   32 1
    32   34   32 1
    33    6   32 1
    34   17   19 ar
    35   21   30 1
    36   27   28 ar
@<TRIPOS>SUBSTRUCTURE
     1 RES1 1

@<TRIPOS>CRYSIN
   6.6064   14.3540   14.5490  90.0000  95.2470  90.0000  14 1

