# MOL2 file generated by ConQuest
# Please check atom types

@<TRIPOS>MOLECULE
ACENUS
    29    30     1
SMALL
NO_CHARGES
****
Generated from CSD

@<TRIPOS>ATOM
      1 N1        -0.6372    6.9289    5.5564 N.pl3     1 RES1    0.0000
      2 O1        -1.8473    6.7814    5.3877 O.2       1 RES1    0.0000
      3 O2        -0.0964    8.0275    5.6567 O.2       1 RES1    0.0000
      4 O3         2.3856    2.2640    5.9137 O.3       1 RES1    0.0000
      5 O4         4.4690    2.7461    4.9863 O.3       1 RES1    0.0000
      6 C1         0.1983    5.7354    5.6547 C.ar      1 RES1    0.0000
      7 C2        -0.4103    4.4985    5.5165 C.ar      1 RES1    0.0000
      8 H1        -1.3456    4.4331    5.3620 H         1 RES1    0.0000
      9 C3         0.3652    3.3661    5.6068 C.ar      1 RES1    0.0000
     10 H2        -0.0370    2.5106    5.5170 H         1 RES1    0.0000
     11 C4         1.7357    3.4651    5.8286 C.ar      1 RES1    0.0000
     12 C5         2.3365    4.7132    5.9514 C.ar      1 RES1    0.0000
     13 H3         3.2736    4.7821    6.0918 H         1 RES1    0.0000
     14 C6         1.5559    5.8544    5.8667 C.ar      1 RES1    0.0000
     15 H4         1.9529    6.7133    5.9547 H         1 RES1    0.0000
     16 C7         3.8040    2.2653    6.1249 C.3       1 RES1    0.0000
     17 H5         4.0136    2.8662    6.8964 H         1 RES1    0.0000
     18 C8         4.1934    0.8541    6.4898 C.3       1 RES1    0.0000
     19 H6         3.5950    0.5267    7.2063 H         1 RES1    0.0000
     20 H7         5.1188    0.8537    6.8421 H         1 RES1    0.0000
     21 C9         4.1127   -0.0838    5.3084 C.3       1 RES1    0.0000
     22 H8         3.1648   -0.2260    5.0607 H         1 RES1    0.0000
     23 H9         4.5021   -0.9612    5.5521 H         1 RES1    0.0000
     24 C10        4.8656    0.4973    4.1270 C.3       1 RES1    0.0000
     25 H10        5.8333    0.5333    4.3323 H         1 RES1    0.0000
     26 H11        4.7387   -0.0812    3.3330 H         1 RES1    0.0000
     27 C11        4.3559    1.8872    3.8323 C.3       1 RES1    0.0000
     28 H12        4.8740    2.2736    3.0833 H         1 RES1    0.0000
     29 H13        3.4068    1.8369    3.5535 H         1 RES1    0.0000
@<TRIPOS>BOND
     1    1    2 2
     2    3    1 2
     3    4   11 1
     4    5   16 1
     5    6    1 1
     6    7    6 ar
     7    8    7 1
     8    9    7 ar
     9   10    9 1
    10   11    9 ar
    11   12   11 ar
    12   13   12 1
    13   14    6 ar
    14   15   14 1
    15   16    4 1
    16   17   16 1
    17   18   16 1
    18   19   18 1
    19   20   18 1
    20   21   18 1
    21   22   21 1
    22   23   21 1
    23   24   21 1
    24   25   24 1
    25   26   24 1
    26   27    5 1
    27   28   27 1
    28   29   27 1
    29   12   14 ar
    30   24   27 1
@<TRIPOS>SUBSTRUCTURE
     1 RES1 1

@<TRIPOS>CRYSIN
   7.4772   21.9462    6.7828  90.0000 102.4910  90.0000  14 1

