# MOL2 file generated by ConQuest
# Please check atom types

@<TRIPOS>MOLECULE
ACEOXM
     5     4     1
SMALL
NO_CHARGES
****
Generated from CSD

@<TRIPOS>ATOM
      1 O1         3.2838    2.2512    1.7550 O.3       1 RES1    0.0000
      2 N1         4.2705    1.3140    1.7550 N.2       1 RES1    0.0000
      3 C1         3.7719    0.1195    1.7550 C.2       1 RES1    0.0000
      4 C2         2.3501   -0.3400    1.7550 C.3       1 RES1    0.0000
      5 C3         4.8488   -0.9924    1.7550 C.3       1 RES1    0.0000
@<TRIPOS>BOND
     1    1    2 1
     2    2    3 2
     3    3    4 1
     4    5    3 1
@<TRIPOS>SUBSTRUCTURE
     1 RES1 1

@<TRIPOS>CRYSIN
  10.6100   10.6100    7.0200  90.0000  90.0000 120.0000 176 1

