# MOL2 file generated by ConQuest
# Please check atom types

@<TRIPOS>MOLECULE
ACEOXM01
    36    33     3
SMALL
NO_CHARGES
****
Generated from CSD

@<TRIPOS>ATOM
      1 O1        -2.0507   -2.4198   -0.5977 O.3       1 RES1    0.0000
      2 H1        -1.9529   -1.9357    0.0702 H         1 RES1    0.0000
      3 N1        -2.1425   -3.7439   -0.2005 N.2       1 RES1    0.0000
      4 C1        -2.3676   -4.5289   -1.1873 C.2       1 RES1    0.0000
      5 C2        -2.5070   -4.1102   -2.6142 C.3       1 RES1    0.0000
      6 H2        -2.6322   -3.1492   -2.6579 H         1 RES1    0.0000
      7 H3        -3.2736   -4.5549   -3.0087 H         1 RES1    0.0000
      8 H4        -1.7055   -4.3546   -3.1026 H         1 RES1    0.0000
      9 C3        -2.4769   -5.9623   -0.8711 C.3       1 RES1    0.0000
     10 H5        -2.3677   -6.0926    0.0838 H         1 RES1    0.0000
     11 H6        -1.7861   -6.4518   -1.3449 H         1 RES1    0.0000
     12 H7        -3.3488   -6.2891   -1.1445 H         1 RES1    0.0000
     13 O2        -1.3041   -1.1134    2.9349 O.3       2 RES2    0.0000
     14 H8        -1.3445   -1.9368    3.0224 H         2 RES2    0.0000
     15 N2        -1.6040   -0.7681    1.6128 N.2       2 RES2    0.0000
     16 C4        -1.4633    0.4874    1.3932 C.2       2 RES2    0.0000
     17 C5        -1.0126    1.4889    2.3873 C.3       2 RES2    0.0000
     18 H9        -1.2076    1.1666    3.2812 H         2 RES2    0.0000
     19 H10       -1.4788    2.3260    2.2361 H         2 RES2    0.0000
     20 H11       -0.0574    1.6282    2.2944 H         2 RES2    0.0000
     21 C6        -1.7475    0.9449    0.0046 C.3       2 RES2    0.0000
     22 H12       -2.0549    0.1937   -0.5267 H         2 RES2    0.0000
     23 H13       -0.9385    1.3083   -0.3882 H         2 RES2    0.0000
     24 H14       -2.4339    1.6303    0.0237 H         2 RES2    0.0000
     25 O3        -2.0999   -4.8341    2.3764 O.3       3 RES3    0.0000
     26 H15       -2.1222   -4.5004    1.6164 H         3 RES3    0.0000
     27 N3        -1.7663   -3.8435    3.3113 N.2       3 RES3    0.0000
     28 C7        -1.7049   -4.2939    4.4976 C.2       3 RES3    0.0000
     29 C8        -1.9832   -5.6996    4.8867 C.3       3 RES3    0.0000
     30 H16       -2.9366   -5.8158    5.0216 H         3 RES3    0.0000
     31 H17       -1.5121   -5.9074    5.7086 H         3 RES3    0.0000
     32 H18       -1.6822   -6.2954    4.1824 H         3 RES3    0.0000
     33 C9        -1.3698   -3.3232    5.5737 C.3       3 RES3    0.0000
     34 H19       -0.5477   -3.5958    6.0102 H         3 RES3    0.0000
     35 H20       -2.0898   -3.3001    6.2234 H         3 RES3    0.0000
     36 H21       -1.2540   -2.4403    5.1883 H         3 RES3    0.0000
@<TRIPOS>BOND
     1    1    2 1
     2    3    1 1
     3    4    3 2
     4    5    4 1
     5    6    5 1
     6    7    5 1
     7    8    5 1
     8    9    4 1
     9   10    9 1
    10   11    9 1
    11   12    9 1
    12   13   14 1
    13   15   13 1
    14   16   15 2
    15   17   16 1
    16   18   17 1
    17   19   17 1
    18   20   17 1
    19   21   16 1
    20   22   21 1
    21   23   21 1
    22   24   21 1
    23   25   26 1
    24   27   25 1
    25   28   27 2
    26   29   28 1
    27   30   29 1
    28   31   29 1
    29   32   29 1
    30   33   28 1
    31   34   33 1
    32   35   33 1
    33   36   33 1
@<TRIPOS>SUBSTRUCTURE
     1 RES1 1
     2 RES2 13
     3 RES3 25

@<TRIPOS>CRYSIN
   7.0060   10.4820   10.5800  60.4890  79.6100  83.4530   2 1

