# MOL2 file generated by ConQuest
# Please check atom types

@<TRIPOS>MOLECULE
ACERIK
    31    32     1
SMALL
NO_CHARGES
****
Generated from CSD

@<TRIPOS>ATOM
      1 O1        -0.3113    2.3217    4.3720 O.2       1 RES1    0.0000
      2 O2        -0.0890    0.6671    5.7349 O.2       1 RES1    0.0000
      3 O3         4.5674    8.0849   11.8916 O.2       1 RES1    0.0000
      4 O4         4.3777   10.0353   12.7236 O.2       1 RES1    0.0000
      5 N1         1.9695    5.3462    9.3335 N.pl3     1 RES1    0.0000
      6 H1         2.1725    5.0330   10.1078 H         1 RES1    0.0000
      7 N2         2.1413    6.6605    9.0738 N.2       1 RES1    0.0000
      8 N3        -0.0066    1.8593    5.4813 N.pl3     1 RES1    0.0000
      9 N4         4.1798    9.2317   11.8345 N.pl3     1 RES1    0.0000
     10 C1         1.4733    4.5093    8.3673 C.ar      1 RES1    0.0000
     11 C2         1.3673    3.1450    8.6520 C.ar      1 RES1    0.0000
     12 H2         1.6401    2.8235    9.4806 H         1 RES1    0.0000
     13 C3         0.8643    2.2802    7.7190 C.ar      1 RES1    0.0000
     14 H3         0.7888    1.3731    7.9103 H         1 RES1    0.0000
     15 C4         0.4679    2.7735    6.4863 C.ar      1 RES1    0.0000
     16 C5         0.5576    4.1216    6.1916 C.ar      1 RES1    0.0000
     17 H4         0.2776    4.4359    5.3625 H         1 RES1    0.0000
     18 C6         1.0588    4.9913    7.1196 C.ar      1 RES1    0.0000
     19 H5         1.1244    5.8984    6.9226 H         1 RES1    0.0000
     20 C7         2.6462    7.3722   10.0032 C.2       1 RES1    0.0000
     21 H6         2.8886    6.9923   10.8172 H         1 RES1    0.0000
     22 C8         2.8357    8.8034    9.7583 C.ar      1 RES1    0.0000
     23 C9         3.4808    9.6943   10.6260 C.ar      1 RES1    0.0000
     24 C10        3.5439   11.0536   10.3750 C.ar      1 RES1    0.0000
     25 H7         3.9606   11.6203   10.9830 H         1 RES1    0.0000
     26 C11        2.9913   11.5628    9.2294 C.ar      1 RES1    0.0000
     27 H8         3.0308   12.4761    9.0566 H         1 RES1    0.0000
     28 C12        2.3744   10.7096    8.3318 C.ar      1 RES1    0.0000
     29 H9         2.0127   11.0486    7.5455 H         1 RES1    0.0000
     30 C13        2.2945    9.3670    8.5964 C.ar      1 RES1    0.0000
     31 H10        1.8664    8.8126    7.9839 H         1 RES1    0.0000
@<TRIPOS>BOND
     1    1    8 2
     2    2    8 2
     3    3    9 2
     4    4    9 2
     5    5    6 1
     6    7    5 1
     7    8   15 1
     8    9   23 1
     9   10    5 1
    10   11   10 ar
    11   12   11 1
    12   13   11 ar
    13   14   13 1
    14   15   13 ar
    15   16   15 ar
    16   17   16 1
    17   18   10 ar
    18   19   18 1
    19   20    7 2
    20   21   20 1
    21   22   20 1
    22   23   22 ar
    23   24   23 ar
    24   25   24 1
    25   26   24 ar
    26   27   26 1
    27   28   26 ar
    28   29   28 1
    29   30   22 ar
    30   31   30 1
    31   16   18 ar
    32   28   30 ar
@<TRIPOS>SUBSTRUCTURE
     1 RES1 1

@<TRIPOS>CRYSIN
   7.2570   12.0869   14.4455  90.0000  93.4650  90.0000 231 1

