# MOL2 file generated by ConQuest
# Please check atom types

@<TRIPOS>MOLECULE
ACEREG
    42    44     1
SMALL
NO_CHARGES
****
Generated from CSD

@<TRIPOS>ATOM
      1 N1        -2.0916    3.7063    2.5569 N.am      1 RES1    0.0000
      2 C1        -3.3120    3.5670    1.9037 C.2       1 RES1    0.0000
      3 O1        -3.3839    3.0204    0.8095 O.2       1 RES1    0.0000
      4 C2        -4.3977    4.1640    2.5852 C.2       1 RES1    0.0000
      5 H1        -5.2284    4.1676    2.1667 H         1 RES1    0.0000
      6 C3        -4.3008    4.7319    3.8125 C.2       1 RES1    0.0000
      7 C4        -3.0391    4.7206    4.4936 C.2       1 RES1    0.0000
      8 C5        -3.0008    5.2452    5.9159 C.3       1 RES1    0.0000
      9 H2        -3.3593    4.5670    6.5088 H         1 RES1    0.0000
     10 H3        -3.5763    6.0238    5.9767 H         1 RES1    0.0000
     11 C6        -1.5991    5.6300    6.3968 C.3       1 RES1    0.0000
     12 H4        -1.5450    6.5984    6.4043 H         1 RES1    0.0000
     13 H5        -1.5101    5.3323    7.3160 H         1 RES1    0.0000
     14 C7        -0.3947    5.1033    5.6205 C.3       1 RES1    0.0000
     15 H6         0.1200    5.8783    5.3465 H         1 RES1    0.0000
     16 H7         0.1539    4.6154    6.2539 H         1 RES1    0.0000
     17 C8        -0.5353    4.2339    4.4145 C.3       1 RES1    0.0000
     18 H8        -0.2883    3.3260    4.6491 H         1 RES1    0.0000
     19 H9         0.0788    4.5408    3.7300 H         1 RES1    0.0000
     20 C9        -1.9586    4.2325    3.8458 C.2       1 RES1    0.0000
     21 C10       -5.5069    5.3409    4.4529 C.3       1 RES1    0.0000
     22 H10       -6.2782    5.1700    3.9080 H         1 RES1    0.0000
     23 H11       -5.3793    6.2884    4.5393 H         1 RES1    0.0000
     24 H12       -5.6367    4.9554    5.3220 H         1 RES1    0.0000
     25 C11       -0.9444    3.1934    1.8319 C.3       1 RES1    0.0000
     26 H13       -0.1726    3.7403    2.0452 H         1 RES1    0.0000
     27 H14       -1.1127    3.2796    0.8808 H         1 RES1    0.0000
     28 C12       -0.6143    1.7523    2.1353 C.2       1 RES1    0.0000
     29 O2        -1.2811    1.1265    2.9282 O.2       1 RES1    0.0000
     30 C13        0.5383    1.1413    1.4468 C.ar      1 RES1    0.0000
     31 C14        0.8755   -0.1889    1.7100 C.ar      1 RES1    0.0000
     32 H15        0.3910   -0.6594    2.3502 H         1 RES1    0.0000
     33 C15        1.8968   -0.8194    1.0546 C.ar      1 RES1    0.0000
     34 H16        2.0864   -1.7093    1.2465 H         1 RES1    0.0000
     35 C16        2.6470   -0.1505    0.1145 C.ar      1 RES1    0.0000
     36 H17        3.3380   -0.5758   -0.3412 H         1 RES1    0.0000
     37 C17        2.3390    1.1743   -0.1290 C.ar      1 RES1    0.0000
     38 C18        1.2895    1.8315    0.5139 C.ar      1 RES1    0.0000
     39 H18        1.0983    2.7207    0.3178 H         1 RES1    0.0000
     40 N2         3.1030    1.8827   -1.1434 N.pl3     1 RES1    0.0000
     41 O3         2.8845    3.0850   -1.3038 O.2       1 RES1    0.0000
     42 O4         3.9364    1.3018   -1.7864 O.2       1 RES1    0.0000
@<TRIPOS>BOND
     1    1    2 1
     2    2    3 2
     3    4    2 1
     4    5    4 1
     5    6    4 2
     6    7    6 1
     7    8    7 1
     8    9    8 1
     9   10    8 1
    10   11    8 1
    11   12   11 1
    12   13   11 1
    13   14   11 1
    14   15   14 1
    15   16   14 1
    16   17   14 1
    17   18   17 1
    18   19   17 1
    19   20    1 1
    20   21    6 1
    21   22   21 1
    22   23   21 1
    23   24   21 1
    24   25    1 1
    25   26   25 1
    26   27   25 1
    27   28   25 1
    28   29   28 2
    29   30   28 1
    30   31   30 ar
    31   32   31 1
    32   33   31 ar
    33   34   33 1
    34   35   33 ar
    35   36   35 1
    36   37   35 ar
    37   38   30 ar
    38   39   38 1
    39   40   37 1
    40   41   40 2
    41   42   40 2
    42    7   20 2
    43   17   20 1
    44   37   38 ar
@<TRIPOS>SUBSTRUCTURE
     1 RES1 1

@<TRIPOS>CRYSIN
   9.1150    9.2710   11.2480  92.0000 105.0900 118.8200   2 1

