# MOL2 file generated by ConQuest
# Please check atom types

@<TRIPOS>MOLECULE
ACIKON
    35    40     1
SMALL
NO_CHARGES
****
Generated from CSD

@<TRIPOS>ATOM
      1 O1        -1.6884    3.7439   -2.2898 O.2       1 RES1    0.0000
      2 O2        -1.0196    3.8970   -0.1390 O.3       1 RES1    0.0000
      3 O3         5.6559   -1.4406    2.1985 O.3       1 RES1    0.0000
      4 N1         2.0442    2.5783    0.9186 N.3       1 RES1    0.0000
      5 N2         0.2423    3.8773    0.5784 N.3       1 RES1    0.0000
      6 N3         0.5626    4.0040   -1.7034 N.am      1 RES1    0.0000
      7 C1         0.6096    2.4219    0.7928 C.3       1 RES1    0.0000
      8 C2         2.4712    3.4920   -0.1509 C.3       1 RES1    0.0000
      9 C3         1.2356    4.3514   -0.4460 C.3       1 RES1    0.0000
     10 C4        -0.7930    3.8542   -1.4851 C.2       1 RES1    0.0000
     11 C5         5.2017   -2.7577    2.4777 C.3       1 RES1    0.0000
     12 C6         4.6924   -0.5400    1.8768 C.ar      1 RES1    0.0000
     13 C7         5.1363    0.7326    1.6307 C.ar      1 RES1    0.0000
     14 C8         4.2675    1.7584    1.3051 C.ar      1 RES1    0.0000
     15 C9         2.9013    1.5065    1.2137 C.ar      1 RES1    0.0000
     16 C10        2.4683    0.2338    1.4665 C.ar      1 RES1    0.0000
     17 C11        3.3498   -0.7903    1.8014 C.ar      1 RES1    0.0000
     18 C12       -0.0992    1.8999    2.0065 C.ar      1 RES1    0.0000
     19 C13        0.2427    2.3214    3.2732 C.ar      1 RES1    0.0000
     20 C14       -0.4188    1.8670    4.3572 C.ar      1 RES1    0.0000
     21 C15       -1.4559    1.0125    4.2196 C.ar      1 RES1    0.0000
     22 C16       -1.8537    0.5450    2.9873 C.ar      1 RES1    0.0000
     23 C17       -1.1579    1.0092    1.8689 C.ar      1 RES1    0.0000
     24 C18        1.4411    5.8546   -0.2925 C.ar      1 RES1    0.0000
     25 C19        1.9878    6.2909    0.9199 C.ar      1 RES1    0.0000
     26 C20        2.2434    7.6245    1.1370 C.ar      1 RES1    0.0000
     27 C21        1.9520    8.5448    0.1509 C.ar      1 RES1    0.0000
     28 C22        1.3940    8.1365   -1.0284 C.ar      1 RES1    0.0000
     29 C23        1.1404    6.7848   -1.2442 C.ar      1 RES1    0.0000
     30 C24        1.1931    3.8081   -2.9582 C.ar      1 RES1    0.0000
     31 C25        2.3284    4.4996   -3.2957 C.ar      1 RES1    0.0000
     32 C26        2.9083    4.3267   -4.5147 C.ar      1 RES1    0.0000
     33 C27        2.3912    3.4443   -5.4148 C.ar      1 RES1    0.0000
     34 C28        1.3073    2.6952   -5.0667 C.ar      1 RES1    0.0000
     35 C29        0.6759    2.8796   -3.8569 C.ar      1 RES1    0.0000
@<TRIPOS>BOND
     1    1   10 2
     2    2    5 1
     3    3   11 1
     4    4    7 1
     5    5    7 1
     6    6    9 1
     7    7   18 1
     8    8    4 1
     9    9    5 1
    10   10    2 1
    11   12    3 1
    12   13   12 ar
    13   14   13 ar
    14   15    4 1
    15   16   15 ar
    16   17   12 ar
    17   18   19 ar
    18   19   20 ar
    19   20   21 ar
    20   21   22 ar
    21   22   23 ar
    22   23   18 ar
    23   24    9 1
    24   25   24 ar
    25   26   25 ar
    26   27   26 ar
    27   28   27 ar
    28   29   24 ar
    29   30    6 1
    30   31   30 ar
    31   32   31 ar
    32   33   32 ar
    33   34   33 ar
    34   35   30 ar
    35    6   10 1
    36    8    9 1
    37   14   15 ar
    38   16   17 ar
    39   28   29 ar
    40   34   35 ar
@<TRIPOS>SUBSTRUCTURE
     1 RES1 1

@<TRIPOS>CRYSIN
  10.8120   16.4640   13.3790  90.0000  98.3900  90.0000 231 1

