# MOL2 file generated by ConQuest
# Please check atom types

@<TRIPOS>MOLECULE
ACNCHL
    83    87     1
SMALL
NO_CHARGES
****
Generated from CSD

@<TRIPOS>ATOM
      1 C1         4.3872    1.5093    3.8249 C.3       1 RES1    0.0000
      2 C2         2.8785    1.5491    3.5458 C.3       1 RES1    0.0000
      3 C3         2.6747    2.3448    2.2947 C.3       1 RES1    0.0000
      4 C4         3.3262    1.6463    1.1237 C.3       1 RES1    0.0000
      5 C5         4.8180    1.4465    1.3421 C.3       1 RES1    0.0000
      6 C6         5.7568    2.2536    0.5060 C.3       1 RES1    0.0000
      7 C7         7.1624    2.5301    0.9465 C.3       1 RES1    0.0000
      8 C8         7.6985    1.4115    1.8518 C.3       1 RES1    0.0000
      9 C9         6.7468    1.2128    3.0556 C.3       1 RES1    0.0000
     10 C10        5.2526    0.8730    2.7049 C.3       1 RES1    0.0000
     11 C11        7.3632    0.2391    4.0713 C.3       1 RES1    0.0000
     12 C12        8.7860    0.6315    4.5178 C.3       1 RES1    0.0000
     13 C13        9.7394    0.7818    3.3226 C.3       1 RES1    0.0000
     14 C14        9.0795    1.8105    2.3785 C.3       1 RES1    0.0000
     15 C15       10.1758    2.1643    1.3676 C.3       1 RES1    0.0000
     16 C16       11.4742    2.1021    2.2158 C.3       1 RES1    0.0000
     17 C17       11.0920    1.4954    3.5980 C.3       1 RES1    0.0000
     18 C18        9.9737   -0.5639    2.6357 C.3       1 RES1    0.0000
     19 C19        4.9804   -0.6297    2.6612 C.3       1 RES1    0.0000
     20 C20       12.2576    0.6991    4.2011 C.3       1 RES1    0.0000
     21 C21       11.8805   -0.0223    5.5056 C.3       1 RES1    0.0000
     22 C22       13.4515    1.6161    4.4414 C.3       1 RES1    0.0000
     23 C23       14.7619    0.8754    4.7108 C.3       1 RES1    0.0000
     24 C24       15.9595    1.8057    4.7654 C.3       1 RES1    0.0000
     25 C25       17.2881    1.1688    4.9668 C.3       1 RES1    0.0000
     26 C26       17.6345    0.3025    3.7558 C.3       1 RES1    0.0000
     27 C27       18.3469    2.2065    5.1622 C.3       1 RES1    0.0000
     28 C28        0.7955    3.6325    1.6406 C.2       1 RES1    0.0000
     29 C29       -0.6533    3.6005    1.2657 C.3       1 RES1    0.0000
     30 O1         1.2518    2.4492    1.9950 O.3       1 RES1    0.0000
     31 O2         1.4772    4.5863    1.6224 O.2       1 RES1    0.0000
     32 O3         4.1077   -0.4872   -0.9210 O.2       1 RES1    0.0000
     33 O4         4.8454    1.2919   -1.9380 O.2       1 RES1    0.0000
     34 N1         5.5464    0.8385    0.1760 N.3       1 RES1    0.0000
     35 N2         4.7429    0.5500   -0.9829 N.pl3     1 RES1    0.0000
     36 H1         4.5405    1.0275    4.6550 H         1 RES1    0.0000
     37 H2         4.6710    2.4100    3.9609 H         1 RES1    0.0000
     38 H3         2.5446    0.6206    3.4063 H         1 RES1    0.0000
     39 H4         2.3739    1.8884    4.2849 H         1 RES1    0.0000
     40 H5         3.0366    3.1966    2.4573 H         1 RES1    0.0000
     41 H6         2.9087    0.7758    0.9538 H         1 RES1    0.0000
     42 H7         3.1932    2.1618    0.3155 H         1 RES1    0.0000
     43 H8         5.3522    2.8627   -0.0752 H         1 RES1    0.0000
     44 H9         7.1987    3.3288    1.4295 H         1 RES1    0.0000
     45 H10        7.7265    2.5941    0.1675 H         1 RES1    0.0000
     46 H11        7.7661    0.5633    1.3276 H         1 RES1    0.0000
     47 H12        6.7183    2.0266    3.5179 H         1 RES1    0.0000
     48 H13        7.4216   -0.6617    3.6332 H         1 RES1    0.0000
     49 H14        6.7927    0.1201    4.8176 H         1 RES1    0.0000
     50 H15        9.1296   -0.0507    5.1282 H         1 RES1    0.0000
     51 H16        8.7340    1.4434    4.9899 H         1 RES1    0.0000
     52 H17        8.9349    2.5627    2.8966 H         1 RES1    0.0000
     53 H18       10.0264    3.0070    1.0084 H         1 RES1    0.0000
     54 H19       10.1855    1.5044    0.6541 H         1 RES1    0.0000
     55 H20       11.8565    2.9533    2.3008 H         1 RES1    0.0000
     56 H21       12.1288    1.5189    1.7729 H         1 RES1    0.0000
     57 H22       10.8824    2.2047    4.1975 H         1 RES1    0.0000
     58 H23        9.1360   -0.9979    2.4598 H         1 RES1    0.0000
     59 H24       10.4282   -0.4467    1.8020 H         1 RES1    0.0000
     60 H25       10.4992   -1.1446    3.1854 H         1 RES1    0.0000
     61 H26        5.2388   -1.0794    3.4694 H         1 RES1    0.0000
     62 H27        4.0492   -0.8253    2.5059 H         1 RES1    0.0000
     63 H28        5.4691   -1.0800    1.9355 H         1 RES1    0.0000
     64 H29       12.5166    0.0030    3.5713 H         1 RES1    0.0000
     65 H30       11.6189    0.6309    6.1500 H         1 RES1    0.0000
     66 H31       11.1611   -0.6230    5.3600 H         1 RES1    0.0000
     67 H32       12.6307   -0.5059    5.8418 H         1 RES1    0.0000
     68 H33       13.2807    2.1377    5.2265 H         1 RES1    0.0000
     69 H34       13.5761    2.1751    3.7036 H         1 RES1    0.0000
     70 H35       14.9022    0.1763    3.9669 H         1 RES1    0.0000
     71 H36       14.6815    0.2898    5.5020 H         1 RES1    0.0000
     72 H37       15.9695    2.3031    3.9524 H         1 RES1    0.0000
     73 H38       15.7739    2.4094    5.4886 H         1 RES1    0.0000
     74 H39       17.3039    0.5940    5.7653 H         1 RES1    0.0000
     75 H40       17.0126   -0.4256    3.5847 H         1 RES1    0.0000
     76 H41       17.6552    0.8186    2.9148 H         1 RES1    0.0000
     77 H42       18.5226   -0.1304    3.7837 H         1 RES1    0.0000
     78 H43       19.2211    1.8141    5.2496 H         1 RES1    0.0000
     79 H44       18.3890    2.7348    4.3176 H         1 RES1    0.0000
     80 H45       18.1626    2.7776    5.8515 H         1 RES1    0.0000
     81 H46       -0.9310    4.4372    0.9781 H         1 RES1    0.0000
     82 H47       -0.7736    2.9618    0.5230 H         1 RES1    0.0000
     83 H48       -1.1650    3.2835    1.9889 H         1 RES1    0.0000
@<TRIPOS>BOND
     1    1    2 1
     2    2    3 1
     3    3    4 1
     4    4    5 1
     5    5    6 1
     6    6    7 1
     7    7    8 1
     8    8    9 1
     9    9   10 1
    10   10    1 1
    11   11    9 1
    12   12   11 1
    13   13   12 1
    14   14    8 1
    15   15   14 1
    16   16   15 1
    17   17   13 1
    18   18   13 1
    19   19   10 1
    20   20   17 1
    21   21   20 1
    22   22   20 1
    23   23   22 1
    24   24   23 1
    25   25   24 1
    26   26   25 1
    27   27   25 1
    28   28   29 1
    29   29   81 1
    30   30    3 1
    31   31   28 2
    32   32   35 2
    33   33   35 2
    34   34    5 1
    35   35   34 1
    36   36    1 1
    37   37    1 1
    38   38    2 1
    39   39    2 1
    40   40    3 1
    41   41    4 1
    42   42    4 1
    43   43    6 1
    44   44    7 1
    45   45    7 1
    46   46    8 1
    47   47    9 1
    48   48   11 1
    49   49   11 1
    50   50   12 1
    51   51   12 1
    52   52   14 1
    53   53   15 1
    54   54   15 1
    55   55   16 1
    56   56   16 1
    57   57   17 1
    58   58   18 1
    59   59   18 1
    60   60   18 1
    61   61   19 1
    62   62   19 1
    63   63   19 1
    64   64   20 1
    65   65   21 1
    66   66   21 1
    67   67   21 1
    68   68   22 1
    69   69   22 1
    70   70   23 1
    71   71   23 1
    72   72   24 1
    73   73   24 1
    74   74   25 1
    75   75   26 1
    76   76   26 1
    77   77   26 1
    78   78   27 1
    79   79   27 1
    80   80   27 1
    81   82   29 1
    82   83   29 1
    83    5   10 1
    84    6   34 1
    85   13   14 1
    86   16   17 1
    87   28   30 1
@<TRIPOS>SUBSTRUCTURE
     1 RES1 1

@<TRIPOS>CRYSIN
  19.2900    6.0370   12.1450  90.0000  92.3300  90.0000   4 1

