# MOL2 file generated by ConQuest
# Please check atom types

@<TRIPOS>MOLECULE
ACNFRL
    21    21     1
SMALL
NO_CHARGES
****
Generated from CSD

@<TRIPOS>ATOM
      1 C1         0.1555    6.3963    7.9273 C.2       1 RES1    0.0000
      2 C2         0.8418    5.6532    5.7339 C.3       1 RES1    0.0000
      3 C3        -0.5053    5.7527    5.0372 C.2       1 RES1    0.0000
      4 C4        -0.6192    6.9035    4.4775 C.2       1 RES1    0.0000
      5 C5         0.6045    7.7286    4.7450 C.3       1 RES1    0.0000
      6 C6         0.2542    6.0127    9.3551 C.3       1 RES1    0.0000
      7 C7         1.7417    4.5087    5.3187 C.3       1 RES1    0.0000
      8 C8         3.3866    4.6179    2.0835 C.3       1 RES1    0.0000
      9 C9         3.2925    4.8009    3.5242 C.2       1 RES1    0.0000
     10 C10        1.7874    2.1910    5.7899 C.2       1 RES1    0.0000
     11 C11        0.9475    1.0224    6.1037 C.3       1 RES1    0.0000
     12 O1         1.4798    6.8618    5.4103 O.3       1 RES1    0.0000
     13 O2         2.0824    7.5119    2.8998 O.2       1 RES1    0.0000
     14 O3         0.7452    9.1892    2.9710 O.2       1 RES1    0.0000
     15 O4         0.7561    5.4830    7.1347 O.3       1 RES1    0.0000
     16 O5        -0.3717    7.3867    7.5229 O.2       1 RES1    0.0000
     17 O6         1.0412    3.3274    5.6098 O.3       1 RES1    0.0000
     18 O7         2.9832    2.2199    5.6735 O.2       1 RES1    0.0000
     19 O8         1.9854    4.5424    3.9437 O.3       1 RES1    0.0000
     20 O9         4.1427    5.1235    4.2953 O.2       1 RES1    0.0000
     21 N1         1.2178    8.1619    3.4261 N.pl3     1 RES1    0.0000
@<TRIPOS>BOND
     1    1    6 1
     2    2    3 1
     3    3    4 2
     4    4    5 1
     5    5   12 1
     6    7    2 1
     7    8    9 1
     8    9   19 1
     9   10   11 1
    10   12    2 1
    11   13   21 2
    12   14   21 2
    13   15    1 1
    14   16    1 2
    15   17    7 1
    16   18   10 2
    17   19    7 1
    18   20    9 2
    19   21    5 1
    20    2   15 1
    21   10   17 1
@<TRIPOS>SUBSTRUCTURE
     1 RES1 1

@<TRIPOS>CRYSIN
   8.0670   16.0510   11.3030  90.0000 107.4300  90.0000 231 1

