# MOL2 file generated by ConQuest
# Please check atom types

@<TRIPOS>MOLECULE
ACNPHY
    14    14     1
SMALL
NO_CHARGES
****
Generated from CSD

@<TRIPOS>ATOM
      1 C1        -0.4419    0.2198    3.2512 C.2       1 RES1    0.0000
      2 C2        -0.4670   -1.1324    4.0123 C.3       1 RES1    0.0000
      3 C3         0.1807    0.2593    1.8488 C.3       1 RES1    0.0000
      4 C4        -1.5248    3.4719    3.8690 C.ar      1 RES1    0.0000
      5 C5        -1.3313    4.7598    3.2653 C.ar      1 RES1    0.0000
      6 C6        -1.8842    5.8798    3.9137 C.ar      1 RES1    0.0000
      7 C7        -2.5824    5.7595    5.1000 C.ar      1 RES1    0.0000
      8 C8        -2.8279    4.4861    5.6967 C.ar      1 RES1    0.0000
      9 C9        -2.2536    3.3682    5.0647 C.ar      1 RES1    0.0000
     10 N1        -1.0542    1.1718    3.8984 N.2       1 RES1    0.0000
     11 N2        -0.9835    2.4204    3.2183 N.pl3     1 RES1    0.0000
     12 N3        -3.1993    6.9064    5.7436 N.pl3     1 RES1    0.0000
     13 O1        -2.9221    8.0098    5.2268 O.2       1 RES1    0.0000
     14 O2        -3.8545    6.7820    6.7690 O.2       1 RES1    0.0000
@<TRIPOS>BOND
     1    1    2 1
     2    3    1 1
     3    4    5 ar
     4    5    6 ar
     5    6    7 ar
     6    7    8 ar
     7    8    9 ar
     8    9    4 ar
     9   10    1 2
    10   11    4 1
    11   12    7 1
    12   13   12 2
    13   14   12 2
    14   10   11 1
@<TRIPOS>SUBSTRUCTURE
     1 RES1 1

@<TRIPOS>CRYSIN
   4.0530   20.7400   11.8000  90.0000  95.5000  90.0000  14 1

