# MOL2 file generated by ConQuest
# Please check atom types

@<TRIPOS>MOLECULE
ACNPHY01
    25    25     1
SMALL
NO_CHARGES
****
Generated from CSD

@<TRIPOS>ATOM
      1 O1         0.2547    3.5749    6.7501 O.2       1 RES1    0.0000
      2 O2         1.1039    2.3248    5.1979 O.2       1 RES1    0.0000
      3 N1         3.0559    9.1555    3.8542 N.2       1 RES1    0.0000
      4 N2         2.9940    7.9467    3.1786 N.3       1 RES1    0.0000
      5 N3         0.9104    3.4314    5.7078 N.pl3     1 RES1    0.0000
      6 C1         2.4758    6.8530    3.8207 C.ar      1 RES1    0.0000
      7 H1         3.4662    7.8239    2.4658 H         1 RES1    0.0000
      8 C2         1.7884    6.9735    5.0399 C.ar      1 RES1    0.0000
      9 H2         1.6760    7.8280    5.4394 H         1 RES1    0.0000
     10 C3         1.4537    4.6022    5.0722 C.ar      1 RES1    0.0000
     11 C4         2.6248    5.5828    3.2337 C.ar      1 RES1    0.0000
     12 H3         3.0778    5.4975    2.4030 H         1 RES1    0.0000
     13 C5         2.1203    4.4655    3.8526 C.ar      1 RES1    0.0000
     14 H4         2.2236    3.6088    3.4554 H         1 RES1    0.0000
     15 C6         1.2773    5.8508    5.6570 C.ar      1 RES1    0.0000
     16 H5         0.8063    5.9307    6.4781 H         1 RES1    0.0000
     17 C7         3.6217   10.1269    3.2280 C.2       1 RES1    0.0000
     18 C8         4.1793   10.0430    1.8390 C.3       1 RES1    0.0000
     19 H6         4.5218   10.9212    1.5708 H         1 RES1    0.0000
     20 H7         3.4729    9.7647    1.2195 H         1 RES1    0.0000
     21 H8         4.9083    9.3881    1.8186 H         1 RES1    0.0000
     22 C9         3.7192   11.4250    3.9614 C.3       1 RES1    0.0000
     23 H9         4.6601   11.6897    4.0332 H         1 RES1    0.0000
     24 H10        3.3393   11.3224    4.8588 H         1 RES1    0.0000
     25 H11        3.2223   12.1141    3.4730 H         1 RES1    0.0000
@<TRIPOS>BOND
     1    1    5 2
     2    2    5 2
     3    3    4 1
     4    4    6 1
     5    5   10 1
     6    6    8 ar
     7    7    4 1
     8    8    9 1
     9   10   13 ar
    10   11    6 ar
    11   12   11 1
    12   13   11 ar
    13   14   13 1
    14   15    8 ar
    15   16   15 1
    16   17    3 2
    17   18   17 1
    18   19   18 1
    19   20   18 1
    20   21   18 1
    21   22   17 1
    22   23   22 1
    23   24   22 1
    24   25   22 1
    25   10   15 ar
@<TRIPOS>SUBSTRUCTURE
     1 RES1 1

@<TRIPOS>CRYSIN
   3.9169   20.5622   11.7527  90.0000  93.9130  90.0000  14 1

