# MOL2 file generated by ConQuest
# Please check atom types

@<TRIPOS>MOLECULE
ACNTBP
    29    30     1
SMALL
NO_CHARGES
****
Generated from CSD

@<TRIPOS>ATOM
      1 C1         2.5478   -5.7468    3.0053 C.ar      1 RES1    0.0000
      2 C2         3.9988   -9.7761    2.9157 C.ar      1 RES1    0.0000
      3 C3         2.7055   -9.5093    3.3613 C.ar      1 RES1    0.0000
      4 C4         2.2302   -8.2168    3.3979 C.ar      1 RES1    0.0000
      5 C5         4.5659  -11.1559    2.8370 C.2       1 RES1    0.0000
      6 C6         3.6560  -12.3384    2.9663 C.3       1 RES1    0.0000
      7 C7         1.3056   -5.3168    2.5519 C.ar      1 RES1    0.0000
      8 C8         0.8770   -4.0078    2.6462 C.ar      1 RES1    0.0000
      9 C9         1.7161   -3.0631    3.1938 C.ar      1 RES1    0.0000
     10 C10        2.9566   -3.4324    3.6534 C.ar      1 RES1    0.0000
     11 C11        3.3665   -4.7540    3.5661 C.ar      1 RES1    0.0000
     12 C12        3.0256   -7.1531    2.9827 C.ar      1 RES1    0.0000
     13 C13        4.3273   -7.4200    2.5542 C.ar      1 RES1    0.0000
     14 C14        4.8006   -8.7125    2.5285 C.ar      1 RES1    0.0000
     15 H1         2.1167  -10.2188    3.6456 H         1 RES1    0.0000
     16 H2         1.3074   -8.0182    3.7468 H         1 RES1    0.0000
     17 H3         4.1001  -12.9885    2.7965 H         1 RES1    0.0000
     18 H4         3.0310  -12.3308    2.1577 H         1 RES1    0.0000
     19 H5         3.1673  -12.3688    3.8871 H         1 RES1    0.0000
     20 H6         0.0867   -3.8320    2.3836 H         1 RES1    0.0000
     21 H7         1.4071   -2.1879    3.2327 H         1 RES1    0.0000
     22 H8         3.5594   -2.7570    4.3233 H         1 RES1    0.0000
     23 H9         4.2572   -5.0588    4.0896 H         1 RES1    0.0000
     24 H10        4.8749   -6.7156    2.1889 H         1 RES1    0.0000
     25 H11        5.6679   -8.9035    2.1422 H         1 RES1    0.0000
     26 N1         0.4006   -6.2666    1.8797 N.pl3     1 RES1    0.0000
     27 O1        -0.7805   -6.2312    2.1912 O.2       1 RES1    0.0000
     28 O2         0.8592   -7.0178    1.0360 O.2       1 RES1    0.0000
     29 O3         5.7613  -11.2887    2.6563 O.2       1 RES1    0.0000
@<TRIPOS>BOND
     1    1    7 ar
     2    2    3 ar
     3    3    4 ar
     4    4   12 ar
     5    5    2 1
     6    6    5 1
     7    7    8 ar
     8    8    9 ar
     9    9   10 ar
    10   10   11 ar
    11   11    1 ar
    12   12    1 1
    13   13   12 ar
    14   14    2 ar
    15   15    3 1
    16   16    4 1
    17   17    6 1
    18   18    6 1
    19   19    6 1
    20   20    8 1
    21   21    9 1
    22   22   10 1
    23   23   11 1
    24   24   13 1
    25   25   14 1
    26   26    7 1
    27   27   26 2
    28   28   26 2
    29   29    5 2
    30   13   14 ar
@<TRIPOS>SUBSTRUCTURE
     1 RES1 1

@<TRIPOS>CRYSIN
  12.1460   12.6470    7.8120  90.0000  94.3300  90.0000  14 1

