# MOL2 file generated by ConQuest
# Please check atom types

@<TRIPOS>MOLECULE
ACOTIY
    42    42     1
SMALL
NO_CHARGES
****
Generated from CSD

@<TRIPOS>ATOM
      1 O1         2.2169    7.4772   -0.9466 O.2       1 RES1    0.0000
      2 N1         2.0586    6.2699   -0.9229 N.pl3     1 RES1    0.0000
      3 C1         3.3911    6.0914    1.1887 C.ar      1 RES1    0.0000
      4 O2         1.3861    5.6675   -1.7602 O.2       1 RES1    0.0000
      5 C2         2.7027    5.4810    0.1347 C.ar      1 RES1    0.0000
      6 O3         3.1570    1.9233    0.9604 O.3       1 RES1    0.0000
      7 C3         2.6035    4.0946    0.0227 C.ar      1 RES1    0.0000
      8 H1         2.1261    3.7648   -0.6953 H         1 RES1    0.0000
      9 H2         3.8714    9.5396    1.9398 H         1 RES1    0.0000
     10 O4         4.5321    2.9782    2.8566 O.3       1 RES1    0.0000
     11 C4         3.2006    3.2789    0.9592 C.ar      1 RES1    0.0000
     12 C5         3.9419    3.8605    2.0152 C.ar      1 RES1    0.0000
     13 C6         4.0117    5.2369    2.1235 C.ar      1 RES1    0.0000
     14 H3         4.4917    5.6184    2.8490 H         1 RES1    0.0000
     15 C7         3.5271    7.5040    1.4072 C.1       1 RES1    0.0000
     16 C8         3.7226    8.6319    1.7160 C.1       1 RES1    0.0000
     17 C9         2.3512    1.2935   -0.0550 C.3       1 RES1    0.0000
     18 H4         2.7490    1.4471   -0.9485 H         1 RES1    0.0000
     19 H5         1.4378    1.6751   -0.0494 H         1 RES1    0.0000
     20 C10        2.2972   -0.1815    0.2402 C.3       1 RES1    0.0000
     21 H6         1.8608   -0.3230    1.1175 H         1 RES1    0.0000
     22 H7         3.2194   -0.5369    0.2977 H         1 RES1    0.0000
     23 C11        1.5294   -0.9464   -0.8324 C.3       1 RES1    0.0000
     24 H8         0.6153   -0.5739   -0.9076 H         1 RES1    0.0000
     25 H9         1.9805   -0.8254   -1.7054 H         1 RES1    0.0000
     26 C12        1.4414   -2.4306   -0.5154 C.3       1 RES1    0.0000
     27 H10        2.3428   -2.8145   -0.4959 H         1 RES1    0.0000
     28 H11        0.9093   -2.8808   -1.2044 H         1 RES1    0.0000
     29 H12        1.0151   -2.5532    0.3585 H         1 RES1    0.0000
     30 C13        5.4090    3.5079    3.8789 C.3       1 RES1    0.0000
     31 H13        4.8927    4.0607    4.5178 H         1 RES1    0.0000
     32 H14        6.1083    4.0753    3.4677 H         1 RES1    0.0000
     33 C14        6.0423    2.3405    4.5958 C.3       1 RES1    0.0000
     34 H15        6.6425    1.8586    3.9731 H         1 RES1    0.0000
     35 H16        5.3358    1.7115    4.8881 H         1 RES1    0.0000
     36 C15        6.8413    2.8071    5.8118 C.3       1 RES1    0.0000
     37 H17        7.5316    3.4538    5.5199 H         1 RES1    0.0000
     38 H18        6.2351    3.2723    6.4413 H         1 RES1    0.0000
     39 C16        7.5149    1.6445    6.5304 C.3       1 RES1    0.0000
     40 H19        6.8341    1.0023    6.8215 H         1 RES1    0.0000
     41 H20        8.0015    1.9812    7.3114 H         1 RES1    0.0000
     42 H21        8.1414    1.2025    5.9203 H         1 RES1    0.0000
@<TRIPOS>BOND
     1    1    2 2
     2    2    4 2
     3    3    5 ar
     4    5    2 1
     5    6   11 1
     6    7    5 ar
     7    8    7 1
     8    9   16 1
     9   10   12 1
    10   11    7 ar
    11   12   11 ar
    12   13    3 ar
    13   14   13 1
    14   15    3 1
    15   16   15 3
    16   17    6 1
    17   18   17 1
    18   19   17 1
    19   20   17 1
    20   21   20 1
    21   22   20 1
    22   23   20 1
    23   24   23 1
    24   25   23 1
    25   26   23 1
    26   27   26 1
    27   28   26 1
    28   29   26 1
    29   30   10 1
    30   31   30 1
    31   32   30 1
    32   33   30 1
    33   34   33 1
    34   35   33 1
    35   36   33 1
    36   37   36 1
    37   38   36 1
    38   39   36 1
    39   40   39 1
    40   41   39 1
    41   42   39 1
    42   12   13 ar
@<TRIPOS>SUBSTRUCTURE
     1 RES1 1

@<TRIPOS>CRYSIN
   8.5209   18.0914    9.9579  90.0000  97.9670  90.0000  14 1

