# MOL2 file generated by ConQuest
# Please check atom types

@<TRIPOS>MOLECULE
ACOWIY
    30    30     2
SMALL
NO_CHARGES
****
Generated from CSD

@<TRIPOS>ATOM
      1 N1         3.2292    5.8677    8.3899 N.3       1 RES1    0.0000
      2 H1         2.6605    6.1641    8.9392 H         1 RES1    0.0000
      3 C1         2.9230    6.2302    6.9865 C.3       1 RES1    0.0000
      4 H2         3.6980    6.5641    6.4888 H         1 RES1    0.0000
      5 H3         2.1605    6.8390    6.8953 H         1 RES1    0.0000
      6 C2         2.5821    4.7733    6.6838 C.3       1 RES1    0.0000
      7 N2         3.4018    4.0772    5.6348 N.pl3     1 RES1    0.0000
      8 O1         3.7657    4.7264    4.6808 O.2       1 RES1    0.0000
      9 O2         3.6301    2.8942    5.8237 O.2       1 RES1    0.0000
     10 N3         1.1441    4.5461    6.2811 N.pl3     1 RES1    0.0000
     11 O3         0.3149    5.0290    7.0257 O.2       1 RES1    0.0000
     12 O4         0.9073    3.9296    5.2677 O.2       1 RES1    0.0000
     13 C3         2.9159    4.4429    8.1313 C.3       1 RES1    0.0000
     14 H4         2.1501    4.1101    8.6441 H         1 RES1    0.0000
     15 H5         3.6875    3.8471    8.2300 H         1 RES1    0.0000
     16 N4         1.2632    7.0040   10.4208 N.3       2 RES2    0.0000
     17 H6         1.5958    6.7898   11.2085 H         2 RES2    0.0000
     18 C4        -0.1873    6.7038   10.3360 C.3       2 RES2    0.0000
     19 H7        -0.5668    6.3531   11.1680 H         2 RES2    0.0000
     20 H8        -0.4276    6.1358    9.5736 H         2 RES2    0.0000
     21 C5        -0.4697    8.1829   10.1093 C.3       2 RES2    0.0000
     22 N5        -0.9830    8.5105    8.7315 N.pl3     2 RES2    0.0000
     23 O5        -2.1040    8.9488    8.6060 O.2       2 RES2    0.0000
     24 O6        -0.2246    8.2465    7.8251 O.2       2 RES2    0.0000
     25 N6        -1.3931    8.8823   11.0714 N.pl3     2 RES2    0.0000
     26 O7        -1.3063   10.0864   11.1097 O.2       2 RES2    0.0000
     27 O8        -2.1336    8.2068   11.7563 O.2       2 RES2    0.0000
     28 C6         1.0055    8.4665   10.3550 C.3       2 RES2    0.0000
     29 H9         1.4510    8.9117    9.6040 H         2 RES2    0.0000
     30 H10        1.1821    8.9369   11.1958 H         2 RES2    0.0000
@<TRIPOS>BOND
     1    1    2 1
     2    3    1 1
     3    4    3 1
     4    5    3 1
     5    6    3 1
     6    7    6 1
     7    8    7 2
     8    9    7 2
     9   10    6 1
    10   11   10 2
    11   12   10 2
    12   13    1 1
    13   14   13 1
    14   15   13 1
    15   16   17 1
    16   18   16 1
    17   19   18 1
    18   20   18 1
    19   21   18 1
    20   22   21 1
    21   23   22 2
    22   24   22 2
    23   25   21 1
    24   26   25 2
    25   27   25 2
    26   28   16 1
    27   29   28 1
    28   30   28 1
    29    6   13 1
    30   21   28 1
@<TRIPOS>SUBSTRUCTURE
     1 RES1 1
     2 RES2 16

@<TRIPOS>CRYSIN
   5.9280   15.8380   12.6837  90.0000  93.2300  90.0000  14 1

