# MOL2 file generated by ConQuest
# Please check atom types

@<TRIPOS>MOLECULE
ACOWUK
    30    31     1
SMALL
NO_CHARGES
****
Generated from CSD

@<TRIPOS>ATOM
      1 O1         3.1308    3.7673   11.1364 O.2       1 RES1    0.0000
      2 N1         1.4034    2.3319   11.5593 N.am      1 RES1    0.0000
      3 C1         2.7144    2.7259   11.6186 C.2       1 RES1    0.0000
      4 N2         3.4974    1.8319   12.2899 N.am      1 RES1    0.0000
      5 O2         6.1955   -1.3435   11.1228 O.2       1 RES1    0.0000
      6 C2         4.9682    1.7984   12.1971 C.3       1 RES1    0.0000
      7 H1         5.4337    2.1815   12.9526 H         1 RES1    0.0000
      8 H2         5.3069    2.1346   11.3770 H         1 RES1    0.0000
      9 N3        -1.6576    1.5591   11.5494 N.pl3     1 RES1    0.0000
     10 O3         6.5247    0.0414   13.8380 O.2       1 RES1    0.0000
     11 C3         0.6738    1.6291   12.6233 C.3       1 RES1    0.0000
     12 H3         0.9247    1.8642   13.4525 H         1 RES1    0.0000
     13 H4         0.5916    0.6675   12.4274 H         1 RES1    0.0000
     14 N4         5.4453   -0.4032   10.9897 N.pl3     1 RES1    0.0000
     15 O4         4.9266   -1.4178   13.8156 O.2       1 RES1    0.0000
     16 C4         4.8788    0.2661   12.2163 C.3       1 RES1    0.0000
     17 N5        -1.2383    3.1888   13.2793 N.pl3     1 RES1    0.0000
     18 O5         5.0826    0.0737    9.9353 O.2       1 RES1    0.0000
     19 C5         0.2811    3.1961   11.2062 C.3       1 RES1    0.0000
     20 H5        -0.0025    3.1431   10.2975 H         1 RES1    0.0000
     21 H6         0.3820    4.1309   11.4937 H         1 RES1    0.0000
     22 N6         5.4964   -0.4251   13.3947 N.pl3     1 RES1    0.0000
     23 C6         3.3534    0.3630   12.2393 C.3       1 RES1    0.0000
     24 H7         2.9694    0.0518   11.4626 H         1 RES1    0.0000
     25 H8         2.9521   -0.0055   13.0382 H         1 RES1    0.0000
     26 O6        -2.3675    2.9239   13.6124 O.2       1 RES1    0.0000
     27 C7        -0.5757    2.3952   12.1864 C.3       1 RES1    0.0000
     28 O7        -2.4574    2.1565   10.8742 O.2       1 RES1    0.0000
     29 O8        -1.6403    0.3727   11.7480 O.2       1 RES1    0.0000
     30 O9        -0.5295    4.0256   13.8016 O.2       1 RES1    0.0000
@<TRIPOS>BOND
     1    1    3 2
     2    2    3 1
     3    3    4 1
     4    4    6 1
     5    5   14 2
     6    6    7 1
     7    8    6 1
     8    9   27 1
     9   10   22 2
    10   11    2 1
    11   12   11 1
    12   13   11 1
    13   14   16 1
    14   15   22 2
    15   16    6 1
    16   17   26 2
    17   18   14 2
    18   19    2 1
    19   20   19 1
    20   21   19 1
    21   22   16 1
    22   23    4 1
    23   24   23 1
    24   25   23 1
    25   27   11 1
    26   28    9 2
    27   29    9 2
    28   30   17 2
    29   16   23 1
    30   17   27 1
    31   19   27 1
@<TRIPOS>SUBSTRUCTURE
     1 RES1 1

@<TRIPOS>CRYSIN
  10.3630    6.0901   19.9421  90.0000 102.7390  90.0000 231 1

