# MOL2 file generated by ConQuest
# Please check atom types

@<TRIPOS>MOLECULE
ACUMIX01
    56    39     2
SMALL
NO_CHARGES
****
Generated from CSD

@<TRIPOS>ATOM
      1 N1         3.0706    5.1009    4.0056 N.pl3     1 RES1    0.0000
      2 N2         1.4974   -0.1310    3.0559 N.pl3     1 RES1    0.0000
      3 H1         0.7629   -0.3764    3.5122 H         1 RES1    0.0000
      4 O1         2.3623    5.8435    4.6966 O.2       1 RES1    0.0000
      5 O2         4.1855    5.4531    3.5823 O.2       1 RES1    0.0000
      6 C1         2.4542   -1.1840    2.7533 C.3       1 RES1    0.0000
      7 H2         2.2456   -1.9494    3.3640 H         1 RES1    0.0000
      8 H3         2.4293   -1.4426    1.7701 H         1 RES1    0.0000
      9 H4         3.3699   -0.8806    2.9971 H         1 RES1    0.0000
     10 C2         0.9323    2.0637    3.8628 C.ar      1 RES1    0.0000
     11 C3         1.7873    1.1949    3.1205 C.ar      1 RES1    0.0000
     12 C4         2.8347    1.7812    2.3555 C.ar      1 RES1    0.0000
     13 C5         3.2784    3.0483    2.7053 C.ar      1 RES1    0.0000
     14 H5         4.0276    3.4659    2.2033 H         1 RES1    0.0000
     15 C6         2.5942    3.7882    3.6653 C.ar      1 RES1    0.0000
     16 C7         1.3672    3.3397    4.1661 C.ar      1 RES1    0.0000
     17 H6         0.7650    3.9555    4.6853 H         1 RES1    0.0000
     18 C8        -0.5051    1.6655    4.1056 C.3       1 RES1    0.0000
     19 H7        -0.5544    0.6860    4.2439 H         1 RES1    0.0000
     20 H8        -0.8315    2.1064    4.9299 H         1 RES1    0.0000
     21 C9        -1.2680    1.4009    2.7114 C.3       1 RES1    0.0000
     22 H9        -0.8907    0.5775    2.3111 H         1 RES1    0.0000
     23 H10       -2.2187    1.2162    2.9163 H         1 RES1    0.0000
     24 C10       -1.2218    2.5080    1.6453 C.3       1 RES1    0.0000
     25 H11       -1.4936    3.3572    2.0758 H         1 RES1    0.0000
     26 H12       -1.9019    2.2971    0.9576 H         1 RES1    0.0000
     27 C11        0.1193    2.7465    0.9296 C.3       1 RES1    0.0000
     28 H13       -0.3766    3.3966    0.3721 H         1 RES1    0.0000
     29 H14        0.7370    3.2023    1.5545 H         1 RES1    0.0000
     30 C12        0.7343    1.6305    0.1674 C.3       1 RES1    0.0000
     31 H15        0.2570    1.5421   -0.6954 H         1 RES1    0.0000
     32 H16        0.5899    0.7920    0.6726 H         1 RES1    0.0000
     33 C13        2.2424    1.7657   -0.1257 C.3       1 RES1    0.0000
     34 H17        2.4404    1.2806   -0.9659 H         1 RES1    0.0000
     35 H18        2.4446    2.7221   -0.2819 H         1 RES1    0.0000
     36 C14        3.2115    1.2320    0.9948 C.3       1 RES1    0.0000
     37 H19        3.1735    0.2428    1.0177 H         1 RES1    0.0000
     38 H20        4.1410    1.4975    0.7793 H         1 RES1    0.0000
     39 H21       -0.9679    2.3853    4.6035 Du        2 SUP2    0.0000
     40 H22       -0.5317    0.8440    4.6574 Du        2 SUP2    0.0000
     41 C15       -1.3465    2.0307    3.0096 Du        2 SUP2    0.0000
     42 H23       -1.4578    3.0149    3.0106 Du        2 SUP2    0.0000
     43 H24       -2.2399    1.6290    3.1495 Du        2 SUP2    0.0000
     44 C16       -0.8237    1.5965    1.6281 Du        2 SUP2    0.0000
     45 H25       -1.5931    1.4037    1.0353 Du        2 SUP2    0.0000
     46 H26       -0.2996    0.7621    1.7266 Du        2 SUP2    0.0000
     47 H27        0.7445    2.8830    1.6851 Du        2 SUP2    0.0000
     48 H28       -0.0048    3.6462    0.5348 Du        2 SUP2    0.0000
     49 C17        1.0385    2.0146   -0.1555 Du        2 SUP2    0.0000
     50 H29        0.4264    1.6573   -0.8467 Du        2 SUP2    0.0000
     51 H30        1.5744    2.7223   -0.5928 Du        2 SUP2    0.0000
     52 C18        2.0119    0.8826    0.1917 Du        2 SUP2    0.0000
     53 H31        1.5071    0.1876    0.6830 Du        2 SUP2    0.0000
     54 H32        2.3206    0.4766   -0.6570 Du        2 SUP2    0.0000
     55 H33        3.7725    0.4248    1.1120 Du        2 SUP2    0.0000
     56 H34        3.7469    1.9071    0.5068 Du        2 SUP2    0.0000
@<TRIPOS>BOND
     1    1    4 2
     2    2    3 1
     3    5    1 2
     4    6    2 1
     5    7    6 1
     6    8    6 1
     7    9    6 1
     8   10   11 ar
     9   11    2 1
    10   12   11 ar
    11   13   12 ar
    12   14   13 1
    13   15    1 1
    14   16   10 ar
    15   17   16 1
    16   18   10 1
    17   19   18 1
    18   20   18 1
    19   21   18 1
    20   22   21 1
    21   23   21 1
    22   24   21 1
    23   25   24 1
    24   26   24 1
    25   27   24 1
    26   28   27 1
    27   29   27 1
    28   30   27 1
    29   31   30 1
    30   32   30 1
    31   33   30 1
    32   34   33 1
    33   35   33 1
    34   36   12 1
    35   37   36 1
    36   38   36 1
    37   13   15 ar
    38   15   16 ar
    39   33   36 1
@<TRIPOS>SUBSTRUCTURE
     1 RES1 1
     2 SUP2 39

@<TRIPOS>CRYSIN
   8.0706    8.1279   11.3171 109.4480  94.3326 113.1957   2 1

