# MOL2 file generated by ConQuest
# Please check atom types

@<TRIPOS>MOLECULE
ACUMET
    62    42     2
SMALL
NO_CHARGES
****
Generated from CSD

@<TRIPOS>ATOM
      1 C1         1.0848   -1.8653    0.7818 C.3       1 RES1    0.0000
      2 H1         0.2202   -2.3072    0.6437 H         1 RES1    0.0000
      3 H2         1.4621   -1.8348   -0.1540 H         1 RES1    0.0000
      4 N1        -1.2277   -0.9828    2.3597 N.3       1 RES1    0.0000
      5 H3        -1.1928   -1.6785    1.8693 H         1 RES1    0.0000
      6 C2         2.0069   -2.7137    1.6638 C.3       1 RES1    0.0000
      7 H4         2.8354   -2.2266    1.7967 H         1 RES1    0.0000
      8 H5         2.2235   -3.5281    1.1839 H         1 RES1    0.0000
      9 C3        -0.1401   -0.1452    2.2473 C.ar      1 RES1    0.0000
     10 C4         0.9153   -0.4797    1.3584 C.ar      1 RES1    0.0000
     11 C5        -0.6776    1.1180    4.4209 C.3       1 RES1    0.0000
     12 H6        -1.5346    0.6898    4.4638 H         1 RES1    0.0000
     13 H7        -0.8375    2.0585    4.6662 H         1 RES1    0.0000
     14 C6         1.8985    0.4554    1.1049 C.ar      1 RES1    0.0000
     15 H8         2.5426    0.2188    0.4808 H         1 RES1    0.0000
     16 C7        -2.5839   -0.5388    2.5802 C.3       1 RES1    0.0000
     17 H9        -2.6514    0.3976    2.3777 H         1 RES1    0.0000
     18 H10       -2.8236   -0.6855    3.4977 H         1 RES1    0.0000
     19 H11       -3.1789   -1.0327    2.0113 H         1 RES1    0.0000
     20 C8         1.9965   -1.1098    4.6266 C.3       1 RES1    0.0000
     21 H12        2.0780   -0.4946    3.8058 H         1 RES1    0.0000
     22 H13        2.7565   -0.7486    5.2427 H         1 RES1    0.0000
     23 C9         1.8741    1.6870    1.7462 C.ar      1 RES1    0.0000
     24 C10        0.9637    1.9429    2.7562 C.ar      1 RES1    0.0000
     25 H14        0.9995    2.7001    3.2898 H         1 RES1    0.0000
     26 C11       -0.0064    1.0041    3.0680 C.ar      1 RES1    0.0000
     27 N2         2.8713    2.6842    1.4188 N.pl3     1 RES1    0.0000
     28 C12        0.2035    0.5256    5.5506 C.3       1 RES1    0.0000
     29 H15        1.0092    1.0677    5.7016 H         1 RES1    0.0000
     30 H16       -0.3668    0.5986    6.3518 H         1 RES1    0.0000
     31 C13        1.4448   -3.1001    3.0476 C.3       1 RES1    0.0000
     32 H17        0.5387   -2.7610    3.1192 H         1 RES1    0.0000
     33 H18        1.4012   -4.0672    3.1049 H         1 RES1    0.0000
     34 C14        2.2591   -2.5756    4.2346 C.3       1 RES1    0.0000
     35 H19        3.2006   -2.6721    4.0259 H         1 RES1    0.0000
     36 H20        2.0727   -3.1361    5.0040 H         1 RES1    0.0000
     37 C15        0.6547   -0.9303    5.3353 C.3       1 RES1    0.0000
     38 H21        0.7051   -1.3650    6.2011 H         1 RES1    0.0000
     39 H22       -0.0273   -1.3875    4.8191 H         1 RES1    0.0000
     40 O1         2.7734    3.7996    1.9283 O.2       1 RES1    0.0000
     41 O2         3.7785    2.3848    0.6509 O.2       1 RES1    0.0000
     42 H23        1.7377   -1.8162    0.0660 Du        2 SUP2    0.0000
     43 H24        0.2407   -2.1312    0.3840 Du        2 SUP2    0.0000
     44 C16        1.5214   -2.9697    1.7527 Du        2 SUP2    0.0000
     45 H25        2.0411   -3.6172    1.2488 Du        2 SUP2    0.0000
     46 H26        0.7244   -3.4245    2.0641 Du        2 SUP2    0.0000
     47 H27       -0.3209    1.8889    4.8885 Du        2 SUP2    0.0000
     48 H28       -1.6291    1.2616    4.2932 Du        2 SUP2    0.0000
     49 H29        2.2070   -0.5876    3.8377 Du        2 SUP2    0.0000
     50 H30        2.8245   -1.2668    5.1074 Du        2 SUP2    0.0000
     51 C17       -0.4751   -0.1037    5.2626 Du        2 SUP2    0.0000
     52 H31       -0.8243   -0.8822    4.8004 Du        2 SUP2    0.0000
     53 H32       -0.9531   -0.0079    6.1009 Du        2 SUP2    0.0000
     54 C18        1.0239   -0.2867    5.5365 Du        2 SUP2    0.0000
     55 H33        1.0940   -0.6777    6.4233 Du        2 SUP2    0.0000
     56 H34        1.4033    0.6017    5.5992 Du        2 SUP2    0.0000
     57 C19        1.4245   -2.4251    4.2008 Du        2 SUP2    0.0000
     58 H35        0.4881   -2.3669    3.9543 Du        2 SUP2    0.0000
     59 H36        1.5541   -3.1240    4.8610 Du        2 SUP2    0.0000
     60 C20        2.3483   -2.5708    2.9916 Du        2 SUP2    0.0000
     61 H37        3.0185   -3.2490    3.1721 Du        2 SUP2    0.0000
     62 H38        2.8038   -1.7317    2.8255 Du        2 SUP2    0.0000
@<TRIPOS>BOND
     1    1    2 1
     2    3    1 1
     3    4    5 1
     4    6    1 1
     5    7    6 1
     6    8    6 1
     7    9    4 1
     8   10    1 1
     9   11   12 1
    10   13   11 1
    11   14   10 ar
    12   15   14 1
    13   16    4 1
    14   17   16 1
    15   18   16 1
    16   19   16 1
    17   20   21 1
    18   22   20 1
    19   23   14 ar
    20   24   23 ar
    21   25   24 1
    22   26    9 ar
    23   27   23 1
    24   28   11 1
    25   29   28 1
    26   30   28 1
    27   31    6 1
    28   32   31 1
    29   33   31 1
    30   34   20 1
    31   35   34 1
    32   36   34 1
    33   37   20 1
    34   38   37 1
    35   39   37 1
    36   40   27 2
    37   41   27 2
    38    9   10 ar
    39   11   26 1
    40   24   26 ar
    41   28   37 1
    42   31   34 1
@<TRIPOS>SUBSTRUCTURE
     1 RES1 1
     2 SUP2 42

@<TRIPOS>CRYSIN
   8.1779    8.3542   12.0416 109.9090  93.9380 113.3390   2 1

