# MOL2 file generated by ConQuest
# Please check atom types

@<TRIPOS>MOLECULE
ACUMIX
    56    39     2
SMALL
NO_CHARGES
****
Generated from CSD

@<TRIPOS>ATOM
      1 N1         3.0981    5.0962    4.0877 N.pl3     1 RES1    0.0000
      2 N2         1.5349   -0.1277    3.1109 N.pl3     1 RES1    0.0000
      3 H1         0.8244   -0.3985    3.5683 H         1 RES1    0.0000
      4 O1         2.4292    5.8000    4.8391 O.2       1 RES1    0.0000
      5 O2         4.1717    5.4766    3.6180 O.2       1 RES1    0.0000
      6 C1         2.4914   -1.1678    2.7999 C.3       1 RES1    0.0000
      7 H2         2.3028   -1.9424    3.4249 H         1 RES1    0.0000
      8 H3         2.4662   -1.4102    1.8797 H         1 RES1    0.0000
      9 H4         3.4399   -0.8901    2.9629 H         1 RES1    0.0000
     10 C2         0.9746    2.0545    3.9523 C.ar      1 RES1    0.0000
     11 C3         1.8166    1.2015    3.1816 C.ar      1 RES1    0.0000
     12 C4         2.8377    1.8021    2.3980 C.ar      1 RES1    0.0000
     13 C5         3.2781    3.0656    2.7521 C.ar      1 RES1    0.0000
     14 H5         3.9898    3.5014    2.2344 H         1 RES1    0.0000
     15 C6         2.6179    3.7884    3.7365 C.ar      1 RES1    0.0000
     16 C7         1.4153    3.3232    4.2602 C.ar      1 RES1    0.0000
     17 H6         0.8319    3.8828    4.7842 H         1 RES1    0.0000
     18 C8        -0.4571    1.6559    4.2105 C.3       1 RES1    0.0000
     19 H7        -0.4990    0.6942    4.3276 H         1 RES1    0.0000
     20 H8        -0.7534    2.0677    5.0370 H         1 RES1    0.0000
     21 C9        -1.2518    1.4178    2.8068 C.3       1 RES1    0.0000
     22 H9        -0.8968    0.6106    2.4011 H         1 RES1    0.0000
     23 H10       -2.1814    1.2437    3.0213 H         1 RES1    0.0000
     24 C10       -1.2188    2.5166    1.7512 C.3       1 RES1    0.0000
     25 H11       -1.8938    2.3111    1.0853 H         1 RES1    0.0000
     26 H12       -1.4796    3.3481    2.1771 H         1 RES1    0.0000
     27 C11        0.0963    2.7544    1.0273 C.3       1 RES1    0.0000
     28 H13       -0.4065    3.3874    0.4917 H         1 RES1    0.0000
     29 H14        0.7153    3.2089    1.6195 H         1 RES1    0.0000
     30 C12        0.7108    1.6459    0.2400 C.3       1 RES1    0.0000
     31 H15        0.2351    1.5700   -0.6011 H         1 RES1    0.0000
     32 H16        0.5752    0.8169    0.7253 H         1 RES1    0.0000
     33 C13        2.2181    1.7865   -0.0664 C.3       1 RES1    0.0000
     34 H17        2.4112    2.7239   -0.2241 H         1 RES1    0.0000
     35 H18        2.4069    1.3093   -0.8899 H         1 RES1    0.0000
     36 C14        3.1849    1.2695    1.0247 C.3       1 RES1    0.0000
     37 H19        3.1554    0.3003    1.0429 H         1 RES1    0.0000
     38 H20        4.0903    1.5360    0.7997 H         1 RES1    0.0000
     39 H21       -0.9002    2.3525    4.7194 Du        2 SUP2    0.0000
     40 H22       -0.4764    0.8406    4.7364 Du        2 SUP2    0.0000
     41 C15       -1.3151    2.0184    3.2008 Du        2 SUP2    0.0000
     42 H23       -1.4296    2.9814    3.2220 Du        2 SUP2    0.0000
     43 H24       -2.1814    1.6165    3.3707 Du        2 SUP2    0.0000
     44 C16       -0.8466    1.6059    1.7831 Du        2 SUP2    0.0000
     45 H25       -1.6270    1.4308    1.2340 Du        2 SUP2    0.0000
     46 H26       -0.3418    0.7804    1.8489 Du        2 SUP2    0.0000
     47 H27        0.7246    2.8656    1.7576 Du        2 SUP2    0.0000
     48 H28       -0.0203    3.6435    0.6595 Du        2 SUP2    0.0000
     49 C17        0.9526    2.0497   -0.0520 Du        2 SUP2    0.0000
     50 H29        0.3279    1.6892   -0.7009 Du        2 SUP2    0.0000
     51 H30        1.4464    2.7500   -0.5066 Du        2 SUP2    0.0000
     52 C18        1.9441    0.9511    0.2336 Du        2 SUP2    0.0000
     53 H31        1.4714    0.2462    0.7041 Du        2 SUP2    0.0000
     54 H32        2.2264    0.5834   -0.6181 Du        2 SUP2    0.0000
     55 H33        3.7106    1.9297    0.5469 Du        2 SUP2    0.0000
     56 H34        3.7229    0.4673    1.1172 Du        2 SUP2    0.0000
@<TRIPOS>BOND
     1    1    4 2
     2    2    3 1
     3    5    1 2
     4    6    2 1
     5    7    6 1
     6    8    6 1
     7    9    6 1
     8   10   11 ar
     9   11    2 1
    10   12   11 ar
    11   13   12 ar
    12   14   13 1
    13   15    1 1
    14   16   10 ar
    15   17   16 1
    16   18   10 1
    17   19   18 1
    18   20   18 1
    19   21   18 1
    20   22   21 1
    21   23   21 1
    22   24   21 1
    23   25   24 1
    24   26   24 1
    25   27   24 1
    26   28   27 1
    27   29   27 1
    28   30   27 1
    29   31   30 1
    30   32   30 1
    31   33   30 1
    32   34   33 1
    33   35   33 1
    34   36   12 1
    35   37   36 1
    36   38   36 1
    37   13   15 ar
    38   15   16 ar
    39   33   36 1
@<TRIPOS>SUBSTRUCTURE
     1 RES1 1
     2 SUP2 39

@<TRIPOS>CRYSIN
   8.0654    8.1394   11.5797 109.3830  94.2808 112.8490   2 1

