# MOL2 file generated by ConQuest
# Please check atom types

@<TRIPOS>MOLECULE
ACUNAO
    70    74     1
SMALL
NO_CHARGES
****
Generated from CSD

@<TRIPOS>ATOM
      1 O1         3.4621    2.7886   10.5437 O.3       1 RES1    0.0000
      2 O2         1.0098   -1.2654   11.1749 O.3       1 RES1    0.0000
      3 O3         3.9971    4.0406   12.8229 O.2       1 RES1    0.0000
      4 O4         2.2981    4.0796   14.1003 O.2       1 RES1    0.0000
      5 O5        -0.2973    0.0133   14.6520 O.2       1 RES1    0.0000
      6 O6         0.5630   -1.7373   13.7885 O.2       1 RES1    0.0000
      7 N1         2.9610    3.5630   13.2319 N.pl3     1 RES1    0.0000
      8 N2         0.4152   -0.5233   13.8480 N.pl3     1 RES1    0.0000
      9 C1         2.7329    1.9608   11.3321 C.ar      1 RES1    0.0000
     10 C2         2.4590    2.3224   12.6560 C.ar      1 RES1    0.0000
     11 C3         1.6795    1.5184   13.4296 C.ar      1 RES1    0.0000
     12 C4         1.2117    0.3216   12.9510 C.ar      1 RES1    0.0000
     13 C5         1.5166   -0.0913   11.6622 C.ar      1 RES1    0.0000
     14 C6         2.2375    0.7545   10.8605 C.ar      1 RES1    0.0000
     15 C7         1.8742   -1.9608   10.3232 C.ar      1 RES1    0.0000
     16 C8         2.9242   -2.6516   10.9109 C.ar      1 RES1    0.0000
     17 C9         3.8163   -3.3413   10.1234 C.ar      1 RES1    0.0000
     18 C10        3.6370   -3.3413    8.7444 C.ar      1 RES1    0.0000
     19 C11        3.2627    2.6696    9.1437 C.ar      1 RES1    0.0000
     20 C12        1.6362   -1.9532    8.9426 C.ar      1 RES1    0.0000
     21 C13        0.4779   -1.2149    8.3090 C.3       1 RES1    0.0000
     22 C14       -0.7249   -1.9979    7.9568 C.3       1 RES1    0.0000
     23 C15       -1.2760   -2.8133    8.5726 C.3       1 RES1    0.0000
     24 H1         1.4627    1.7943   14.3126 H         1 RES1    0.0000
     25 H2         2.3965    0.5109    9.9551 H         1 RES1    0.0000
     26 H3         4.2462   -3.7961    8.1754 H         1 RES1    0.0000
     27 H4         4.5506   -3.7999   10.5137 H         1 RES1    0.0000
     28 H5         3.0147   -2.6468   11.8563 H         1 RES1    0.0000
     29 H6         0.8179   -0.7830    7.5336 H         1 RES1    0.0000
     30 H7         0.1879   -0.5604    8.9334 H         1 RES1    0.0000
     31 H8        -0.4838   -2.4508    7.1572 H         1 RES1    0.0000
     32 H9        -1.4078   -1.3643    7.7677 H         1 RES1    0.0000
     33 H10       -2.0449   -3.1824    8.1528 H         1 RES1    0.0000
     34 H11       -1.5278   -2.4070    9.3931 H         1 RES1    0.0000
     35 H12       -0.6460   -3.5040    8.7409 H         1 RES1    0.0000
     36 O1B        2.3400   -2.7886    6.8028 O.3       1 RES1    0.0000
     37 O2B        4.7924    1.2654    6.1715 O.3       1 RES1    0.0000
     38 O3B        1.8050   -4.0406    4.5236 O.2       1 RES1    0.0000
     39 O4B        3.5040   -4.0796    3.2462 O.2       1 RES1    0.0000
     40 O5B        6.0995   -0.0133    2.6944 O.2       1 RES1    0.0000
     41 O6B        5.2391    1.7373    3.5579 O.2       1 RES1    0.0000
     42 N1B        2.8412   -3.5630    4.1146 N.pl3     1 RES1    0.0000
     43 N2B        5.3870    0.5233    3.4984 N.pl3     1 RES1    0.0000
     44 C1B        3.0692   -1.9608    6.0144 C.ar      1 RES1    0.0000
     45 C2B        3.3432   -2.3224    4.6905 C.ar      1 RES1    0.0000
     46 C3B        4.1227   -1.5184    3.9168 C.ar      1 RES1    0.0000
     47 C4B        4.5905   -0.3216    4.3954 C.ar      1 RES1    0.0000
     48 C5B        4.2856    0.0913    5.6843 C.ar      1 RES1    0.0000
     49 C6B        3.5647   -0.7545    6.4860 C.ar      1 RES1    0.0000
     50 C7B        3.9279    1.9608    7.0232 C.ar      1 RES1    0.0000
     51 C8B        2.8780    2.6516    6.4355 C.ar      1 RES1    0.0000
     52 C9B        1.9859    3.3413    7.2231 C.ar      1 RES1    0.0000
     53 C10B       2.1651    3.3413    8.6021 C.ar      1 RES1    0.0000
     54 C11B       2.5394   -2.6696    8.2028 C.ar      1 RES1    0.0000
     55 C12B       4.1659    1.9532    8.4038 C.ar      1 RES1    0.0000
     56 C13B       5.3243    1.2149    9.0375 C.3       1 RES1    0.0000
     57 C14B       6.5270    1.9979    9.3896 C.3       1 RES1    0.0000
     58 C15B       7.0782    2.8133    8.7738 C.3       1 RES1    0.0000
     59 H1B        4.3394   -1.7943    3.0339 H         1 RES1    0.0000
     60 H2B        3.4057   -0.5109    7.3913 H         1 RES1    0.0000
     61 H3B        1.5560    3.7961    9.1711 H         1 RES1    0.0000
     62 H4B        1.2516    3.7999    6.8328 H         1 RES1    0.0000
     63 H5B        2.7874    2.6468    5.4902 H         1 RES1    0.0000
     64 H6B        4.9843    0.7830    9.8129 H         1 RES1    0.0000
     65 H7B        5.6143    0.5604    8.4130 H         1 RES1    0.0000
     66 H8B        6.2860    2.4508   10.1893 H         1 RES1    0.0000
     67 H9B        7.2099    1.3643    9.5787 H         1 RES1    0.0000
     68 H10B       7.8470    3.1824    9.1936 H         1 RES1    0.0000
     69 H11B       7.3299    2.4070    7.9534 H         1 RES1    0.0000
     70 H12B       6.4481    3.5040    8.6056 H         1 RES1    0.0000
@<TRIPOS>BOND
     1    1    9 1
     2    2   13 1
     3    3    7 2
     4    4    7 2
     5    5    8 2
     6    6    8 2
     7    7   10 1
     8    8   12 1
     9    9   10 ar
    10   10   11 ar
    11   11   12 ar
    12   12   13 ar
    13   13   14 ar
    14   14    9 ar
    15   15    2 1
    16   16   15 ar
    17   17   16 ar
    18   18   17 ar
    19   19    1 1
    20   20   15 ar
    21   21   20 1
    22   22   21 1
    23   23   22 1
    24   24   11 1
    25   25   14 1
    26   26   18 1
    27   27   17 1
    28   28   16 1
    29   29   21 1
    30   30   21 1
    31   31   22 1
    32   32   22 1
    33   33   23 1
    34   34   23 1
    35   35   23 1
    36   36   44 1
    37   37   48 1
    38   38   42 2
    39   39   42 2
    40   40   43 2
    41   41   43 2
    42   42   45 1
    43   43   47 1
    44   44   45 ar
    45   45   46 ar
    46   46   47 ar
    47   47   48 ar
    48   48   49 ar
    49   49   44 ar
    50   50   37 1
    51   51   50 ar
    52   52   51 ar
    53   53   19 ar
    54   54   18 ar
    55   55   19 ar
    56   56   55 1
    57   57   56 1
    58   58   57 1
    59   59   46 1
    60   60   49 1
    61   61   53 1
    62   62   52 1
    63   63   51 1
    64   64   56 1
    65   65   56 1
    66   66   57 1
    67   67   57 1
    68   68   58 1
    69   69   58 1
    70   70   58 1
    71   20   54 ar
    72   36   54 1
    73   50   55 ar
    74   52   53 ar
@<TRIPOS>SUBSTRUCTURE
     1 RES1 1

@<TRIPOS>CRYSIN
   8.8140    9.5140   17.6060  90.0000  99.8500  90.0000 231 1

