# MOL2 file generated by ConQuest
# Please check atom types

@<TRIPOS>MOLECULE
ADACIT
    45    46     1
SMALL
NO_CHARGES
****
Generated from CSD

@<TRIPOS>ATOM
      1 O1        -3.1096    1.7836   15.6828 O.2       1 RES1    0.0000
      2 O2        -2.5819   -0.3492   15.4780 O.3       1 RES1    0.0000
      3 O3        -0.1755    1.1113   16.2006 O.3       1 RES1    0.0000
      4 O4         0.8783    2.4199   13.9407 O.3       1 RES1    0.0000
      5 O5         0.5896    2.5192   11.7007 O.2       1 RES1    0.0000
      6 O6         7.4924    2.3788   11.2793 O.2       1 RES1    0.0000
      7 O7         7.5906    3.6050   13.0329 O.2       1 RES1    0.0000
      8 N1         6.9582    2.9685   12.2090 N.pl3     1 RES1    0.0000
      9 C1        -2.2919    0.9605   15.3767 C.2       1 RES1    0.0000
     10 C2        -1.4443   -1.1338   15.0451 C.3       1 RES1    0.0000
     11 H1        -1.7365   -1.9071   14.5381 H         1 RES1    0.0000
     12 H2        -0.9301   -1.4392   15.8083 H         1 RES1    0.0000
     13 C3        -0.6034   -0.2004   14.1685 C.3       1 RES1    0.0000
     14 C4        -0.8409    1.1282   14.9428 C.3       1 RES1    0.0000
     15 C5        -0.5498    2.4212   14.2010 C.3       1 RES1    0.0000
     16 H3        -1.0450    2.4412   13.3546 H         1 RES1    0.0000
     17 C6        -0.8476    3.6751   15.0074 C.3       1 RES1    0.0000
     18 H4        -1.2335    3.6541   15.8538 H         1 RES1    0.0000
     19 C7        -0.4729    4.9157   14.3341 C.1       1 RES1    0.0000
     20 C8        -0.1907    5.9367   13.8445 C.1       1 RES1    0.0000
     21 C9         0.1316    7.2450   13.2395 C.3       1 RES1    0.0000
     22 H5        -0.6067    7.5375   12.7000 H         1 RES1    0.0000
     23 H6         0.9145    7.1604   12.6913 H         1 RES1    0.0000
     24 H7         0.2955    7.8869   13.9333 H         1 RES1    0.0000
     25 C10        0.8153   -0.6543   14.1427 C.2       1 RES1    0.0000
     26 H8         1.2926   -0.5772   14.9369 H         1 RES1    0.0000
     27 C11        1.4565   -1.1482   13.1227 C.2       1 RES1    0.0000
     28 H9         1.0238   -1.2468   12.3055 H         1 RES1    0.0000
     29 H10        2.3465   -1.4038   13.2115 H         1 RES1    0.0000
     30 C12       -1.2547   -0.1447   12.7897 C.3       1 RES1    0.0000
     31 H11       -0.7807    0.4802   12.2361 H         1 RES1    0.0000
     32 H12       -2.1681    0.1354   12.8777 H         1 RES1    0.0000
     33 H13       -1.2246   -1.0159   12.3857 H         1 RES1    0.0000
     34 C13        1.3127    2.5269   12.6594 C.2       1 RES1    0.0000
     35 C14        2.7960    2.6491   12.5944 C.ar      1 RES1    0.0000
     36 C15        3.3960    2.5286   11.3535 C.ar      1 RES1    0.0000
     37 H14        2.8696    2.3719   10.6017 H         1 RES1    0.0000
     38 C16        4.7555    2.6376   11.2171 C.ar      1 RES1    0.0000
     39 H15        5.1604    2.5412   10.3850 H         1 RES1    0.0000
     40 C17        5.5061    2.8917   12.3362 C.ar      1 RES1    0.0000
     41 C18        4.9451    3.0435   13.5765 C.ar      1 RES1    0.0000
     42 H16        5.4749    3.2323   14.3170 H         1 RES1    0.0000
     43 C19        3.5822    2.9108   13.7068 C.ar      1 RES1    0.0000
     44 H17        3.1863    2.9968   14.5446 H         1 RES1    0.0000
     45 H18        0.6625    1.2468   16.1356 H         1 RES1    0.0000
@<TRIPOS>BOND
     1    1    9 2
     2    2    9 1
     3    3   14 1
     4    4   15 1
     5    5   34 2
     6    6    8 2
     7    7    8 2
     8    8   40 1
     9    9   14 1
    10   10    2 1
    11   11   10 1
    12   12   10 1
    13   13   10 1
    14   14   13 1
    15   15   14 1
    16   16   15 1
    17   17   15 1
    18   18   17 1
    19   19   17 1
    20   20   19 3
    21   21   20 1
    22   22   21 1
    23   23   21 1
    24   24   21 1
    25   25   13 1
    26   26   25 1
    27   27   25 2
    28   28   27 1
    29   29   27 1
    30   30   13 1
    31   31   30 1
    32   32   30 1
    33   33   30 1
    34   34    4 1
    35   35   34 1
    36   36   35 ar
    37   37   36 1
    38   38   36 ar
    39   39   38 1
    40   40   38 ar
    41   41   40 ar
    42   42   41 1
    43   43   35 ar
    44   44   43 1
    45   45    3 1
    46   41   43 ar
@<TRIPOS>SUBSTRUCTURE
     1 RES1 1

@<TRIPOS>CRYSIN
  11.1527   15.3920   21.6760  90.0000  90.0000  90.0000  61 1

