# MOL2 file generated by ConQuest
# Please check atom types

@<TRIPOS>MOLECULE
ADALUP
    95    93     3
SMALL
NO_CHARGES
****
Generated from CSD

@<TRIPOS>ATOM
      1 O1         3.4669    4.5403    3.4068 O.2       1 RES1    0.0000
      2 O2         2.9021    4.7549    1.2773 O.2       1 RES1    0.0000
      3 N1         3.4069    5.2987    2.3421 N.pl3     1 RES1    0.0000
      4 C1         4.1610    8.5516    3.7812 C.2       1 RES1    0.0000
      5 N2         3.7574    8.7386    1.3551 N.pl3     1 RES1    0.0000
      6 H1         3.7502    9.2463    0.6617 H         1 RES1    0.0000
      7 N3         3.3685    6.9262    0.0048 N.pl3     1 RES1    0.0000
      8 H2         3.3197    6.0721   -0.0746 H         1 RES1    0.0000
      9 N4         3.7573   10.5917    2.8435 N.pl3     1 RES1    0.0000
     10 H3         3.6005   11.2169    2.2754 H         1 RES1    0.0000
     11 C2         3.6315    7.4177    1.2139 C.2       1 RES1    0.0000
     12 C3         3.7595    6.5705    2.3912 C.2       1 RES1    0.0000
     13 N5         3.9177   10.6878    4.1875 N.2       1 RES1    0.0000
     14 C4         4.3759    7.0648    3.7067 C.3       1 RES1    0.0000
     15 H4         3.8885    6.6476    4.4477 H         1 RES1    0.0000
     16 C5         3.9022    9.3000    2.6261 C.2       1 RES1    0.0000
     17 C6         4.1324    9.4787    4.7888 C.2       1 RES1    0.0000
     18 C7         5.8579    6.6913    3.8400 C.ar      1 RES1    0.0000
     19 C8         3.1567    7.7197   -1.1901 C.3       1 RES1    0.0000
     20 H5         3.3341    7.1839   -1.9660 H         1 RES1    0.0000
     21 H6         3.7489    8.4758   -1.1821 H         1 RES1    0.0000
     22 H7         2.2474    8.0262   -1.2139 H         1 RES1    0.0000
     23 C9         4.2768    9.4090    6.2502 C.ar      1 RES1    0.0000
     24 C10        6.2583    5.6342    4.6603 C.ar      1 RES1    0.0000
     25 H8         5.6129    5.1431    5.1173 H         1 RES1    0.0000
     26 C11        4.2087   10.5421    7.0420 C.ar      1 RES1    0.0000
     27 H9         4.1352   11.3804    6.6485 H         1 RES1    0.0000
     28 C12        4.4914    9.2266    9.0667 C.ar      1 RES1    0.0000
     29 H10        4.5946    9.1703    9.9902 H         1 RES1    0.0000
     30 C13        4.4991    8.1940    6.8976 C.ar      1 RES1    0.0000
     31 H11        4.5980    7.4232    6.3867 H         1 RES1    0.0000
     32 C14        7.5724    5.3060    4.8079 C.ar      1 RES1    0.0000
     33 H12        7.8178    4.6050    5.3680 H         1 RES1    0.0000
     34 C15        4.5770    8.1008    8.2607 C.ar      1 RES1    0.0000
     35 H13        4.6881    7.2663    8.6558 H         1 RES1    0.0000
     36 C16        8.1661    7.0272    3.3354 C.ar      1 RES1    0.0000
     37 H14        8.8245    7.5209    2.9038 H         1 RES1    0.0000
     38 C17        6.8334    7.3504    3.1465 C.ar      1 RES1    0.0000
     39 C18        4.2508   10.4259    8.4511 C.ar      1 RES1    0.0000
     40 H15        4.1127   11.1833    8.9731 H         1 RES1    0.0000
     41 C19        8.5211    6.0043    4.1367 C.ar      1 RES1    0.0000
     42 H16        9.4192    5.7785    4.2303 H         1 RES1    0.0000
     43 O3         6.3958    8.0012    2.0437 O.3       1 RES1    0.0000
     44 H17        7.0176    8.4121    1.7026 H         1 RES1    0.0000
     45 N6         2.2110    4.5653   -1.8359 N.3       2 RES2    0.0000
     46 N7         2.3246    2.6350   -0.4221 N.pl3     2 RES2    0.0000
     47 H18        2.4814    3.1071    0.2809 H         2 RES2    0.0000
     48 N8         1.4735   -0.7315   -1.4249 N.pl3     2 RES2    0.0000
     49 O4         1.1726   -1.2663   -0.3015 O.2       2 RES2    0.0000
     50 N9         2.0715    4.7049   -3.1799 N.2       2 RES2    0.0000
     51 O5         1.3295   -1.4219   -2.4738 O.2       2 RES2    0.0000
     52 N10        2.0887    0.8219    0.9156 N.pl3     2 RES2    0.0000
     53 H19        1.9699   -0.0269    0.9933 H         2 RES2    0.0000
     54 C20        2.2083    2.5362   -2.8831 C.2       2 RES2    0.0000
     55 C21        2.0734    3.5281   -3.8638 C.2       2 RES2    0.0000
     56 C22        2.2780    3.2586   -1.6978 C.2       2 RES2    0.0000
     57 C23        2.3139    1.0666   -2.8831 C.3       2 RES2    0.0000
     58 H20        1.6521    0.7169   -3.5131 H         2 RES2    0.0000
     59 C24        1.9508    0.5582   -1.4868 C.2       2 RES2    0.0000
     60 C25        1.9129    3.4573   -5.3014 C.ar      2 RES2    0.0000
     61 C26        2.1274    1.3234   -0.3078 C.2       2 RES2    0.0000
     62 C27        3.7165    0.5879   -3.3449 C.ar      2 RES2    0.0000
     63 C28        2.2290    1.5786    2.1183 C.3       2 RES2    0.0000
     64 H21        1.5604    2.2676    2.1437 H         2 RES2    0.0000
     65 H22        3.1018    1.9793    2.1453 H         2 RES2    0.0000
     66 H23        2.1200    0.9990    2.8768 H         2 RES2    0.0000
     67 C29        1.5538    3.2929   -8.0829 C.ar      2 RES2    0.0000
     68 H24        1.4573    3.2455   -9.0064 H         2 RES2    0.0000
     69 C30        1.6757    4.5695   -6.0725 C.ar      2 RES2    0.0000
     70 H25        1.6350    5.4024   -5.6631 H         2 RES2    0.0000
     71 C31        1.4977    4.4843   -7.4403 C.ar      2 RES2    0.0000
     72 H26        1.3358    5.2600   -7.9290 H         2 RES2    0.0000
     73 C32        1.7551    2.1672   -7.3483 C.ar      2 RES2    0.0000
     74 H27        1.7675    1.3417   -7.7767 H         2 RES2    0.0000
     75 C33        1.9465    2.2232   -5.9440 C.ar      2 RES2    0.0000
     76 H28        2.0935    1.4439   -5.4569 H         2 RES2    0.0000
     77 C34        3.8933   -0.4442   -4.2922 C.ar      2 RES2    0.0000
     78 C35        4.8515    1.2253   -2.9228 C.ar      2 RES2    0.0000
     79 C36        6.0441    0.7565   -3.3147 C.ar      2 RES2    0.0000
     80 H29        6.7990    1.0813   -2.8784 H         2 RES2    0.0000
     81 C37        5.2321   -0.7470   -4.7270 C.ar      2 RES2    0.0000
     82 H30        5.3684   -1.4143   -5.3617 H         2 RES2    0.0000
     83 C38        6.2233   -0.1192   -4.2604 C.ar      2 RES2    0.0000
     84 H31        7.0764   -0.2825   -4.5905 H         2 RES2    0.0000
     85 O6         4.6727    1.7756   -1.7089 O.3       2 RES2    0.0000
     86 H32        3.9645    1.5125   -1.3900 H         2 RES2    0.0000
     87 H33        2.7280    5.0415   -1.3963 H         2 RES2    0.0000
     88 H34        6.6016    8.0208    2.5452 Du        3 SUP3    0.0000
     89 O7         5.4794    4.7167    5.0951 Du        3 SUP3    0.0000
     90 O8         3.1016   -1.2903   -4.6111 Du        3 SUP3    0.0000
     91 H35        4.7949    1.9731   -2.3738 Du        3 SUP3    0.0000
     92 H36        3.8862   11.4328    4.6159 Du        3 SUP3    0.0000
     93 H37        1.9902    5.4698   -3.5639 Du        3 SUP3    0.0000
     94 H38        3.3712   -0.2177   -5.0776 Du        3 SUP3    0.0000
     95 H39        3.5136   -1.2556   -3.9193 Du        3 SUP3    0.0000
@<TRIPOS>BOND
     1    1    3 2
     2    2    3 2
     3    3   12 1
     4    4   14 1
     5    5    6 1
     6    7    8 1
     7    9   10 1
     8   11    5 1
     9   12   11 2
    10   13    9 1
    11   14   12 1
    12   15   14 1
    13   16    4 2
    14   17    4 1
    15   18   14 1
    16   19    7 1
    17   20   19 1
    18   21   19 1
    19   22   19 1
    20   23   17 1
    21   24   18 ar
    22   25   24 1
    23   26   23 ar
    24   27   26 1
    25   28   29 1
    26   30   23 ar
    27   31   30 1
    28   32   24 ar
    29   33   32 1
    30   34   28 ar
    31   35   34 1
    32   36   37 1
    33   38   18 ar
    34   39   26 ar
    35   40   39 1
    36   41   32 ar
    37   42   41 1
    38   43   38 1
    39   44   43 1
    40   45   50 1
    41   46   47 1
    42   48   49 2
    43   50   55 2
    44   51   48 2
    45   52   53 1
    46   54   55 1
    47   55   60 1
    48   56   45 1
    49   57   54 1
    50   58   57 1
    51   59   48 1
    52   60   69 ar
    53   61   46 1
    54   62   57 1
    55   63   52 1
    56   64   63 1
    57   65   63 1
    58   66   63 1
    59   67   68 1
    60   69   70 1
    61   71   67 ar
    62   72   71 1
    63   73   67 ar
    64   74   73 1
    65   75   60 ar
    66   76   75 1
    67   77   62 ar
    68   78   62 ar
    69   79   78 ar
    70   80   79 1
    71   81   77 ar
    72   82   81 1
    73   83   79 ar
    74   84   83 1
    75   85   78 1
    76   86   85 1
    77   87   45 1
    78    5   16 1
    79    7   11 1
    80    9   16 1
    81   13   17 2
    82   28   39 ar
    83   30   34 ar
    84   36   38 ar
    85   36   41 ar
    86   46   56 1
    87   52   61 1
    88   54   56 2
    89   57   59 1
    90   59   61 2
    91   69   71 ar
    92   73   75 ar
    93   81   83 ar
@<TRIPOS>SUBSTRUCTURE
     1 RES1 1
     2 RES2 45
     3 SUP3 88

@<TRIPOS>CRYSIN
  11.3633   12.4790   16.6341  86.3510  72.5390  78.2030   2 1

