# MOL2 file generated by ConQuest
# Please check atom types

@<TRIPOS>MOLECULE
ADANID
    61    66     1
SMALL
NO_CHARGES
****
Generated from CSD

@<TRIPOS>ATOM
      1 O1         0.8126   11.8166   22.3688 O.2       1 RES1    0.0000
      2 O2        -0.3573   10.8356   20.9712 O.2       1 RES1    0.0000
      3 O3         5.3305   10.6617   23.4423 O.2       1 RES1    0.0000
      4 O4         3.1410    4.6600   16.3571 O.2       1 RES1    0.0000
      5 O5         1.5424    6.0293   16.2227 O.2       1 RES1    0.0000
      6 O6         7.2567    6.0626   18.7518 O.2       1 RES1    0.0000
      7 N1         0.6600   10.9805   21.5403 N.pl3     1 RES1    0.0000
      8 N2         2.5609    5.6221   16.7351 N.pl3     1 RES1    0.0000
      9 C1         5.0991   12.0847   21.0569 C.ar      1 RES1    0.0000
     10 H1         5.8924   12.1702   21.5337 H         1 RES1    0.0000
     11 C2         4.9131   12.8237   19.9280 C.ar      1 RES1    0.0000
     12 H2         5.5662   13.4192   19.6395 H         1 RES1    0.0000
     13 C3         3.7646   12.6744   19.2325 C.ar      1 RES1    0.0000
     14 H3         3.6299   13.1787   18.4633 H         1 RES1    0.0000
     15 C4         2.7954   11.7992   19.6356 C.ar      1 RES1    0.0000
     16 H4         2.0131   11.7166   19.1390 H         1 RES1    0.0000
     17 C5         2.9692   11.0399   20.7723 C.ar      1 RES1    0.0000
     18 C6         1.2373    8.3738   22.9036 C.ar      1 RES1    0.0000
     19 H5         0.4385    8.2564   22.4426 H         1 RES1    0.0000
     20 C7         1.4811    7.6319   24.0324 C.ar      1 RES1    0.0000
     21 H6         0.8495    7.0146   24.3209 H         1 RES1    0.0000
     22 C8         2.6354    7.7869   24.7306 C.ar      1 RES1    0.0000
     23 H7         2.7931    7.2769   25.4919 H         1 RES1    0.0000
     24 C9         3.5480    8.6868   24.3130 C.ar      1 RES1    0.0000
     25 H8         4.3367    8.7969   24.7951 H         1 RES1    0.0000
     26 C10        3.3299    9.4533   23.1723 C.ar      1 RES1    0.0000
     27 C11        4.3342   10.4473   22.7574 C.2       1 RES1    0.0000
     28 C12        4.1108   11.1964   21.5139 C.ar      1 RES1    0.0000
     29 C13        1.8838   10.0879   21.1846 C.3       1 RES1    0.0000
     30 C14        2.1702    9.2953   22.4439 C.ar      1 RES1    0.0000
     31 C15        1.4733    9.1852   20.0294 C.3       1 RES1    0.0000
     32 H9         0.7262    8.6331   20.3100 H         1 RES1    0.0000
     33 H10        1.1725    9.7358   19.2892 H         1 RES1    0.0000
     34 C16        2.6080    8.2810   19.5500 C.3       1 RES1    0.0000
     35 H11        3.3518    8.8259   19.2444 H         1 RES1    0.0000
     36 H12        2.9192    7.7290   20.2837 H         1 RES1    0.0000
     37 C17        6.5760    7.8550   16.7167 C.ar      1 RES1    0.0000
     38 H13        7.4799    7.7550   16.9116 H         1 RES1    0.0000
     39 C18        6.2083    8.7128   15.7630 C.ar      1 RES1    0.0000
     40 H14        6.8524    9.1910   15.2915 H         1 RES1    0.0000
     41 C19        4.8949    8.8853   15.4838 C.ar      1 RES1    0.0000
     42 H15        4.6421    9.4938   14.8278 H         1 RES1    0.0000
     43 C20        3.9349    8.1753   16.1529 C.ar      1 RES1    0.0000
     44 H16        3.0375    8.3013   15.9435 H         1 RES1    0.0000
     45 C21        4.2843    7.2783   17.1316 C.ar      1 RES1    0.0000
     46 C22        2.7858    4.7353   19.5829 C.ar      1 RES1    0.0000
     47 H17        1.8763    4.8165   19.4077 H         1 RES1    0.0000
     48 C23        3.2301    3.8442   20.5366 C.ar      1 RES1    0.0000
     49 H18        2.6115    3.3110   20.9818 H         1 RES1    0.0000
     50 C24        4.5552    3.7297   20.8435 C.ar      1 RES1    0.0000
     51 H19        4.8357    3.1385   21.5047 H         1 RES1    0.0000
     52 C25        5.4610    4.4919   20.1717 C.ar      1 RES1    0.0000
     53 H20        6.3666    4.4079   20.3693 H         1 RES1    0.0000
     54 C26        5.0560    5.3888   19.1943 C.ar      1 RES1    0.0000
     55 C27        6.0712    6.1800   18.4870 C.2       1 RES1    0.0000
     56 C28        5.6360    7.1044   17.4280 C.ar      1 RES1    0.0000
     57 C29        3.2044    6.4930   17.8547 C.3       1 RES1    0.0000
     58 C30        3.6987    5.5076   18.8874 C.ar      1 RES1    0.0000
     59 C31        2.1219    7.4015   18.4185 C.3       1 RES1    0.0000
     60 H21        1.7812    7.9637   17.7072 H         1 RES1    0.0000
     61 H22        1.3885    6.8538   18.7399 H         1 RES1    0.0000
@<TRIPOS>BOND
     1    1    7 2
     2    2    7 2
     3    3   27 2
     4    4    8 2
     5    5    8 2
     6    6   55 2
     7    7   29 1
     8    8   57 1
     9    9   10 1
    10   11    9 ar
    11   12   11 1
    12   13   11 ar
    13   14   13 1
    14   15   13 ar
    15   16   15 1
    16   17   15 ar
    17   18   19 1
    18   20   18 ar
    19   21   20 1
    20   22   20 ar
    21   23   22 1
    22   24   22 ar
    23   25   24 1
    24   26   24 ar
    25   27   26 1
    26   28    9 ar
    27   29   17 1
    28   30   18 ar
    29   31   29 1
    30   32   31 1
    31   33   31 1
    32   34   31 1
    33   35   34 1
    34   36   34 1
    35   37   38 1
    36   39   37 ar
    37   40   39 1
    38   41   39 ar
    39   42   41 1
    40   43   41 ar
    41   44   43 1
    42   45   43 ar
    43   46   47 1
    44   48   46 ar
    45   49   48 1
    46   50   48 ar
    47   51   50 1
    48   52   50 ar
    49   53   52 1
    50   54   52 ar
    51   55   54 1
    52   56   37 ar
    53   57   45 1
    54   58   46 ar
    55   59   34 1
    56   60   59 1
    57   61   59 1
    58   17   28 ar
    59   26   30 ar
    60   27   28 1
    61   29   30 1
    62   45   56 ar
    63   54   58 ar
    64   55   56 1
    65   57   58 1
    66   57   59 1
@<TRIPOS>SUBSTRUCTURE
     1 RES1 1

@<TRIPOS>CRYSIN
  13.4380   14.4900   13.9740  90.0000 109.5050  90.0000 231 1

