# MOL2 file generated by ConQuest
# Please check atom types

@<TRIPOS>MOLECULE
ADANEZ
    44    46     1
SMALL
NO_CHARGES
****
Generated from CSD

@<TRIPOS>ATOM
      1 O1         4.9921    1.4604    6.5555 O.3       1 RES1    0.0000
      2 O2         1.6244    6.1008    2.5874 O.3       1 RES1    0.0000
      3 O3         4.9197    7.5143    2.2108 O.3       1 RES1    0.0000
      4 O4         7.2102   10.2277    3.0448 O.3       1 RES1    0.0000
      5 O5         6.8941    9.8286    0.8753 O.2       1 RES1    0.0000
      6 N1         3.5027    5.2852    3.3658 N.2       1 RES1    0.0000
      7 N2         1.2889    4.8678    3.2263 N.2       1 RES1    0.0000
      8 C1         6.0656    2.3834    6.5963 C.3       1 RES1    0.0000
      9 H1         6.7610    2.0408    7.1621 H         1 RES1    0.0000
     10 H2         5.7535    3.2221    6.9433 H         1 RES1    0.0000
     11 H3         6.4104    2.5130    5.7103 H         1 RES1    0.0000
     12 C2         3.9051    1.7625    5.8010 C.ar      1 RES1    0.0000
     13 C3         3.7552    2.9423    5.0724 C.ar      1 RES1    0.0000
     14 H4         4.4390    3.5727    5.0565 H         1 RES1    0.0000
     15 C4         2.5881    3.1681    4.3755 C.ar      1 RES1    0.0000
     16 C5         1.5713    2.2340    4.3798 C.ar      1 RES1    0.0000
     17 H5         0.7878    2.3898    3.9030 H         1 RES1    0.0000
     18 C6         1.7317    1.0574    5.1032 C.ar      1 RES1    0.0000
     19 H6         1.0505    0.4237    5.1111 H         1 RES1    0.0000
     20 C7         2.8714    0.8284    5.7963 C.ar      1 RES1    0.0000
     21 H7         2.9656    0.0374    6.2746 H         1 RES1    0.0000
     22 C8         2.4409    4.4504    3.6549 C.2       1 RES1    0.0000
     23 C9         2.9304    6.2487    2.7266 C.2       1 RES1    0.0000
     24 C10        3.5092    7.4849    2.1233 C.3       1 RES1    0.0000
     25 H8         3.2473    7.5366    1.1908 H         1 RES1    0.0000
     26 H9         3.1463    8.2616    2.5779 H         1 RES1    0.0000
     27 C11        5.6552    6.7957    1.2788 C.ar      1 RES1    0.0000
     28 C12        5.0978    5.9259    0.3595 C.ar      1 RES1    0.0000
     29 H10        4.1789    5.7860    0.3306 H         1 RES1    0.0000
     30 C13        5.9470    5.2677   -0.5166 C.ar      1 RES1    0.0000
     31 H11        5.5884    4.6810   -1.1435 H         1 RES1    0.0000
     32 C14        7.3058    5.4632   -0.4793 C.ar      1 RES1    0.0000
     33 H12        7.8652    5.0021   -1.0615 H         1 RES1    0.0000
     34 C15        7.8290    6.3528    0.4338 C.ar      1 RES1    0.0000
     35 H13        8.7466    6.5031    0.4500 H         1 RES1    0.0000
     36 C16        7.0153    7.0262    1.3283 C.ar      1 RES1    0.0000
     37 C17        7.5766    8.0247    2.3077 C.3       1 RES1    0.0000
     38 H14        8.5443    7.9587    2.3095 H         1 RES1    0.0000
     39 H15        7.2616    7.8085    3.1994 H         1 RES1    0.0000
     40 C18        7.1737    9.4502    1.9664 C.2       1 RES1    0.0000
     41 C19        6.8942   11.6316    2.8057 C.3       1 RES1    0.0000
     42 H16        6.9514   12.1174    3.6320 H         1 RES1    0.0000
     43 H17        6.0044   11.7040    2.4512 H         1 RES1    0.0000
     44 H18        7.5200   11.9973    2.1752 H         1 RES1    0.0000
@<TRIPOS>BOND
     1    1    8 1
     2    2    7 1
     3    3   24 1
     4    4   40 1
     5    5   40 2
     6    6   22 1
     7    7   22 2
     8    8    9 1
     9   10    8 1
    10   11    8 1
    11   12    1 1
    12   13   12 ar
    13   14   13 1
    14   15   13 ar
    15   16   15 ar
    16   17   16 1
    17   18   16 ar
    18   19   18 1
    19   20   12 ar
    20   21   20 1
    21   22   15 1
    22   23    2 1
    23   24   23 1
    24   25   24 1
    25   26   24 1
    26   27    3 1
    27   28   27 ar
    28   29   28 1
    29   30   28 ar
    30   31   30 1
    31   32   30 ar
    32   33   32 1
    33   34   32 ar
    34   35   34 1
    35   36   27 ar
    36   37   36 1
    37   38   37 1
    38   39   37 1
    39   40   37 1
    40   41    4 1
    41   42   41 1
    42   43   41 1
    43   44   41 1
    44    6   23 2
    45   18   20 ar
    46   34   36 ar
@<TRIPOS>SUBSTRUCTURE
     1 RES1 1

@<TRIPOS>CRYSIN
   8.9620    7.9500   25.0210  90.0000  96.5100  90.0000 231 1

