# MOL2 file generated by ConQuest
# Please check atom types

@<TRIPOS>MOLECULE
ADERIL01
    42    42     2
SMALL
NO_CHARGES
****
Generated from CSD

@<TRIPOS>ATOM
      1 O1         3.1044    5.0474    8.2764 O.3       1 RES1    0.0000
      2 H1         3.5838    5.0431    8.9409 H         1 RES1    0.0000
      3 N1         3.8678    5.4718    7.1386 N.2       1 RES1    0.0000
      4 N2         1.7993    5.3099    6.1384 N.pl3     1 RES1    0.0000
      5 H2         1.4206    5.0695    6.8724 H         1 RES1    0.0000
      6 H3         1.3340    5.3863    5.4194 H         1 RES1    0.0000
      7 C1         3.1151    5.5638    6.1150 C.2       1 RES1    0.0000
      8 C2         3.7675    5.9884    4.8492 C.ar      1 RES1    0.0000
      9 C3         5.0004    6.6086    4.8642 C.ar      1 RES1    0.0000
     10 H4         5.4110    6.7894    5.6785 H         1 RES1    0.0000
     11 C4         5.6325    6.9639    3.6937 C.ar      1 RES1    0.0000
     12 H5         6.4642    7.3787    3.7339 H         1 RES1    0.0000
     13 C5         5.0657    6.7213    2.4747 C.ar      1 RES1    0.0000
     14 C6         5.7773    7.1035    1.1922 C.3       1 RES1    0.0000
     15 H6         5.9973    8.0381    1.2140 H         1 RES1    0.0000
     16 H7         5.2030    6.9269    0.4431 H         1 RES1    0.0000
     17 H8         6.5824    6.5869    1.1069 H         1 RES1    0.0000
     18 C7         3.8212    6.1174    2.4547 C.ar      1 RES1    0.0000
     19 H9         3.4094    5.9508    1.6370 H         1 RES1    0.0000
     20 C8         3.1774    5.7571    3.6218 C.ar      1 RES1    0.0000
     21 H10        2.3396    5.3549    3.5817 H         1 RES1    0.0000
     22 O2         7.4874    6.7769   16.7029 O.3       2 RES2    0.0000
     23 H11        7.9969    6.6125   17.3249 H         2 RES2    0.0000
     24 N3         8.2460    7.0059   15.5127 N.2       2 RES2    0.0000
     25 N4         6.2179    7.8467   14.8084 N.pl3     2 RES2    0.0000
     26 H12        5.8489    7.6793   15.5675 H         2 RES2    0.0000
     27 H13        5.7594    8.2075   14.1780 H         2 RES2    0.0000
     28 C9         7.5193    7.5427   14.6094 C.2       2 RES2    0.0000
     29 C10        8.1379    7.8087   13.2968 C.ar      2 RES2    0.0000
     30 C11        9.3722    7.2519   12.9690 C.ar      2 RES2    0.0000
     31 H14        9.8100    6.7091   13.5844 H         2 RES2    0.0000
     32 C12        9.9506    7.4967   11.7467 C.ar      2 RES2    0.0000
     33 H15       10.7788    7.1202   11.5544 H         2 RES2    0.0000
     34 C13        9.3343    8.2847   10.8003 C.ar      2 RES2    0.0000
     35 C14        9.9760    8.5437    9.4525 C.3       2 RES2    0.0000
     36 H16       10.9281    8.6031    9.5562 H         2 RES2    0.0000
     37 H17        9.6414    9.3684    9.0914 H         2 RES2    0.0000
     38 H18        9.7643    7.8233    8.8539 H         2 RES2    0.0000
     39 C15        8.1124    8.8260   11.1196 C.ar      2 RES2    0.0000
     40 H19        7.6743    9.3573   10.4943 H         2 RES2    0.0000
     41 C16        7.5165    8.5994   12.3487 C.ar      2 RES2    0.0000
     42 H20        6.6909    8.9820   12.5376 H         2 RES2    0.0000
@<TRIPOS>BOND
     1    1    2 1
     2    3    1 1
     3    4    5 1
     4    6    4 1
     5    7    3 2
     6    8    7 1
     7    9    8 ar
     8   10    9 1
     9   11    9 ar
    10   12   11 1
    11   13   11 ar
    12   14   13 1
    13   15   14 1
    14   16   14 1
    15   17   14 1
    16   18   13 ar
    17   19   18 1
    18   20    8 ar
    19   21   20 1
    20   22   23 1
    21   24   22 1
    22   25   26 1
    23   27   25 1
    24   28   24 2
    25   29   28 1
    26   30   29 ar
    27   31   30 1
    28   32   30 ar
    29   33   32 1
    30   34   32 ar
    31   35   34 1
    32   36   35 1
    33   37   35 1
    34   38   35 1
    35   39   34 ar
    36   40   39 1
    37   41   29 ar
    38   42   41 1
    39    4    7 1
    40   18   20 ar
    41   25   28 1
    42   39   41 ar
@<TRIPOS>SUBSTRUCTURE
     1 RES1 1
     2 RES2 22

@<TRIPOS>CRYSIN
   6.4074    7.4624   17.1480  79.3930  82.0880  85.4920   2 1

