# MOL2 file generated by ConQuest
# Please check atom types

@<TRIPOS>MOLECULE
ADERIL
    42    42     2
SMALL
NO_CHARGES
****
Generated from CSD

@<TRIPOS>ATOM
      1 O1         5.7222   -2.4095    8.2918 O.3       1 RES1    0.0000
      2 H1         6.2148   -2.4709    8.9437 H         1 RES1    0.0000
      3 C1         8.4234   -0.3438    1.1954 C.3       1 RES1    0.0000
      4 H2         9.2653    0.0626    1.4130 H         1 RES1    0.0000
      5 H3         7.8874    0.2773    0.6973 H         1 RES1    0.0000
      6 H4         8.5749   -1.1313    0.6671 H         1 RES1    0.0000
      7 N1         4.4131   -2.1347    6.1447 N.pl3     1 RES1    0.0000
      8 H5         4.0321   -2.3796    6.8754 H         1 RES1    0.0000
      9 H6         3.9491   -2.0517    5.4255 H         1 RES1    0.0000
     10 C2         7.7011   -0.7223    2.4724 C.ar      1 RES1    0.0000
     11 C3         8.2703   -0.4801    3.7048 C.ar      1 RES1    0.0000
     12 H7         9.1033   -0.0683    3.7461 H         1 RES1    0.0000
     13 C4         7.6355   -0.8325    4.8805 C.ar      1 RES1    0.0000
     14 H8         8.0424   -0.6469    5.6954 H         1 RES1    0.0000
     15 N2         6.4822   -1.9862    7.1581 N.2       1 RES1    0.0000
     16 C5         6.3913   -1.4635    4.8588 C.ar      1 RES1    0.0000
     17 C6         5.8073   -1.6902    3.6215 C.ar      1 RES1    0.0000
     18 H9         4.9683   -2.0907    3.5768 H         1 RES1    0.0000
     19 C7         6.4541   -1.3303    2.4503 C.ar      1 RES1    0.0000
     20 H10        6.0443   -1.4993    1.6325 H         1 RES1    0.0000
     21 C8         5.7410   -1.8818    6.1261 C.2       1 RES1    0.0000
     22 O2         5.0877    3.6545    0.0225 O.3       2 RES2    0.0000
     23 H11        4.6065    3.9914   -0.5498 H         2 RES2    0.0000
     24 N3         4.3237    3.4139    1.2078 N.2       2 RES2    0.0000
     25 N4         6.3571    2.5730    1.9205 N.pl3     2 RES2    0.0000
     26 H12        6.7271    2.7276    1.1599 H         2 RES2    0.0000
     27 H13        6.8143    2.2193    2.5577 H         2 RES2    0.0000
     28 C9         2.5778    1.8861    7.2882 C.3       2 RES2    0.0000
     29 H14        1.7327    2.3400    7.3279 H         2 RES2    0.0000
     30 H15        3.1514    2.2174    7.9833 H         2 RES2    0.0000
     31 H16        2.4415    0.9435    7.4084 H         2 RES2    0.0000
     32 C10        3.2221    2.1354    5.9418 C.ar      2 RES2    0.0000
     33 C11        2.6060    2.9293    4.9881 C.ar      2 RES2    0.0000
     34 H17        1.7762    3.3042    5.1791 H         2 RES2    0.0000
     35 C12        3.1884    3.1798    3.7620 C.ar      2 RES2    0.0000
     36 H18        2.7556    3.7285    3.1494 H         2 RES2    0.0000
     37 C13        4.4269    2.6118    3.4352 C.ar      2 RES2    0.0000
     38 C14        5.0434    1.8181    4.3812 C.ar      2 RES2    0.0000
     39 H19        5.8650    1.4289    4.1852 H         2 RES2    0.0000
     40 C15        4.4619    1.5913    5.6151 C.ar      2 RES2    0.0000
     41 H20        4.9075    1.0646    6.2384 H         2 RES2    0.0000
     42 C16        5.0541    2.8868    2.1156 C.2       2 RES2    0.0000
@<TRIPOS>BOND
     1    1    2 1
     2    3    4 1
     3    5    3 1
     4    6    3 1
     5    7    8 1
     6    9    7 1
     7   10    3 1
     8   11   10 ar
     9   12   11 1
    10   13   11 ar
    11   14   13 1
    12   15    1 1
    13   16   13 ar
    14   17   16 ar
    15   18   17 1
    16   19   10 ar
    17   20   19 1
    18   21    7 1
    19   22   23 1
    20   24   22 1
    21   25   26 1
    22   27   25 1
    23   28   29 1
    24   30   28 1
    25   31   28 1
    26   32   28 1
    27   33   32 ar
    28   34   33 1
    29   35   33 ar
    30   36   35 1
    31   37   35 ar
    32   38   37 ar
    33   39   38 1
    34   40   32 ar
    35   41   40 1
    36   42   24 2
    37   15   21 2
    38   16   21 1
    39   17   19 ar
    40   25   42 1
    41   37   42 1
    42   38   40 ar
@<TRIPOS>SUBSTRUCTURE
     1 RES1 1
     2 RES2 22

@<TRIPOS>CRYSIN
   6.4220    7.4720   17.1810  79.4800  82.1600  85.4500   2 1

