# MOL2 file generated by ConQuest
# Please check atom types

@<TRIPOS>MOLECULE
ADOJUY
    31    32     1
SMALL
NO_CHARGES
****
Generated from CSD

@<TRIPOS>ATOM
      1 C1         2.4117    6.7963    8.1833 C.2       1 RES1    0.0000
      2 C2         1.6016    5.7659    8.8611 C.2       1 RES1    0.0000
      3 C3         0.4958    5.2971    8.2629 C.2       1 RES1    0.0000
      4 C4        -0.0505    5.7945    6.9583 C.3       1 RES1    0.0000
      5 C5         0.5435    7.1309    6.5681 C.3       1 RES1    0.0000
      6 C6         2.0506    7.1628    6.7683 C.3       1 RES1    0.0000
      7 C7         4.2579    3.1493   14.2143 C.3       1 RES1    0.0000
      8 C8         2.0222    5.2506   10.1965 C.ar      1 RES1    0.0000
      9 C9         1.1124    5.2319   11.2557 C.ar      1 RES1    0.0000
     10 C10        1.4636    4.7249   12.4897 C.ar      1 RES1    0.0000
     11 C11        2.7400    4.2149   12.6995 C.ar      1 RES1    0.0000
     12 C12        3.6606    4.2189   11.6638 C.ar      1 RES1    0.0000
     13 C13        3.2946    4.7447   10.4295 C.ar      1 RES1    0.0000
     14 N1         3.3836    7.3133    8.8467 N.2       1 RES1    0.0000
     15 O1         4.1017    8.2727    8.1059 O.3       1 RES1    0.0000
     16 O2         2.9906    3.7379   13.9609 O.3       1 RES1    0.0000
     17 H1         0.0110    4.5753    8.7075 H         1 RES1    0.0000
     18 H2         0.1598    5.0958    6.2923 H         1 RES1    0.0000
     19 H3        -1.0593    5.8343    7.0171 H         1 RES1    0.0000
     20 H4         0.3197    7.3445    5.6302 H         1 RES1    0.0000
     21 H5         0.1631    7.8569    7.1385 H         1 RES1    0.0000
     22 H6         2.4013    8.0345    6.5583 H         1 RES1    0.0000
     23 H7         2.5164    6.5010    6.1632 H         1 RES1    0.0000
     24 H8         4.9975    3.7557   14.0380 H         1 RES1    0.0000
     25 H9         4.3792    2.3408   13.6371 H         1 RES1    0.0000
     26 H10        4.2348    2.8541   15.1212 H         1 RES1    0.0000
     27 H11        0.2391    5.5970   11.1149 H         1 RES1    0.0000
     28 H12        0.8234    4.7108   13.2467 H         1 RES1    0.0000
     29 H13        4.5270    3.8611   11.7751 H         1 RES1    0.0000
     30 H14        3.9482    4.7220    9.6915 H         1 RES1    0.0000
     31 H15        4.7045    8.4931    8.7084 H         1 RES1    0.0000
@<TRIPOS>BOND
     1    1    2 1
     2    2    3 2
     3    3    4 1
     4    4    5 1
     5    5    6 1
     6    6    1 1
     7    7   16 1
     8    8    2 1
     9    9    8 ar
    10   10    9 ar
    11   11   10 ar
    12   12   11 ar
    13   13    8 ar
    14   14    1 2
    15   15   14 1
    16   16   11 1
    17   17    3 1
    18   18    4 1
    19   19    4 1
    20   20    5 1
    21   21    5 1
    22   22    6 1
    23   23    6 1
    24   24    7 1
    25   25    7 1
    26   26    7 1
    27   27    9 1
    28   28   10 1
    29   29   12 1
    30   30   13 1
    31   31   15 1
    32   12   13 ar
@<TRIPOS>SUBSTRUCTURE
     1 RES1 1

@<TRIPOS>CRYSIN
   6.4930    9.1950   10.2250  70.6000  85.8000  83.4900   2 1

