# MOL2 file generated by ConQuest
# Please check atom types

@<TRIPOS>MOLECULE
ADOJEK
    24    24     1
SMALL
NO_CHARGES
****
Generated from CSD

@<TRIPOS>ATOM
      1 C1         3.5083    2.0752    4.6878 C.ar      1 RES1    0.0000
      2 C2         3.8192    1.1843    3.6512 C.ar      1 RES1    0.0000
      3 H1         3.1707    0.9927    2.9836 H         1 RES1    0.0000
      4 C3         5.0756    0.5759    3.5928 C.ar      1 RES1    0.0000
      5 C4         6.0288    0.8763    4.5753 C.ar      1 RES1    0.0000
      6 H2         6.8874    0.4694    4.5377 H         1 RES1    0.0000
      7 C5         5.7311    1.7658    5.6061 C.ar      1 RES1    0.0000
      8 C6         4.4597    2.3636    5.6613 C.ar      1 RES1    0.0000
      9 H3         4.2493    2.9656    6.3649 H         1 RES1    0.0000
     10 C7         2.2227    2.7837    4.7752 C.2       1 RES1    0.0000
     11 H4         2.0737    3.3579    5.5169 H         1 RES1    0.0000
     12 N1         1.2968    2.6652    3.9026 N.2       1 RES1    0.0000
     13 O1         0.2077    3.4790    4.2391 O.3       1 RES1    0.0000
     14 H5        -0.3840    3.2689    3.5178 H         1 RES1    0.0000
     15 C8         5.3466   -0.3641    2.4982 C.2       1 RES1    0.0000
     16 H6         4.6734   -0.5276    1.8482 H         1 RES1    0.0000
     17 N2         6.4721   -0.9696    2.3991 N.2       1 RES1    0.0000
     18 O2         6.4957   -1.8321    1.2916 O.3       1 RES1    0.0000
     19 H7         7.2798   -2.2463    1.4439 H         1 RES1    0.0000
     20 C9         6.7875    2.0735    6.5823 C.2       1 RES1    0.0000
     21 H8         7.6204    1.6199    6.5329 H         1 RES1    0.0000
     22 N3         6.5932    2.9446    7.4939 N.2       1 RES1    0.0000
     23 O3         7.7533    3.1235    8.2731 O.3       1 RES1    0.0000
     24 H9         7.4634    3.6668    9.0308 H         1 RES1    0.0000
@<TRIPOS>BOND
     1    1    2 ar
     2    2    3 1
     3    4    2 ar
     4    5    4 ar
     5    6    5 1
     6    7    5 ar
     7    8    1 ar
     8    9    8 1
     9   10    1 1
    10   11   10 1
    11   12   10 2
    12   13   12 1
    13   14   13 1
    14   15    4 1
    15   16   15 1
    16   17   15 2
    17   18   17 1
    18   19   18 1
    19   20    7 1
    20   21   20 1
    21   22   20 2
    22   23   22 1
    23   24   23 1
    24    7    8 ar
@<TRIPOS>SUBSTRUCTURE
     1 RES1 1

@<TRIPOS>CRYSIN
  16.6967    4.2787   13.1262  90.0000  90.0000  90.0000  33 1

