# MOL2 file generated by ConQuest
# Please check atom types

@<TRIPOS>MOLECULE
ADOJEI01
    27    27     1
SMALL
NO_CHARGES
****
Generated from CSD

@<TRIPOS>ATOM
      1 O1         7.7674    2.6784    2.7241 O.3       1 RES1    0.0000
      2 H1         6.9744    3.2561    2.8723 H         1 RES1    0.0000
      3 N1         7.1104    1.4997    2.3543 N.2       1 RES1    0.0000
      4 N2         8.1231   -1.6363    1.3154 N.2       1 RES1    0.0000
      5 N3         8.5655   -5.1126    0.4515 N.ar      1 RES1    0.0000
      6 C1         9.4084    0.6492    2.1832 C.3       1 RES1    0.0000
      7 H2         9.6619    1.5663    2.3100 H         1 RES1    0.0000
      8 H3         9.8004    0.3181    1.3712 H         1 RES1    0.0000
      9 H4         9.7206    0.1254    2.9250 H         1 RES1    0.0000
     10 C2         7.9261    0.5515    2.0946 C.2       1 RES1    0.0000
     11 C3         7.3070   -0.7296    1.6600 C.2       1 RES1    0.0000
     12 C4         5.8196   -0.8421    1.6638 C.3       1 RES1    0.0000
     13 H5         5.5289   -1.2706    0.8556 H         1 RES1    0.0000
     14 H6         5.4328    0.0356    1.7188 H         1 RES1    0.0000
     15 H7         5.5403   -1.3623    2.4208 H         1 RES1    0.0000
     16 C5         7.6311   -2.9372    0.8785 C.3       1 RES1    0.0000
     17 H8         6.9900   -2.8182    0.1604 H         1 RES1    0.0000
     18 H9         7.1795   -3.3777    1.6149 H         1 RES1    0.0000
     19 C6         8.7652   -3.7939    0.4010 C.ar      1 RES1    0.0000
     20 C7         9.9450   -3.2624   -0.0787 C.ar      1 RES1    0.0000
     21 H10       10.0620   -2.3410   -0.1085 H         1 RES1    0.0000
     22 C8        10.9444   -4.0957   -0.5095 C.ar      1 RES1    0.0000
     23 H11       11.7390   -3.7482   -0.8472 H         1 RES1    0.0000
     24 C9        10.7513   -5.4503   -0.4324 C.ar      1 RES1    0.0000
     25 H12       11.4185   -6.0424   -0.6951 H         1 RES1    0.0000
     26 C10        9.5524   -5.9094    0.0390 C.ar      1 RES1    0.0000
     27 H13        9.4174   -6.8284    0.0741 H         1 RES1    0.0000
@<TRIPOS>BOND
     1    1    2 1
     2    3    1 1
     3    4   11 2
     4    5   19 ar
     5    6    7 1
     6    8    6 1
     7    9    6 1
     8   10    3 2
     9   11   10 1
    10   12   11 1
    11   13   12 1
    12   14   12 1
    13   15   12 1
    14   16    4 1
    15   17   16 1
    16   18   16 1
    17   19   16 1
    18   20   19 ar
    19   21   20 1
    20   22   20 ar
    21   23   22 1
    22   24   22 ar
    23   25   24 1
    24   26    5 ar
    25   27   26 1
    26    6   10 1
    27   24   26 ar
@<TRIPOS>SUBSTRUCTURE
     1 RES1 1

@<TRIPOS>CRYSIN
   7.1400   18.7130    7.6410  90.0000  91.3100  90.0000  14 1

