# MOL2 file generated by ConQuest
# Please check atom types

@<TRIPOS>MOLECULE
ADOKUZ
    45    47     1
SMALL
NO_CHARGES
****
Generated from CSD

@<TRIPOS>ATOM
      1 O1         4.7228    8.3613    5.0143 O.3       1 RES1    0.0000
      2 H1         4.6654    9.1090    4.5172 H         1 RES1    0.0000
      3 O2         3.9857    6.5805    2.5586 O.2       1 RES1    0.0000
      4 O3         3.0748    5.1836    1.1924 O.2       1 RES1    0.0000
      5 O4         3.0519    0.6036    1.8545 O.2       1 RES1    0.0000
      6 O5         3.5893   -0.2388    3.7687 O.2       1 RES1    0.0000
      7 N1         5.6549    5.8554    6.0450 N.2       1 RES1    0.0000
      8 N2         5.0629    5.7552    4.8017 N.pl3     1 RES1    0.0000
      9 H2         4.7608    6.4863    4.3843 H         1 RES1    0.0000
     10 N3         3.6761    5.4389    2.2320 N.pl3     1 RES1    0.0000
     11 N4         3.4854    0.7114    3.0015 N.pl3     1 RES1    0.0000
     12 C1         7.2541    5.8387    8.2981 C.ar      1 RES1    0.0000
     13 H3         7.1034    5.0354    7.8563 H         1 RES1    0.0000
     14 C2         7.9271    5.8363    9.5104 C.ar      1 RES1    0.0000
     15 H4         8.2183    5.0313    9.8725 H         1 RES1    0.0000
     16 C3         8.1677    7.0039   10.1803 C.ar      1 RES1    0.0000
     17 H5         8.6200    6.9937   10.9929 H         1 RES1    0.0000
     18 C4         7.7379    8.1869    9.6444 C.ar      1 RES1    0.0000
     19 H6         7.9051    8.9867   10.0906 H         1 RES1    0.0000
     20 C5         7.0473    8.1985    8.4298 C.ar      1 RES1    0.0000
     21 H7         6.7472    9.0071    8.0833 H         1 RES1    0.0000
     22 C6         6.8014    7.0300    7.7346 C.ar      1 RES1    0.0000
     23 C7         6.0902    7.0072    6.4204 C.2       1 RES1    0.0000
     24 C8         4.6710    4.5463    4.3622 C.ar      1 RES1    0.0000
     25 C9         4.9026    3.3850    5.1449 C.ar      1 RES1    0.0000
     26 H8         5.3339    3.4683    5.9642 H         1 RES1    0.0000
     27 C10        4.5078    2.1535    4.7242 C.ar      1 RES1    0.0000
     28 H9         4.6444    1.4102    5.2656 H         1 RES1    0.0000
     29 C11        3.8947    2.0070    3.4742 C.ar      1 RES1    0.0000
     30 C12        3.6529    3.0869    2.6671 C.ar      1 RES1    0.0000
     31 H10        3.2538    2.9772    1.8345 H         1 RES1    0.0000
     32 C13        4.0125    4.3401    3.1133 C.ar      1 RES1    0.0000
     33 C14        6.0191    8.2837    5.5900 C.3       1 RES1    0.0000
     34 H11        6.0491    9.0641    6.2111 H         1 RES1    0.0000
     35 C15        7.1384    8.3055    4.5637 C.ar      1 RES1    0.0000
     36 C16        8.4540    8.3570    4.9999 C.ar      1 RES1    0.0000
     37 H12        8.6350    8.3815    5.9122 H         1 RES1    0.0000
     38 C17        9.4888    8.3713    4.1031 C.ar      1 RES1    0.0000
     39 H13       10.3667    8.4059    4.4087 H         1 RES1    0.0000
     40 C18        9.2294    8.3375    2.7457 C.ar      1 RES1    0.0000
     41 H14        9.9301    8.3366    2.1335 H         1 RES1    0.0000
     42 C19        7.9362    8.3032    2.3128 C.ar      1 RES1    0.0000
     43 H15        7.7585    8.2898    1.3994 H         1 RES1    0.0000
     44 C20        6.8931    8.2894    3.2030 C.ar      1 RES1    0.0000
     45 H16        6.0168    8.2694    2.8908 H         1 RES1    0.0000
@<TRIPOS>BOND
     1    1    2 1
     2    3   10 2
     3    4   10 2
     4    5   11 2
     5    6   11 2
     6    7    8 1
     7    8    9 1
     8   10   32 1
     9   11   29 1
    10   12   13 1
    11   14   12 ar
    12   15   14 1
    13   16   14 ar
    14   17   16 1
    15   18   16 ar
    16   19   18 1
    17   20   18 ar
    18   21   20 1
    19   22   12 ar
    20   23    7 2
    21   24    8 1
    22   25   24 ar
    23   26   25 1
    24   27   25 ar
    25   28   27 1
    26   29   27 ar
    27   30   29 ar
    28   31   30 1
    29   32   24 ar
    30   33    1 1
    31   34   33 1
    32   35   33 1
    33   36   35 ar
    34   37   36 1
    35   38   36 ar
    36   39   38 1
    37   40   38 ar
    38   41   40 1
    39   42   40 ar
    40   43   42 1
    41   44   35 ar
    42   45   44 1
    43   20   22 ar
    44   22   23 1
    45   23   33 1
    46   30   32 ar
    47   42   44 ar
@<TRIPOS>SUBSTRUCTURE
     1 RES1 1

@<TRIPOS>CRYSIN
   8.0850   20.3780   11.1372  90.0000  96.2260  90.0000  14 1

