# MOL2 file generated by ConQuest
# Please check atom types

@<TRIPOS>MOLECULE
ADOKAF
    27    28     1
SMALL
NO_CHARGES
****
Generated from CSD

@<TRIPOS>ATOM
      1 C1         3.0368    3.0688    3.2398 C.2       1 RES1    0.0000
      2 C2         3.9801    3.8802    4.0356 C.2       1 RES1    0.0000
      3 C3         5.0680    4.3884    3.4429 C.2       1 RES1    0.0000
      4 C4         5.4427    4.1693    2.0111 C.3       1 RES1    0.0000
      5 C5         4.7117    2.9905    1.4064 C.3       1 RES1    0.0000
      6 C6         3.2333    3.0187    1.7508 C.3       1 RES1    0.0000
      7 C7         3.7104    4.1205    5.4813 C.ar      1 RES1    0.0000
      8 C8         4.7063    3.9015    6.4242 C.ar      1 RES1    0.0000
      9 C9         4.4744    4.1516    7.7699 C.ar      1 RES1    0.0000
     10 C10        3.2492    4.6093    8.1955 C.ar      1 RES1    0.0000
     11 C11        2.2560    4.8451    7.2681 C.ar      1 RES1    0.0000
     12 C12        2.4799    4.6072    5.9283 C.ar      1 RES1    0.0000
     13 N1         2.1172    2.4430    3.8781 N.2       1 RES1    0.0000
     14 O1         1.2688    1.6961    3.0340 O.3       1 RES1    0.0000
     15 H1         5.6696    4.9706    3.9847 H         1 RES1    0.0000
     16 H2         5.2387    4.9876    1.5011 H         1 RES1    0.0000
     17 H3         6.4263    4.0589    1.9611 H         1 RES1    0.0000
     18 H4         4.8328    2.9678    0.4376 H         1 RES1    0.0000
     19 H5         5.0945    2.1416    1.7530 H         1 RES1    0.0000
     20 H6         2.7950    3.8338    1.3715 H         1 RES1    0.0000
     21 H7         2.7838    2.2287    1.4106 H         1 RES1    0.0000
     22 H8         5.5579    3.5502    6.1268 H         1 RES1    0.0000
     23 H9         5.2008    4.0064    8.3687 H         1 RES1    0.0000
     24 H10        3.0673    4.7955    9.1337 H         1 RES1    0.0000
     25 H11        1.3622    5.1639    7.5757 H         1 RES1    0.0000
     26 H12        1.7835    4.7713    5.2834 H         1 RES1    0.0000
     27 H13        0.7125    1.2979    3.6572 H         1 RES1    0.0000
@<TRIPOS>BOND
     1    1    2 1
     2    2    3 2
     3    3    4 1
     4    4    5 1
     5    5    6 1
     6    6    1 1
     7    7    2 1
     8    8    7 ar
     9    9    8 ar
    10   10    9 ar
    11   11   10 ar
    12   12    7 ar
    13   13    1 2
    14   14   13 1
    15   15    3 1
    16   16    4 1
    17   17    4 1
    18   18    5 1
    19   19    5 1
    20   20    6 1
    21   21    6 1
    22   22    8 1
    23   23    9 1
    24   24   10 1
    25   25   11 1
    26   26   12 1
    27   27   14 1
    28   11   12 ar
@<TRIPOS>SUBSTRUCTURE
     1 RES1 1

@<TRIPOS>CRYSIN
   6.2760    8.9140   10.1510  68.4000  77.0400  76.2100   2 1

