# MOL2 file generated by ConQuest
# Please check atom types

@<TRIPOS>MOLECULE
ADOLEK
    40    41     1
SMALL
NO_CHARGES
****
Generated from CSD

@<TRIPOS>ATOM
      1 O1         5.7376    2.6418   -0.3484 O.2       1 RES1    0.0000
      2 O2         7.1995    2.6243   -1.9151 O.2       1 RES1    0.0000
      3 O3         9.6676   -1.2135   -3.0728 O.2       1 RES1    0.0000
      4 O4        10.0201   -2.7230   -1.5862 O.2       1 RES1    0.0000
      5 N1         5.1694   -0.0409    2.4690 N.2       1 RES1    0.0000
      6 N2         5.6020    0.6396    1.3416 N.3       1 RES1    0.0000
      7 N3         6.6247    2.0768   -0.9867 N.pl3     1 RES1    0.0000
      8 N4         9.4210   -1.7361   -1.9973 N.pl3     1 RES1    0.0000
      9 C1         4.3340    0.5870    3.2156 C.2       1 RES1    0.0000
     10 C2         3.8203    1.9810    2.9581 C.3       1 RES1    0.0000
     11 C3         4.7850    3.1060    3.3671 C.3       1 RES1    0.0000
     12 C4         5.0414    3.2376    4.8731 C.3       1 RES1    0.0000
     13 C5         5.8085    2.0636    5.4964 C.3       1 RES1    0.0000
     14 C6         4.9853    1.0811    6.3208 C.3       1 RES1    0.0000
     15 C7         3.6809    0.5906    5.7084 C.3       1 RES1    0.0000
     16 C8         3.8170   -0.1879    4.3949 C.3       1 RES1    0.0000
     17 C9         6.5035    0.0680    0.5193 C.ar      1 RES1    0.0000
     18 C10        7.0070   -1.2412    0.7855 C.ar      1 RES1    0.0000
     19 C11        7.9463   -1.8195   -0.0195 C.ar      1 RES1    0.0000
     20 C12        8.4102   -1.1316   -1.1469 C.ar      1 RES1    0.0000
     21 C13        7.9542    0.1235   -1.4563 C.ar      1 RES1    0.0000
     22 C14        7.0138    0.7259   -0.6297 C.ar      1 RES1    0.0000
     23 H1         6.5464    2.4269    6.0741 H         1 RES1    0.0000
     24 H2         6.6689   -1.7690    1.5645 H         1 RES1    0.0000
     25 H3         8.2869   -2.6828    0.1883 H         1 RES1    0.0000
     26 H4         8.2154    0.6213   -2.1942 H         1 RES1    0.0000
     27 H5         5.3616    1.4839    1.1750 H         1 RES1    0.0000
     28 H6         5.5775    4.0278    4.9878 H         1 RES1    0.0000
     29 H7         2.9791    2.0760    3.4276 H         1 RES1    0.0000
     30 H8         4.3575    3.9255    3.0663 H         1 RES1    0.0000
     31 H9         6.2807    1.5205    4.7974 H         1 RES1    0.0000
     32 H10        3.0615    1.3889    5.6110 H         1 RES1    0.0000
     33 H11        2.8895   -0.4094    4.1720 H         1 RES1    0.0000
     34 H12        4.1713    3.3626    5.3687 H         1 RES1    0.0000
     35 H13        5.4805    0.2412    6.5935 H         1 RES1    0.0000
     36 H14        4.3724   -0.9722    4.5334 H         1 RES1    0.0000
     37 H15        5.6787    2.9752    2.9148 H         1 RES1    0.0000
     38 H16        4.7825    1.4255    7.2535 H         1 RES1    0.0000
     39 H17        3.1842   -0.0146    6.3641 H         1 RES1    0.0000
     40 H18        3.5823    2.0687    1.9930 H         1 RES1    0.0000
@<TRIPOS>BOND
     1    1    7 2
     2    2    7 2
     3    3    8 2
     4    4    8 2
     5    5    6 1
     6    6   17 1
     7    7   22 1
     8    8   20 1
     9    9    5 2
    10   10    9 1
    11   11   10 1
    12   12   11 1
    13   13   12 1
    14   14   13 1
    15   15   14 1
    16   16    9 1
    17   17   18 ar
    18   18   19 ar
    19   19   20 ar
    20   20   21 ar
    21   21   22 ar
    22   22   17 ar
    23   23   13 1
    24   24   18 1
    25   25   19 1
    26   26   21 1
    27   27    6 1
    28   28   12 1
    29   29   10 1
    30   30   11 1
    31   31   13 1
    32   32   15 1
    33   33   16 1
    34   34   12 1
    35   35   14 1
    36   36   16 1
    37   37   11 1
    38   38   14 1
    39   39   15 1
    40   40   10 1
    41   15   16 1
@<TRIPOS>SUBSTRUCTURE
     1 RES1 1

@<TRIPOS>CRYSIN
   9.2300    7.3100   21.6400  90.0000  90.5000  90.0000 231 1

