# MOL2 file generated by ConQuest
# Please check atom types

@<TRIPOS>MOLECULE
ADOWUO
    21    21     1
SMALL
NO_CHARGES
****
Generated from CSD

@<TRIPOS>ATOM
      1 O1         4.6443   -2.4786    7.2001 O.2       1 RES1    0.0000
      2 O2         4.2733   -3.2144    9.2163 O.2       1 RES1    0.0000
      3 O3         3.9310    3.6868    5.1422 O.2       1 RES1    0.0000
      4 O4         1.8088    4.1759    5.1253 O.2       1 RES1    0.0000
      5 O5         1.0973    4.6529    7.8931 O.2       1 RES1    0.0000
      6 O6         0.4779    2.6190    7.4061 O.2       1 RES1    0.0000
      7 O7         4.1046    5.0455    7.4601 O.2       1 RES1    0.0000
      8 O8         3.7911    3.6262    9.0679 O.2       1 RES1    0.0000
      9 N1         3.6274   -0.1501    6.4991 N.3       1 RES1    0.0000
     10 N2         3.3872    1.0953    6.0197 N.2       1 RES1    0.0000
     11 N3         2.9800    1.0025    8.2441 N.2       1 RES1    0.0000
     12 N4         3.4929   -1.2570    8.6535 N.pl3     1 RES1    0.0000
     13 N5         4.1794   -2.3903    8.3308 N.pl3     1 RES1    0.0000
     14 N6         2.8255    3.7438    5.6291 N.pl3     1 RES1    0.0000
     15 N7         1.2870    3.5170    7.5138 N.pl3     1 RES1    0.0000
     16 N8         3.6327    4.0486    7.9579 N.pl3     1 RES1    0.0000
     17 C1         3.3842   -0.1795    7.8112 C.2       1 RES1    0.0000
     18 C2         3.0154    1.7391    7.1010 C.2       1 RES1    0.0000
     19 C3         2.7078    3.1953    7.0558 C.3       1 RES1    0.0000
     20 H1         3.8682   -0.7810    5.9888 H         1 RES1    0.0000
     21 H2         3.1721   -1.2365    9.4545 H         1 RES1    0.0000
@<TRIPOS>BOND
     1    1   13 2
     2    2   13 2
     3    3   14 2
     4    4   14 2
     5    5   15 2
     6    6   15 2
     7    7   16 2
     8    8   16 2
     9    9   10 1
    10   10   18 2
    11   11   17 2
    12   12   13 1
    13   14   19 1
    14   15   19 1
    15   16   19 1
    16   17    9 1
    17   18   11 1
    18   19   18 1
    19   20    9 1
    20   21   12 1
    21   12   17 1
@<TRIPOS>SUBSTRUCTURE
     1 RES1 1

@<TRIPOS>CRYSIN
   9.1597   10.5684    9.9433  90.0000 101.1100  90.0000 231 1

