# MOL2 file generated by ConQuest
# Please check atom types

@<TRIPOS>MOLECULE
ADUKAL
    88    94     1
SMALL
NO_CHARGES
****
Generated from CSD

@<TRIPOS>ATOM
      1 O1         4.1772    3.5968    3.2632 O.3       1 RES1    0.0000
      2 O2         4.6067    4.4108   -1.3509 O.3       1 RES1    0.0000
      3 O3         3.1672    2.7693    7.7852 O.3       1 RES1    0.0000
      4 O4         2.1213    2.5167   -0.1545 O.3       1 RES1    0.0000
      5 O5         1.1800    3.0389    1.7932 O.2       1 RES1    0.0000
      6 O6         2.0313    6.0491    4.7672 O.2       1 RES1    0.0000
      7 O7         0.2488    2.6377    7.2125 O.2       1 RES1    0.0000
      8 O8         8.0642    0.5117   12.6715 O.2       1 RES1    0.0000
      9 O9        11.4389    5.2339   -3.4319 O.2       1 RES1    0.0000
     10 O10       10.8282    6.2313   -1.6089 O.2       1 RES1    0.0000
     11 N1         1.4435    4.1304    5.9240 N.am      1 RES1    0.0000
     12 N2        10.6586    5.4085   -2.5006 N.pl3     1 RES1    0.0000
     13 C1         6.0304    3.1250    4.7516 C.ar      1 RES1    0.0000
     14 C2         6.3983    2.8385    6.0586 C.ar      1 RES1    0.0000
     15 H1         7.3025    2.7171    6.2429 H         1 RES1    0.0000
     16 C3         5.4973    2.7224    7.1090 C.ar      1 RES1    0.0000
     17 C4         5.9672    2.4221    8.4869 C.ar      1 RES1    0.0000
     18 C5         6.9207    1.4164    8.6825 C.ar      1 RES1    0.0000
     19 H2         7.2590    0.9571    7.9468 H         1 RES1    0.0000
     20 C6         7.3650    1.0934    9.9470 C.ar      1 RES1    0.0000
     21 H3         7.9933    0.4183   10.0576 H         1 RES1    0.0000
     22 C7         6.8784    1.7747   11.0541 C.ar      1 RES1    0.0000
     23 C8         7.2878    1.3931   12.4220 C.2       1 RES1    0.0000
     24 H4         6.9212    1.8652   13.1336 H         1 RES1    0.0000
     25 C9         5.9523    2.8066   10.8613 C.ar      1 RES1    0.0000
     26 H5         5.6263    3.2774   11.5942 H         1 RES1    0.0000
     27 C10        5.5236    3.1269    9.5954 C.ar      1 RES1    0.0000
     28 H6         4.9233    3.8278    9.4806 H         1 RES1    0.0000
     29 C11        4.1355    2.8755    6.8057 C.ar      1 RES1    0.0000
     30 C12        2.9111    1.4286    8.2261 C.3       1 RES1    0.0000
     31 H7         2.2301    1.4390    8.9022 H         1 RES1    0.0000
     32 H8         3.7165    1.0527    8.5890 H         1 RES1    0.0000
     33 H9         2.6167    0.8973    7.4833 H         1 RES1    0.0000
     34 C13        3.6900    3.1362    5.5029 C.ar      1 RES1    0.0000
     35 C14        2.2279    3.1716    5.1486 C.3       1 RES1    0.0000
     36 H10        2.1415    3.3895    4.2073 H         1 RES1    0.0000
     37 H11        1.8547    2.2869    5.2804 H         1 RES1    0.0000
     38 C15        0.5217    3.7723    6.8907 C.2       1 RES1    0.0000
     39 C16       -0.1326    5.0310    7.3373 C.ar      1 RES1    0.0000
     40 C17       -1.1278    5.2296    8.2573 C.ar      1 RES1    0.0000
     41 H12       -1.4750    4.5248    8.7534 H         1 RES1    0.0000
     42 C18       -1.5982    6.5254    8.4189 C.ar      1 RES1    0.0000
     43 H13       -2.2778    6.6933    9.0312 H         1 RES1    0.0000
     44 C19       -1.0681    7.5719    7.6803 C.ar      1 RES1    0.0000
     45 H14       -1.3922    8.4339    7.8136 H         1 RES1    0.0000
     46 C20       -0.0769    7.3638    6.7546 C.ar      1 RES1    0.0000
     47 H15        0.2643    8.0682    6.2514 H         1 RES1    0.0000
     48 C21        0.3992    6.0758    6.5930 C.ar      1 RES1    0.0000
     49 C22        1.4065    5.5121    5.6405 C.2       1 RES1    0.0000
     50 C23        4.6738    3.2894    4.5050 C.ar      1 RES1    0.0000
     51 C24        5.0341    3.6971    2.1887 C.ar      1 RES1    0.0000
     52 C25        4.4185    4.0383    0.9880 C.ar      1 RES1    0.0000
     53 C26        2.9490    4.4055    0.9696 C.3       1 RES1    0.0000
     54 H16        2.7588    4.9470    1.7521 H         1 RES1    0.0000
     55 H17        2.7804    4.9534    0.1885 H         1 RES1    0.0000
     56 C27        2.0028    3.2539    0.9526 C.2       1 RES1    0.0000
     57 C28        1.2360    1.3764   -0.2424 C.3       1 RES1    0.0000
     58 H18        1.3933    0.9116   -1.0674 H         1 RES1    0.0000
     59 H19        0.3245    1.6762   -0.2126 H         1 RES1    0.0000
     60 H20        1.4030    0.7855    0.4961 H         1 RES1    0.0000
     61 C29        5.2070    4.1175   -0.1545 C.ar      1 RES1    0.0000
     62 C30        4.8736    5.7081   -1.8627 C.3       1 RES1    0.0000
     63 H21        4.4139    5.8233   -2.6962 H         1 RES1    0.0000
     64 H22        5.8181    5.8090   -2.0002 H         1 RES1    0.0000
     65 H23        4.5704    6.3676   -1.2347 H         1 RES1    0.0000
     66 C31        6.6061    3.8900   -0.0879 C.ar      1 RES1    0.0000
     67 C32        7.4622    3.8890   -1.3070 C.ar      1 RES1    0.0000
     68 C33        7.1510    3.0913   -2.4028 C.ar      1 RES1    0.0000
     69 H24        6.3690    2.5891   -2.3999 H         1 RES1    0.0000
     70 C34        7.9995    3.0403   -3.5042 C.ar      1 RES1    0.0000
     71 H25        7.7826    2.4936   -4.2243 H         1 RES1    0.0000
     72 C35        9.1555    3.7838   -3.5411 C.ar      1 RES1    0.0000
     73 H26        9.7262    3.7464   -4.2753 H         1 RES1    0.0000
     74 C36        9.4403    4.5844   -2.4623 C.ar      1 RES1    0.0000
     75 C37        8.6417    4.6503   -1.3297 C.ar      1 RES1    0.0000
     76 H27        8.8808    5.1843   -0.6053 H         1 RES1    0.0000
     77 C38        7.1513    3.6132    1.1440 C.ar      1 RES1    0.0000
     78 H28        8.0724    3.4928    1.1964 H         1 RES1    0.0000
     79 C39        6.4136    3.5028    2.3092 C.ar      1 RES1    0.0000
     80 C40        7.0846    3.2602    3.6516 C.3       1 RES1    0.0000
     81 C41        7.9844    4.4625    3.9635 C.3       1 RES1    0.0000
     82 H29        8.4178    4.3259    4.8083 H         1 RES1    0.0000
     83 H30        7.4515    5.2600    4.0003 H         1 RES1    0.0000
     84 H31        8.6480    4.5528    3.2746 H         1 RES1    0.0000
     85 C42        7.9312    1.9795    3.5878 C.3       1 RES1    0.0000
     86 H32        8.3530    1.8328    4.4384 H         1 RES1    0.0000
     87 H33        8.6048    2.0744    2.9102 H         1 RES1    0.0000
     88 H34        7.3675    1.2324    3.3766 H         1 RES1    0.0000
@<TRIPOS>BOND
     1    1   50 1
     2    2   61 1
     3    3   29 1
     4    4   56 1
     5    5   56 2
     6    6   49 2
     7    7   38 2
     8    8   23 2
     9    9   12 2
    10   10   12 2
    11   11   35 1
    12   12   74 1
    13   13   14 ar
    14   14   15 1
    15   16   14 ar
    16   17   16 1
    17   18   17 ar
    18   19   18 1
    19   20   18 ar
    20   21   20 1
    21   22   20 ar
    22   23   22 1
    23   24   23 1
    24   25   22 ar
    25   26   25 1
    26   27   17 ar
    27   28   27 1
    28   29   16 ar
    29   30    3 1
    30   31   30 1
    31   32   30 1
    32   33   30 1
    33   34   29 ar
    34   35   34 1
    35   36   35 1
    36   37   35 1
    37   38   11 1
    38   39   38 1
    39   40   39 ar
    40   41   40 1
    41   42   40 ar
    42   43   42 1
    43   44   42 ar
    44   45   44 1
    45   46   44 ar
    46   47   46 1
    47   48   39 ar
    48   49   11 1
    49   50   13 ar
    50   51    1 1
    51   52   51 ar
    52   53   52 1
    53   54   53 1
    54   55   53 1
    55   56   53 1
    56   57    4 1
    57   58   57 1
    58   59   57 1
    59   60   57 1
    60   61   52 ar
    61   62    2 1
    62   63   62 1
    63   64   62 1
    64   65   62 1
    65   66   61 ar
    66   67   66 1
    67   68   67 ar
    68   69   68 1
    69   70   68 ar
    70   71   70 1
    71   72   70 ar
    72   73   72 1
    73   74   72 ar
    74   75   67 ar
    75   76   75 1
    76   77   66 ar
    77   78   77 1
    78   79   51 ar
    79   80   13 1
    80   81   80 1
    81   82   81 1
    82   83   81 1
    83   84   81 1
    84   85   80 1
    85   86   85 1
    86   87   85 1
    87   88   85 1
    88   25   27 ar
    89   34   50 ar
    90   46   48 ar
    91   48   49 1
    92   74   75 ar
    93   77   79 ar
    94   79   80 1
@<TRIPOS>SUBSTRUCTURE
     1 RES1 1

@<TRIPOS>CRYSIN
   9.5450   13.0990   14.4220  85.4200  79.9900  83.5100   2 1

