# MOL2 file generated by ConQuest
# Please check atom types

@<TRIPOS>MOLECULE
ADUSAV
   126   132     2
SMALL
NO_CHARGES
****
Generated from CSD

@<TRIPOS>ATOM
      1 C1         0.7381    9.9477   12.8766 C.3       1 RES1    0.0000
      2 H1         0.0285   10.3341   12.3392 H         1 RES1    0.0000
      3 H2         0.6572   10.2827   13.7838 H         1 RES1    0.0000
      4 N1         2.0440   10.2969   12.3207 N.3       1 RES1    0.0000
      5 O1         4.4961   12.8062   17.4910 O.3       1 RES1    0.0000
      6 C2         0.6490    8.4866   12.8630 C.3       1 RES1    0.0000
      7 H3         0.0475    7.9813   13.3600 H         1 RES1    0.0000
      8 H4        -0.1130    8.3752   12.2296 H         1 RES1    0.0000
      9 N2         5.5355   10.5339   13.3906 N.pl3     1 RES1    0.0000
     10 O2         1.9895    8.6767    9.2672 O.2       1 RES1    0.0000
     11 C3         1.6574    7.9460   11.9467 C.3       1 RES1    0.0000
     12 H5         1.2354    7.5776   11.1552 H         1 RES1    0.0000
     13 H6         2.1720    7.2468   12.3806 H         1 RES1    0.0000
     14 O3         3.1485   10.5244    9.7386 O.3       1 RES1    0.0000
     15 C4         2.5663    9.1333   11.5716 C.3       1 RES1    0.0000
     16 O4         5.9286   11.6575   13.6289 O.2       1 RES1    0.0000
     17 C5         4.0566    9.0048   12.0145 C.3       1 RES1    0.0000
     18 H7         4.0714    8.4333   12.8094 H         1 RES1    0.0000
     19 O5         6.0185    9.5295   13.8715 O.2       1 RES1    0.0000
     20 C6         4.3455   10.4188   12.4781 C.3       1 RES1    0.0000
     21 H8         4.4853   10.9909   11.6960 H         1 RES1    0.0000
     22 C7         3.0700   10.8681   13.2079 C.3       1 RES1    0.0000
     23 H9         3.0112   11.8448   13.1699 H         1 RES1    0.0000
     24 C8         3.0443   10.4364   14.6504 C.2       1 RES1    0.0000
     25 H10        2.9187    9.5343   14.8363 H         1 RES1    0.0000
     26 C9         3.1902   11.2660   15.6599 C.2       1 RES1    0.0000
     27 H11        3.2956   12.1660   15.4526 H         1 RES1    0.0000
     28 C10        3.2024   10.9044   17.0868 C.ar      1 RES1    0.0000
     29 C11        2.5302    9.7836   17.5558 C.ar      1 RES1    0.0000
     30 H12        2.0407    9.2635   16.9606 H         1 RES1    0.0000
     31 C12        2.5741    9.4261   18.8891 C.ar      1 RES1    0.0000
     32 H13        2.1104    8.6784   19.1897 H         1 RES1    0.0000
     33 C13        3.3035   10.1804   19.7600 C.ar      1 RES1    0.0000
     34 H14        3.3630    9.9201   20.6514 H         1 RES1    0.0000
     35 C14        3.9514   11.3174   19.3456 C.ar      1 RES1    0.0000
     36 H15        4.4289   11.8356   19.9522 H         1 RES1    0.0000
     37 C15        3.8840   11.6839   18.0060 C.ar      1 RES1    0.0000
     38 C16        5.1665   13.6907   18.3724 C.3       1 RES1    0.0000
     39 H16        4.5550   13.9928   19.0484 H         1 RES1    0.0000
     40 H17        5.4956   14.4453   17.8790 H         1 RES1    0.0000
     41 H18        5.9018   13.2329   18.7853 H         1 RES1    0.0000
     42 C17        5.0023    8.3861   11.0049 C.ar      1 RES1    0.0000
     43 C18        4.8891    7.0488   10.6838 C.ar      1 RES1    0.0000
     44 H19        4.2332    6.5342   11.0968 H         1 RES1    0.0000
     45 C19        5.7326    6.4581    9.7610 C.ar      1 RES1    0.0000
     46 H20        5.6167    5.5601    9.5473 H         1 RES1    0.0000
     47 C20        6.7396    7.1696    9.1512 C.ar      1 RES1    0.0000
     48 C21        6.8582    8.4907    9.4733 C.ar      1 RES1    0.0000
     49 H21        7.5273    8.9952    9.0699 H         1 RES1    0.0000
     50 C22        6.0112    9.1004   10.3798 C.ar      1 RES1    0.0000
     51 H22        6.1207   10.0034   10.5730 H         1 RES1    0.0000
     52 C23        7.6791    6.4977    8.1724 C.3       1 RES1    0.0000
     53 H23        7.9520    7.1314    7.5058 H         1 RES1    0.0000
     54 H24        7.2305    5.7624    7.7519 H         1 RES1    0.0000
     55 H25        8.4522    6.1744    8.6411 H         1 RES1    0.0000
     56 C24        2.5075    9.4016   10.0728 C.2       1 RES1    0.0000
     57 C25        3.3310   10.7554    8.3151 C.3       1 RES1    0.0000
     58 H26        3.7983   10.0070    7.9127 H         1 RES1    0.0000
     59 H27        2.4693   10.8482    7.8786 H         1 RES1    0.0000
     60 C26        4.1053   11.9723    8.1478 C.3       1 RES1    0.0000
     61 H28        3.6427   12.7050    8.5607 H         1 RES1    0.0000
     62 H29        4.2205   12.1519    7.2111 H         1 RES1    0.0000
     63 H30        4.9652   11.8634    8.5607 H         1 RES1    0.0000
     64 N3         1.5451    3.9126    0.1498 N.3       2 RES2    0.0000
     65 N4         5.0558    3.8394    1.1623 N.pl3     2 RES2    0.0000
     66 O6         2.1893    6.9895    5.1600 O.3       2 RES2    0.0000
     67 O7         5.6702    4.8696    1.3489 O.2       2 RES2    0.0000
     68 O8         5.3346    2.7953    1.7177 O.2       2 RES2    0.0000
     69 O9         1.3530    2.6146   -3.0291 O.2       2 RES2    0.0000
     70 O10        2.6145    4.3270   -2.3879 O.3       2 RES2    0.0000
     71 C27        0.2771    3.5523    0.7854 C.3       2 RES2    0.0000
     72 H31        0.3067    3.7488    1.7346 H         2 RES2    0.0000
     73 H32       -0.4541    4.0501    0.3874 H         2 RES2    0.0000
     74 C28        0.0976    2.1465    0.5725 C.3       2 RES2    0.0000
     75 H33        0.2370    1.6741    1.4081 H         2 RES2    0.0000
     76 H34       -0.8135    1.9791    0.2850 H         2 RES2    0.0000
     77 C29        1.0022    1.6437   -0.4093 C.3       2 RES2    0.0000
     78 H35        0.5247    1.3896   -1.2132 H         2 RES2    0.0000
     79 H36        1.4757    0.8687   -0.0706 H         2 RES2    0.0000
     80 C30        1.9844    2.7928   -0.7033 C.3       2 RES2    0.0000
     81 C31        3.4640    2.5313   -0.2802 C.3       2 RES2    0.0000
     82 H37        3.4403    1.9251    0.4897 H         2 RES2    0.0000
     83 C32        3.8767    3.8931    0.2385 C.3       2 RES2    0.0000
     84 H38        4.0937    4.4719   -0.5213 H         2 RES2    0.0000
     85 C33        2.6369    4.4617    0.9655 C.3       2 RES2    0.0000
     86 H39        2.6384    5.4368    0.8624 H         2 RES2    0.0000
     87 C34        2.6440    4.1445    2.4308 C.2       2 RES2    0.0000
     88 H40        2.5345    3.2585    2.6944 H         2 RES2    0.0000
     89 C35        2.7981    5.0636    3.3629 C.2       2 RES2    0.0000
     90 H41        2.7750    5.9488    3.0793 H         2 RES2    0.0000
     91 C36        3.0014    4.8393    4.8022 C.ar      2 RES2    0.0000
     92 C37        2.7096    5.8455    5.7109 C.ar      2 RES2    0.0000
     93 C38        2.9120    5.6650    7.0627 C.ar      2 RES2    0.0000
     94 H42        2.6999    6.3429    7.6642 H         2 RES2    0.0000
     95 C39        3.4263    4.4820    7.5146 C.ar      2 RES2    0.0000
     96 H43        3.5440    4.3537    8.4291 H         2 RES2    0.0000
     97 C40        3.7741    3.4772    6.6393 C.ar      2 RES2    0.0000
     98 H44        4.1432    2.6837    6.9528 H         2 RES2    0.0000
     99 C41        3.5638    3.6671    5.2906 C.ar      2 RES2    0.0000
    100 H45        3.8049    2.9952    4.6945 H         2 RES2    0.0000
    101 C42        2.1251    8.1571    5.9379 C.3       2 RES2    0.0000
    102 H46        1.5570    8.0060    6.6970 H         2 RES2    0.0000
    103 H47        1.7688    8.8754    5.4083 H         2 RES2    0.0000
    104 H48        3.0063    8.3889    6.2390 H         2 RES2    0.0000
    105 C43        4.3656    1.8977   -1.3133 C.ar      2 RES2    0.0000
    106 C44        4.1385    0.6092   -1.7416 C.ar      2 RES2    0.0000
    107 H49        3.4156    0.1345   -1.3984 H         2 RES2    0.0000
    108 C45        4.9638    0.0054   -2.6720 C.ar      2 RES2    0.0000
    109 H50        4.7762   -0.8628   -2.9478 H         2 RES2    0.0000
    110 C46        6.0540    0.6530   -3.2014 C.ar      2 RES2    0.0000
    111 C47        6.2830    1.9375   -2.7845 C.ar      2 RES2    0.0000
    112 H51        7.0085    2.4075   -3.1305 H         2 RES2    0.0000
    113 C48        5.4575    2.5528   -1.8573 C.ar      2 RES2    0.0000
    114 H52        5.6413    3.4252   -1.5933 H         2 RES2    0.0000
    115 C49        6.9817   -0.0229   -4.1939 C.3       2 RES2    0.0000
    116 H53        6.9767    0.4649   -5.0209 H         2 RES2    0.0000
    117 H54        6.6823   -0.9209   -4.3510 H         2 RES2    0.0000
    118 H55        7.8726   -0.0403   -3.8370 H         2 RES2    0.0000
    119 C50        1.9232    3.2155   -2.1653 C.2       2 RES2    0.0000
    120 C51        2.6320    4.8953   -3.7244 C.3       2 RES2    0.0000
    121 H56        2.0134    4.4056   -4.2877 H         2 RES2    0.0000
    122 H57        2.3310    5.8164   -3.6811 H         2 RES2    0.0000
    123 C52        3.8964    4.8573   -4.2967 C.3       2 RES2    0.0000
    124 H58        4.5489    5.1338   -3.6494 H         2 RES2    0.0000
    125 H59        3.9233    5.4490   -5.0526 H         2 RES2    0.0000
    126 H60        4.0894    3.9619   -4.5849 H         2 RES2    0.0000
@<TRIPOS>BOND
     1    1    2 1
     2    3    1 1
     3    4    1 1
     4    5   37 1
     5    6    1 1
     6    7    6 1
     7    8    6 1
     8    9   16 2
     9   10   56 2
    10   11    6 1
    11   12   11 1
    12   13   11 1
    13   14   56 1
    14   15    4 1
    15   17   15 1
    16   18   17 1
    17   19    9 2
    18   20    9 1
    19   21   20 1
    20   22    4 1
    21   23   22 1
    22   24   22 1
    23   25   24 1
    24   26   24 2
    25   27   26 1
    26   28   26 1
    27   29   28 ar
    28   30   29 1
    29   31   29 ar
    30   32   31 1
    31   33   31 ar
    32   34   33 1
    33   35   33 ar
    34   36   35 1
    35   37   28 ar
    36   38    5 1
    37   39   38 1
    38   40   38 1
    39   41   38 1
    40   42   17 1
    41   43   42 ar
    42   44   43 1
    43   45   43 ar
    44   46   45 1
    45   47   45 ar
    46   48   47 ar
    47   49   48 1
    48   50   42 ar
    49   51   50 1
    50   52   47 1
    51   53   52 1
    52   54   52 1
    53   55   52 1
    54   56   15 1
    55   57   14 1
    56   58   57 1
    57   59   57 1
    58   60   57 1
    59   61   60 1
    60   62   60 1
    61   63   60 1
    62   64   71 1
    63   65   67 2
    64   66   92 1
    65   68   65 2
    66   69  119 2
    67   70  119 1
    68   71   72 1
    69   73   71 1
    70   74   71 1
    71   75   74 1
    72   76   74 1
    73   77   74 1
    74   78   77 1
    75   79   77 1
    76   80   64 1
    77   81   80 1
    78   82   81 1
    79   83   65 1
    80   84   83 1
    81   85   64 1
    82   86   85 1
    83   87   85 1
    84   88   87 1
    85   89   87 2
    86   90   89 1
    87   91   89 1
    88   92   91 ar
    89   93   92 ar
    90   94   93 1
    91   95   93 ar
    92   96   95 1
    93   97   95 ar
    94   98   97 1
    95   99   91 ar
    96  100   99 1
    97  101   66 1
    98  102  101 1
    99  103  101 1
   100  104  101 1
   101  105   81 1
   102  106  105 ar
   103  107  106 1
   104  108  106 ar
   105  109  108 1
   106  110  108 ar
   107  111  110 ar
   108  112  111 1
   109  113  105 ar
   110  114  113 1
   111  115  110 1
   112  116  115 1
   113  117  115 1
   114  118  115 1
   115  119   80 1
   116  120   70 1
   117  121  120 1
   118  122  120 1
   119  123  120 1
   120  124  123 1
   121  125  123 1
   122  126  123 1
   123   11   15 1
   124   17   20 1
   125   20   22 1
   126   35   37 ar
   127   48   50 ar
   128   77   80 1
   129   81   83 1
   130   83   85 1
   131   97   99 ar
   132  111  113 ar
@<TRIPOS>SUBSTRUCTURE
     1 RES1 1
     2 RES2 64

@<TRIPOS>CRYSIN
   8.5277   11.7075   24.3880  87.4500  88.8870  81.9180   2 1

