# MOL2 file generated by ConQuest
# Please check atom types

@<TRIPOS>MOLECULE
ADUWEB
    92    94     2
SMALL
NO_CHARGES
****
Generated from CSD

@<TRIPOS>ATOM
      1 O1         9.3730    0.3309   12.2425 O.2       1 RES1    0.0000
      2 O2        11.2300    0.9840   14.0303 O.3       1 RES1    0.0000
      3 O3         5.9644    1.1500   15.4168 O.3       1 RES1    0.0000
      4 O4         7.9624    0.5024   10.0060 O.3       1 RES1    0.0000
      5 N1         9.8732    1.0181   14.3624 N.am      1 RES1    0.0000
      6 C1         8.9526    0.6795   13.3897 C.2       1 RES1    0.0000
      7 C2         9.5577    1.3512   15.6407 C.2       1 RES1    0.0000
      8 H1        10.2453    1.5733   16.2585 H         1 RES1    0.0000
      9 C3         8.2789    1.3677   16.0301 C.2       1 RES1    0.0000
     10 H2         8.0561    1.5656   16.9331 H         1 RES1    0.0000
     11 C4         7.2599    1.0874   15.0872 C.2       1 RES1    0.0000
     12 C5         7.5875    0.7586   13.7813 C.2       1 RES1    0.0000
     13 C6         6.5138    0.5486   12.7186 C.3       1 RES1    0.0000
     14 H3         5.6535    0.7278   13.1969 H         1 RES1    0.0000
     15 C7         6.6251    1.7118   11.6665 C.3       1 RES1    0.0000
     16 H4         7.4548    2.2110   11.9152 H         1 RES1    0.0000
     17 C8         6.7959    1.3644   10.1904 C.3       1 RES1    0.0000
     18 C9         5.6099    0.6476    9.5379 C.3       1 RES1    0.0000
     19 C10        5.4568   -0.8235    9.8559 C.3       1 RES1    0.0000
     20 H5         6.3059   -1.2809    9.5893 H         1 RES1    0.0000
     21 C11        5.2090   -1.1368   11.3286 C.3       1 RES1    0.0000
     22 H6         4.9185   -2.0802   11.4012 H         1 RES1    0.0000
     23 H7         4.4610   -0.5717   11.6453 H         1 RES1    0.0000
     24 C12        6.4033   -0.9279   12.2698 C.3       1 RES1    0.0000
     25 H8         7.2469   -1.2028   11.8092 H         1 RES1    0.0000
     26 C13        5.4865    2.6882   11.9078 C.3       1 RES1    0.0000
     27 H9         5.5431    3.4215   11.2598 H         1 RES1    0.0000
     28 H10        5.5523    3.0488   12.8179 H         1 RES1    0.0000
     29 H11        4.6299    2.2242   11.8027 H         1 RES1    0.0000
     30 C14        7.1003    2.6376    9.4052 C.3       1 RES1    0.0000
     31 H12        7.2126    2.4166    8.4553 H         1 RES1    0.0000
     32 H13        7.9244    3.0422    9.7467 H         1 RES1    0.0000
     33 H14        6.3588    3.2698    9.5090 H         1 RES1    0.0000
     34 C15        4.3320   -1.3985    8.9928 C.3       1 RES1    0.0000
     35 H15        4.5018   -1.1863    8.0505 H         1 RES1    0.0000
     36 H16        3.4773   -1.0060    9.2681 H         1 RES1    0.0000
     37 H17        4.2967   -2.3715    9.1074 H         1 RES1    0.0000
     38 C16        6.1936   -1.7932   13.5176 C.3       1 RES1    0.0000
     39 H18        6.1203   -2.7332   13.2548 H         1 RES1    0.0000
     40 H19        5.3714   -1.5150   13.9744 H         1 RES1    0.0000
     41 H20        6.9555   -1.6822   14.1222 H         1 RES1    0.0000
     42 H21        5.7537    0.7476    8.5131 H         1 RES1    0.0000
     43 H22        4.8164    1.1984    9.7371 H         1 RES1    0.0000
     44 H23       11.2754    1.5172   12.8500 H         1 RES1    0.0000
     45 H24        8.3893    0.4288   10.6270 H         1 RES1    0.0000
     46 H25        5.8465    1.1764   16.4159 H         1 RES1    0.0000
     47 O5        11.1251    2.9509   12.3164 O.2       2 RES2    0.0000
     48 O6        11.4694    0.8026   10.8207 O.3       2 RES2    0.0000
     49 O7        10.0161    5.5313    8.5363 O.3       2 RES2    0.0000
     50 O8        10.0978    4.5099   14.1944 O.3       2 RES2    0.0000
     51 N2        11.0648    2.0087   10.2556 N.am      2 RES2    0.0000
     52 C17       10.9358    3.1037   11.0639 C.2       2 RES2    0.0000
     53 C18       10.8708    2.0219    8.9221 C.2       2 RES2    0.0000
     54 H26       10.9748    1.2281    8.4103 H         2 RES2    0.0000
     55 C19       10.5237    3.1884    8.3220 C.2       2 RES2    0.0000
     56 H27       10.3669    3.2170    7.3855 H         2 RES2    0.0000
     57 C20       10.3985    4.3582    9.1007 C.2       2 RES2    0.0000
     58 C21       10.5841    4.3285   10.4605 C.2       2 RES2    0.0000
     59 C22       10.3966    5.5588   11.3376 C.3       2 RES2    0.0000
     60 H28       10.1962    6.3020   10.6976 H         2 RES2    0.0000
     61 C23        9.0816    5.3741   12.1641 C.3       2 RES2    0.0000
     62 H29        8.7976    4.4308   11.9923 H         2 RES2    0.0000
     63 C24        9.1521    5.4962   13.7036 C.3       2 RES2    0.0000
     64 C25        9.5447    6.8672   14.2442 C.3       2 RES2    0.0000
     65 C26       11.0035    7.2773   14.1642 C.3       2 RES2    0.0000
     66 H30       11.5446    6.6121   14.6779 H         2 RES2    0.0000
     67 C27       11.5418    7.3333   12.7472 C.3       2 RES2    0.0000
     68 C28       11.7163    5.9733   12.0273 C.3       2 RES2    0.0000
     69 H31       11.9761    5.2752   12.6926 H         2 RES2    0.0000
     70 C29        7.9838    6.2405   11.5435 C.3       2 RES2    0.0000
     71 H32        7.1550    6.1327   12.0565 H         2 RES2    0.0000
     72 H33        7.8334    5.9623   10.6173 H         2 RES2    0.0000
     73 H34        8.2603    7.1805   11.5618 H         2 RES2    0.0000
     74 C30        7.8139    5.1003   14.3306 C.3       2 RES2    0.0000
     75 H35        7.8733    5.1817   15.3044 H         2 RES2    0.0000
     76 H36        7.6023    4.1746   14.0900 H         2 RES2    0.0000
     77 H37        7.1086    5.6941   13.9969 H         2 RES2    0.0000
     78 C31       11.1715    8.6571   14.8308 C.3       2 RES2    0.0000
     79 H38       10.8151    8.6241   15.7445 H         2 RES2    0.0000
     80 H39       10.6824    9.3310   14.3149 H         2 RES2    0.0000
     81 H40       12.1218    8.8935   14.8578 H         2 RES2    0.0000
     82 C32       12.8197    6.0954   10.9540 C.3       2 RES2    0.0000
     83 H41       12.9208    5.2389   10.4888 H         2 RES2    0.0000
     84 H42       13.6670    6.3372   11.3819 H         2 RES2    0.0000
     85 H43       12.5719    6.7891   10.3089 H         2 RES2    0.0000
     86 H44        9.3452    6.8826   15.1052 H         2 RES2    0.0000
     87 H45        8.9740    7.5752   13.6949 H         2 RES2    0.0000
     88 H46       10.7836    0.6047   11.2534 H         2 RES2    0.0000
     89 H47       10.2361    5.5852    7.7004 H         2 RES2    0.0000
     90 H48       12.3798    7.7291   12.8179 H         2 RES2    0.0000
     91 H49       10.9785    8.0040   12.0662 H         2 RES2    0.0000
     92 H50       10.5609    3.8921   13.4058 H         2 RES2    0.0000
@<TRIPOS>BOND
     1    1    6 2
     2    2    5 1
     3    3   11 1
     4    4   17 1
     5    5    6 1
     6    6   12 1
     7    7    5 1
     8    8    7 1
     9    9    7 2
    10   10    9 1
    11   11    9 1
    12   12   11 2
    13   13   12 1
    14   14   13 1
    15   15   13 1
    16   16   15 1
    17   17   15 1
    18   18   17 1
    19   19   18 1
    20   20   19 1
    21   21   19 1
    22   22   21 1
    23   23   21 1
    24   24   13 1
    25   25   24 1
    26   26   15 1
    27   27   26 1
    28   28   26 1
    29   29   26 1
    30   30   17 1
    31   31   30 1
    32   32   30 1
    33   33   30 1
    34   34   19 1
    35   35   34 1
    36   36   34 1
    37   37   34 1
    38   38   24 1
    39   39   38 1
    40   40   38 1
    41   41   38 1
    42   42   18 1
    43   43   18 1
    44   44    2 1
    45   45    4 1
    46   46    3 1
    47   47   52 2
    48   48   51 1
    49   49   57 1
    50   50   63 1
    51   51   52 1
    52   52   58 1
    53   53   51 1
    54   54   53 1
    55   55   53 2
    56   56   55 1
    57   57   55 1
    58   58   57 2
    59   59   58 1
    60   60   59 1
    61   61   59 1
    62   62   61 1
    63   63   61 1
    64   64   63 1
    65   65   64 1
    66   66   65 1
    67   67   65 1
    68   68   59 1
    69   69   68 1
    70   70   61 1
    71   71   70 1
    72   72   70 1
    73   73   70 1
    74   74   63 1
    75   75   74 1
    76   76   74 1
    77   77   74 1
    78   78   65 1
    79   79   78 1
    80   80   78 1
    81   81   78 1
    82   82   68 1
    83   83   82 1
    84   84   82 1
    85   85   82 1
    86   86   64 1
    87   87   64 1
    88   88   48 1
    89   89   49 1
    90   90   67 1
    91   91   67 1
    92   92   50 1
    93   21   24 1
    94   67   68 1
@<TRIPOS>SUBSTRUCTURE
     1 RES1 1
     2 RES2 47

@<TRIPOS>CRYSIN
   9.2802   10.9945   32.1250  90.0000  90.0000  90.0000  19 1

