# MOL2 file generated by ConQuest
# Please check atom types

@<TRIPOS>MOLECULE
AFAZUD
    24    26     1
SMALL
NO_CHARGES
****
Generated from CSD

@<TRIPOS>ATOM
      1 O1         3.8597    2.4190    0.6786 O.2       1 RES1    0.0000
      2 O2         2.4056    4.0661    1.3657 O.2       1 RES1    0.0000
      3 N1         3.5645    3.6648    0.8306 N.pl3     1 RES1    0.0000
      4 C1         4.4156    4.7479    0.3794 C.3       1 RES1    0.0000
      5 C2         5.7434    4.3012   -0.0946 C.3       1 RES1    0.0000
      6 H1         5.6836    3.5946   -0.7564 H         1 RES1    0.0000
      7 H2         6.3259    4.0272    0.6308 H         1 RES1    0.0000
      8 C3         3.8232    5.6965   -0.6978 C.3       1 RES1    0.0000
      9 H3         2.8976    5.5674   -0.9946 H         1 RES1    0.0000
     10 C4         4.9867    5.6625   -1.7630 C.3       1 RES1    0.0000
     11 H4         4.9641    4.8675   -2.3172 H         1 RES1    0.0000
     12 H5         5.0094    6.4575   -2.3172 H         1 RES1    0.0000
     13 C5         4.9867    5.6625    1.4447 C.3       1 RES1    0.0000
     14 H6         5.6643    5.2389    1.9952 H         1 RES1    0.0000
     15 H7         4.3092    6.0861    1.9952 H         1 RES1    0.0000
     16 O1M        6.1138    8.9060    0.6786 O.2       1 RES1    0.0000
     17 O2M        7.5679    7.2589    1.3657 O.2       1 RES1    0.0000
     18 N1M        6.4090    7.6602    0.8306 N.pl3     1 RES1    0.0000
     19 C1M        5.5579    6.5771    0.3794 C.3       1 RES1    0.0000
     20 C2M        4.2301    7.0238   -0.0946 C.3       1 RES1    0.0000
     21 H1M        4.2899    7.7304   -0.7564 H         1 RES1    0.0000
     22 H2M        3.6476    7.2978    0.6308 H         1 RES1    0.0000
     23 C3M        6.1503    5.6285   -0.6978 C.3       1 RES1    0.0000
     24 H3M        7.0759    5.7576   -0.9946 H         1 RES1    0.0000
@<TRIPOS>BOND
     1    1    3 2
     2    2    3 2
     3    3    4 1
     4    4    5 1
     5    5    6 1
     6    7    5 1
     7    8    4 1
     8    9    8 1
     9   10    8 1
    10   11   10 1
    11   12   10 1
    12   13    4 1
    13   14   13 1
    14   15   13 1
    15   16   18 2
    16   17   18 2
    17   18   19 1
    18   19   13 1
    19   20    8 1
    20   21   20 1
    21   22   20 1
    22   23    5 1
    23   24   23 1
    24   10   23 1
    25   19   20 1
    26   19   23 1
@<TRIPOS>SUBSTRUCTURE
     1 RES1 1

@<TRIPOS>CRYSIN
   6.6490   22.6500   11.9690  90.0000  90.0000  90.0000  43 1

