# MOL2 file generated by ConQuest
# Please check atom types

@<TRIPOS>MOLECULE
AFENIJ
    68    73     1
SMALL
NO_CHARGES
****
Generated from CSD

@<TRIPOS>ATOM
      1 O1         3.6047   -1.2329    8.6110 O.3       1 RES1    0.0000
      2 O2         6.1423    2.7291    7.9918 O.3       1 RES1    0.0000
      3 O3         0.5957   -8.3583   11.5791 O.3       1 RES1    0.0000
      4 O4        10.9325   -1.4882    7.0006 O.3       1 RES1    0.0000
      5 N1         2.9669    0.1683    7.0251 N.3       1 RES1    0.0000
      6 N2         6.0945    3.8757    7.1560 N.2       1 RES1    0.0000
      7 N3         4.5432    2.3789    6.5023 N.2       1 RES1    0.0000
      8 C1         3.8922   -0.0879    7.9566 C.2       1 RES1    0.0000
      9 C2         4.9838    0.6762    8.2491 C.2       1 RES1    0.0000
     10 C3         6.0034    0.2295    9.2691 C.3       1 RES1    0.0000
     11 H1         6.1965    0.9859    9.8619 H         1 RES1    0.0000
     12 C4         5.4429   -0.8927   10.1039 C.2       1 RES1    0.0000
     13 C5         4.3497   -1.5698    9.7476 C.2       1 RES1    0.0000
     14 C6         3.8105   -2.7370   10.4378 C.2       1 RES1    0.0000
     15 C7         2.7784   -3.4266    9.9426 C.2       1 RES1    0.0000
     16 H2         2.3801   -3.0733    9.1799 H         1 RES1    0.0000
     17 C8         2.1949   -4.6735   10.4543 C.ar      1 RES1    0.0000
     18 C9         2.0382   -4.9820   11.8012 C.ar      1 RES1    0.0000
     19 H3         2.2924   -4.3553   12.4393 H         1 RES1    0.0000
     20 C10        1.5127   -6.1969   12.2225 C.ar      1 RES1    0.0000
     21 H4         1.4272   -6.3805   13.1305 H         1 RES1    0.0000
     22 C11        1.1186   -7.1292   11.2838 C.ar      1 RES1    0.0000
     23 C12        1.2149   -6.8271    9.9348 C.ar      1 RES1    0.0000
     24 H5         0.9225   -7.4404    9.2995 H         1 RES1    0.0000
     25 C13        1.7418   -5.6238    9.5354 C.ar      1 RES1    0.0000
     26 H6         1.7984   -5.4361    8.6267 H         1 RES1    0.0000
     27 C14        0.5149   -8.7456   12.9398 C.3       1 RES1    0.0000
     28 H7         0.1336   -9.6247   13.0005 H         1 RES1    0.0000
     29 H8        -0.0388   -8.1226   13.4180 H         1 RES1    0.0000
     30 H9         1.3948   -8.7517   13.3237 H         1 RES1    0.0000
     31 C15        5.1344    3.5993    6.3181 C.2       1 RES1    0.0000
     32 C16        5.1806    1.8948    7.5449 C.2       1 RES1    0.0000
     33 C17        4.7365    4.5209    5.2505 C.ar      1 RES1    0.0000
     34 C18        3.8787    4.1069    4.2562 C.ar      1 RES1    0.0000
     35 H10        3.5571    3.2337    4.2518 H         1 RES1    0.0000
     36 C19        3.4946    4.9961    3.2600 C.ar      1 RES1    0.0000
     37 H11        2.9204    4.7139    2.5854 H         1 RES1    0.0000
     38 C20        3.9558    6.2785    3.2666 C.ar      1 RES1    0.0000
     39 H12        3.6865    6.8732    2.6049 H         1 RES1    0.0000
     40 C21        4.8096    6.6872    4.2405 C.ar      1 RES1    0.0000
     41 H13        5.1286    7.5609    4.2357 H         1 RES1    0.0000
     42 C22        5.2092    5.8217    5.2350 C.ar      1 RES1    0.0000
     43 H14        5.7966    6.1108    5.8953 H         1 RES1    0.0000
     44 C23        7.3128   -0.2166    8.6178 C.ar      1 RES1    0.0000
     45 C24        8.5325    0.3438    8.9804 C.ar      1 RES1    0.0000
     46 H15        8.5536    1.0206    9.6181 H         1 RES1    0.0000
     47 C25        9.7129   -0.0883    8.4090 C.ar      1 RES1    0.0000
     48 H16       10.5175    0.3081    8.6543 H         1 RES1    0.0000
     49 C26        9.7032   -1.1063    7.4756 C.ar      1 RES1    0.0000
     50 C27        8.5031   -1.6788    7.0938 C.ar      1 RES1    0.0000
     51 H17        8.4863   -2.3587    6.4588 H         1 RES1    0.0000
     52 C28        7.3239   -1.2260    7.6705 C.ar      1 RES1    0.0000
     53 H18        6.5178   -1.6126    7.4123 H         1 RES1    0.0000
     54 C29       11.0158   -2.6190    6.1725 C.3       1 RES1    0.0000
     55 H19       11.9304   -2.7614    5.9160 H         1 RES1    0.0000
     56 H20       10.4821   -2.4800    5.3870 H         1 RES1    0.0000
     57 H21       10.6926   -3.3881    6.6475 H         1 RES1    0.0000
     58 C30        4.5510   -3.1099   11.7039 C.3       1 RES1    0.0000
     59 H22        4.1356   -2.6614   12.4565 H         1 RES1    0.0000
     60 H23        4.4701   -4.0659   11.8470 H         1 RES1    0.0000
     61 C31        6.0012   -2.7458   11.6603 C.3       1 RES1    0.0000
     62 H24        6.4464   -3.2883   10.9913 H         1 RES1    0.0000
     63 H25        6.4051   -2.9416   12.5198 H         1 RES1    0.0000
     64 C32        6.2096   -1.2863   11.3352 C.3       1 RES1    0.0000
     65 H26        5.9178   -0.7444   12.0850 H         1 RES1    0.0000
     66 H27        7.1548   -1.1185   11.1937 H         1 RES1    0.0000
     67 H28        2.2753   -0.3582    6.9545 H         1 RES1    0.0000
     68 H29        3.0768    0.8943    6.5497 H         1 RES1    0.0000
@<TRIPOS>BOND
     1    1    8 1
     2    2    6 1
     3    3   22 1
     4    4   49 1
     5    5    8 1
     6    6   31 2
     7    7   31 1
     8    8    9 2
     9    9   10 1
    10   10   11 1
    11   12   10 1
    12   13    1 1
    13   14   13 1
    14   15   14 2
    15   16   15 1
    16   17   15 1
    17   18   17 ar
    18   19   18 1
    19   20   18 ar
    20   21   20 1
    21   22   20 ar
    22   23   22 ar
    23   24   23 1
    24   25   17 ar
    25   26   25 1
    26   27    3 1
    27   28   27 1
    28   29   27 1
    29   30   27 1
    30   31   33 1
    31   32    2 1
    32   33   34 ar
    33   34   35 1
    34   36   34 ar
    35   37   36 1
    36   38   36 ar
    37   39   38 1
    38   40   38 ar
    39   41   40 1
    40   42   33 ar
    41   43   42 1
    42   44   10 1
    43   45   44 ar
    44   46   45 1
    45   47   45 ar
    46   48   47 1
    47   49   47 ar
    48   50   49 ar
    49   51   50 1
    50   52   44 ar
    51   53   52 1
    52   54    4 1
    53   55   54 1
    54   56   54 1
    55   57   54 1
    56   58   14 1
    57   59   58 1
    58   60   58 1
    59   61   58 1
    60   62   61 1
    61   63   61 1
    62   64   12 1
    63   65   64 1
    64   66   64 1
    65   67    5 1
    66   68    5 1
    67    7   32 2
    68    9   32 1
    69   12   13 2
    70   23   25 ar
    71   40   42 ar
    72   50   52 ar
    73   61   64 1
@<TRIPOS>SUBSTRUCTURE
     1 RES1 1

@<TRIPOS>CRYSIN
  10.5014   11.3187   11.6458  91.0700  98.4500 104.1000   2 1

