# MOL2 file generated by ConQuest
# Please check atom types

@<TRIPOS>MOLECULE
AFIFUS
    59    65     1
SMALL
NO_CHARGES
****
Generated from CSD

@<TRIPOS>ATOM
      1 C1         3.8397    3.1870    6.2785 C.ar      1 RES1    0.0000
      2 C2         3.6215    3.1457    4.9072 C.ar      1 RES1    0.0000
      3 H1         4.0359    3.7623    4.3481 H         1 RES1    0.0000
      4 C3         2.7938    2.1928    4.3849 C.ar      1 RES1    0.0000
      5 H2         2.6364    2.1692    3.4691 H         1 RES1    0.0000
      6 C4         2.1909    1.2660    5.2052 C.ar      1 RES1    0.0000
      7 H3         1.6303    0.6191    4.8420 H         1 RES1    0.0000
      8 C5         2.4189    1.2986    6.5714 C.ar      1 RES1    0.0000
      9 H4         2.0236    0.6587    7.1195 H         1 RES1    0.0000
     10 C6         3.2339    2.2788    7.1347 C.ar      1 RES1    0.0000
     11 C7         3.5346    2.3011    8.6139 C.3       1 RES1    0.0000
     12 H5         4.0219    1.4742    8.8140 H         1 RES1    0.0000
     13 C8         4.4395    3.4678    9.0594 C.3       1 RES1    0.0000
     14 C9         4.4203    4.6315    8.0374 C.3       1 RES1    0.0000
     15 H6         3.5110    4.9972    8.0226 H         1 RES1    0.0000
     16 C10        5.3668    5.7750    8.3177 C.ar      1 RES1    0.0000
     17 C11        6.6968    5.6347    8.0123 C.ar      1 RES1    0.0000
     18 H7         6.9911    4.8469    7.6148 H         1 RES1    0.0000
     19 C12        7.6202    6.6530    8.2860 C.ar      1 RES1    0.0000
     20 H8         8.5220    6.5292    8.0936 H         1 RES1    0.0000
     21 C13        7.1958    7.8221    8.8338 C.ar      1 RES1    0.0000
     22 H9         7.8155    8.4887    9.0224 H         1 RES1    0.0000
     23 C14        5.8449    8.0392    9.1185 C.ar      1 RES1    0.0000
     24 C15        5.3763    9.2651    9.6738 C.ar      1 RES1    0.0000
     25 H10        5.9883    9.9382    9.8636 H         1 RES1    0.0000
     26 C16        4.0817    9.4738    9.9280 C.ar      1 RES1    0.0000
     27 H11        3.8064   10.2865   10.2895 H         1 RES1    0.0000
     28 C17        3.1410    8.4853    9.6570 C.ar      1 RES1    0.0000
     29 H12        2.2416    8.6456    9.8274 H         1 RES1    0.0000
     30 C18        3.5297    7.2778    9.1407 C.ar      1 RES1    0.0000
     31 H13        2.8900    6.6249    8.9711 H         1 RES1    0.0000
     32 C19        4.8857    7.0102    8.8616 C.ar      1 RES1    0.0000
     33 C20        3.9314    3.8903   10.4401 C.3       1 RES1    0.0000
     34 H14        4.6626    3.9604   11.0734 H         1 RES1    0.0000
     35 H15        3.4700    4.7429   10.3952 H         1 RES1    0.0000
     36 C21        2.3370    2.3621    9.6016 C.3       1 RES1    0.0000
     37 C22        1.6059    1.0570    9.7759 C.ar      1 RES1    0.0000
     38 C23        2.0375   -0.1596   10.2308 C.ar      1 RES1    0.0000
     39 H16        2.9103   -0.2707   10.5327 H         1 RES1    0.0000
     40 C24        1.1473   -1.2235   10.2312 C.ar      1 RES1    0.0000
     41 H17        1.4250   -2.0553   10.5417 H         1 RES1    0.0000
     42 C25       -0.1375   -1.0628    9.7797 C.ar      1 RES1    0.0000
     43 H18       -0.7157   -1.7912    9.7775 H         1 RES1    0.0000
     44 C26       -0.5901    0.1605    9.3279 C.ar      1 RES1    0.0000
     45 H19       -1.4608    0.2707    9.0209 H         1 RES1    0.0000
     46 C27        0.2983    1.2064    9.3494 C.ar      1 RES1    0.0000
     47 C28        1.2010    3.2959    9.0949 C.2       1 RES1    0.0000
     48 C29        2.1597    3.1512   11.9493 C.3       1 RES1    0.0000
     49 H20        1.5627    3.8614   11.7016 H         1 RES1    0.0000
     50 H21        2.7048    3.4338   12.6879 H         1 RES1    0.0000
     51 H22        1.6510    2.3789   12.2046 H         1 RES1    0.0000
     52 N1         5.8659    2.9441    9.1360 N.pl3     1 RES1    0.0000
     53 N2         3.0130    2.8172   10.8171 N.3       1 RES1    0.0000
     54 N3         0.0912    2.5374    8.9513 N.am      1 RES1    0.0000
     55 H23       -0.6875    2.8956    8.7883 H         1 RES1    0.0000
     56 O1         4.7135    4.1483    6.7233 O.3       1 RES1    0.0000
     57 O2         6.2444    2.2288    8.2295 O.2       1 RES1    0.0000
     58 O3         6.5921    3.3072   10.0301 O.2       1 RES1    0.0000
     59 O4         1.2837    4.4922    8.8770 O.2       1 RES1    0.0000
@<TRIPOS>BOND
     1    1    2 ar
     2    2    3 1
     3    4    2 ar
     4    5    4 1
     5    6    4 ar
     6    7    6 1
     7    8    6 ar
     8    9    8 1
     9   10    1 ar
    10   11   10 1
    11   12   11 1
    12   13   11 1
    13   14   13 1
    14   15   14 1
    15   16   14 1
    16   17   16 ar
    17   18   17 1
    18   19   17 ar
    19   20   19 1
    20   21   19 ar
    21   22   21 1
    22   23   21 ar
    23   24   23 ar
    24   25   24 1
    25   26   24 ar
    26   27   26 1
    27   28   26 ar
    28   29   28 1
    29   30   28 ar
    30   31   30 1
    31   32   16 ar
    32   33   13 1
    33   34   33 1
    34   35   33 1
    35   36   11 1
    36   37   36 1
    37   38   37 ar
    38   39   38 1
    39   40   38 ar
    40   41   40 1
    41   42   40 ar
    42   43   42 1
    43   44   42 ar
    44   45   44 1
    45   46   37 ar
    46   47   36 1
    47   48   49 1
    48   50   48 1
    49   51   48 1
    50   52   13 1
    51   53   33 1
    52   54   46 1
    53   55   54 1
    54   56    1 1
    55   57   52 2
    56   58   52 2
    57   59   47 2
    58    8   10 ar
    59   14   56 1
    60   23   32 ar
    61   30   32 ar
    62   36   53 1
    63   44   46 ar
    64   47   54 1
    65   48   53 1
@<TRIPOS>SUBSTRUCTURE
     1 RES1 1

@<TRIPOS>CRYSIN
   9.4359   16.5086   15.1964  90.0000  96.3630  90.0000 231 1

