# MOL2 file generated by ConQuest
# Please check atom types

@<TRIPOS>MOLECULE
AFIKAC
    42    44     1
SMALL
NO_CHARGES
****
Generated from CSD

@<TRIPOS>ATOM
      1 O1        -4.5235    7.4004    5.4793 O.3       1 RES1    0.0000
      2 O2        -0.8755    7.9359    7.1409 O.3       1 RES1    0.0000
      3 H1        -0.0615    8.2364    7.3148 H         1 RES1    0.0000
      4 O3         1.3856    7.2908    1.0648 O.3       1 RES1    0.0000
      5 O4        -1.9503    8.7228   -0.7489 O.3       1 RES1    0.0000
      6 H2        -2.8239    9.0396   -0.8599 H         1 RES1    0.0000
      7 N1        -1.5078    9.2361    3.2989 N.3       1 RES1    0.0000
      8 N2        -1.0841    8.3332    5.8138 N.2       1 RES1    0.0000
      9 N3        -1.8098    8.8678    0.6360 N.2       1 RES1    0.0000
     10 C1        -2.5445    8.4642    3.9468 C.3       1 RES1    0.0000
     11 H3        -2.6911    7.6249    3.4636 H         1 RES1    0.0000
     12 H4        -3.3829    8.9653    3.8851 H         1 RES1    0.0000
     13 C2        -2.2751    8.0997    5.3887 C.2       1 RES1    0.0000
     14 C3        -3.3451    7.5086    6.1570 C.2       1 RES1    0.0000
     15 C4        -3.5168    7.0531    7.4020 C.2       1 RES1    0.0000
     16 H5        -2.9068    7.0495    8.0051 H         1 RES1    0.0000
     17 C5        -4.8521    6.6371    7.5243 C.2       1 RES1    0.0000
     18 H6        -5.2187    6.2702    8.3079 H         1 RES1    0.0000
     19 C6        -5.4070    6.8445    6.3653 C.2       1 RES1    0.0000
     20 H7        -6.2340    6.7138    5.9584 H         1 RES1    0.0000
     21 C7        -1.4828   10.6162    3.3816 C.ar      1 RES1    0.0000
     22 C8        -2.3501   11.3187    4.2108 C.ar      1 RES1    0.0000
     23 H8        -2.9390   10.8368    4.7704 H         1 RES1    0.0000
     24 C9        -2.3557   12.6914    4.2448 C.ar      1 RES1    0.0000
     25 H9        -2.9608   13.1278    4.8927 H         1 RES1    0.0000
     26 C10       -1.4727   13.4084    3.5000 C.ar      1 RES1    0.0000
     27 H10       -1.4751   14.3387    3.4878 H         1 RES1    0.0000
     28 C11       -0.5753   12.7466    2.6994 C.ar      1 RES1    0.0000
     29 H11        0.1153   13.1878    2.2283 H         1 RES1    0.0000
     30 C12       -0.5754   11.3667    2.6377 C.ar      1 RES1    0.0000
     31 H12        0.0059   10.9327    2.0649 H         1 RES1    0.0000
     32 C13       -0.4834    8.5205    2.5820 C.3       1 RES1    0.0000
     33 H13        0.4225    8.9317    2.7770 H         1 RES1    0.0000
     34 H14       -0.4144    7.6010    2.9162 H         1 RES1    0.0000
     35 C14       -0.6974    8.4150    1.0862 C.2       1 RES1    0.0000
     36 C15        0.3554    7.8000    0.3065 C.2       1 RES1    0.0000
     37 C16        0.6257    7.5974   -0.9967 C.2       1 RES1    0.0000
     38 H15        0.0378    7.8527   -1.7197 H         1 RES1    0.0000
     39 C17        1.8744    6.9260   -1.0597 C.2       1 RES1    0.0000
     40 H16        2.2907    6.6419   -1.8287 H         1 RES1    0.0000
     41 C18        2.2834    6.7701    0.1889 C.2       1 RES1    0.0000
     42 H17        3.0595    6.3421    0.5813 H         1 RES1    0.0000
@<TRIPOS>BOND
     1    1   14 1
     2    2    3 1
     3    4   36 1
     4    5    6 1
     5    7   10 1
     6    8    2 1
     7    9    5 1
     8   10   11 1
     9   12   10 1
    10   13    8 2
    11   14   13 1
    12   15   14 2
    13   16   15 1
    14   17   15 1
    15   18   17 1
    16   19    1 1
    17   20   19 1
    18   21    7 1
    19   22   21 ar
    20   23   22 1
    21   24   22 ar
    22   25   24 1
    23   26   24 ar
    24   27   26 1
    25   28   26 ar
    26   29   28 1
    27   30   21 ar
    28   31   30 1
    29   32    7 1
    30   33   32 1
    31   34   32 1
    32   35    9 2
    33   36   35 1
    34   37   36 2
    35   38   37 1
    36   39   37 1
    37   40   39 1
    38   41    4 1
    39   42   41 1
    40   10   13 1
    41   17   19 2
    42   28   30 ar
    43   32   35 1
    44   39   41 2
@<TRIPOS>SUBSTRUCTURE
     1 RES1 1

@<TRIPOS>CRYSIN
  11.2363   11.9889   12.8785  90.0000 109.8860  90.0000 231 1

