# MOL2 file generated by ConQuest
# Please check atom types

@<TRIPOS>MOLECULE
AFIKIK
    66    67     1
SMALL
NO_CHARGES
****
Generated from CSD

@<TRIPOS>ATOM
      1 N1         5.5016    8.9580    1.7348 N.2       1 RES1    0.0000
      2 N2         2.1552    5.8975    6.3112 N.3       1 RES1    0.0000
      3 O1         5.7001    9.7109    0.5431 O.3       1 RES1    0.0000
      4 O2         5.9162    7.7067    4.0700 O.3       1 RES1    0.0000
      5 H1         6.1264    8.1340    3.4021 H         1 RES1    0.0000
      6 C1         7.0967    9.8220    0.3007 C.3       1 RES1    0.0000
      7 H2         7.5549   10.0057    1.1352 H         1 RES1    0.0000
      8 H3         7.2605   10.5646   -0.3015 H         1 RES1    0.0000
      9 C2         4.2535    8.7709    1.9396 C.2       1 RES1    0.0000
     10 H4         3.6428    9.1195    1.3303 H         1 RES1    0.0000
     11 C3         3.7559    8.0417    3.0767 C.ar      1 RES1    0.0000
     12 C4         4.5718    7.5285    4.0877 C.ar      1 RES1    0.0000
     13 C5         4.0487    6.8339    5.1511 C.ar      1 RES1    0.0000
     14 H5         4.6208    6.5013    5.8039 H         1 RES1    0.0000
     15 C6         2.6762    6.6182    5.2708 C.ar      1 RES1    0.0000
     16 C7         1.8467    7.1509    4.2678 C.ar      1 RES1    0.0000
     17 H6         0.9254    7.0326    4.3156 H         1 RES1    0.0000
     18 C8         2.3921    7.8376    3.2274 C.ar      1 RES1    0.0000
     19 H7         1.8203    8.1891    2.5835 H         1 RES1    0.0000
     20 C9         2.9988    5.2264    7.2832 C.3       1 RES1    0.0000
     21 H8         3.8095    4.9274    6.8433 H         1 RES1    0.0000
     22 H9         2.5348    4.4421    7.6140 H         1 RES1    0.0000
     23 C10        3.3720    6.1025    8.4530 C.3       1 RES1    0.0000
     24 H10        3.8491    6.8727    8.1364 H         1 RES1    0.0000
     25 H11        3.9286    5.6077    9.0588 H         1 RES1    0.0000
     26 H12        2.5755    6.3855    8.9089 H         1 RES1    0.0000
     27 C11        0.7235    5.7955    6.5338 C.3       1 RES1    0.0000
     28 H13        0.2978    6.6024    6.2039 H         1 RES1    0.0000
     29 H14        0.5581    5.7438    7.4881 H         1 RES1    0.0000
     30 C12        0.0896    4.6011    5.8624 C.3       1 RES1    0.0000
     31 H15        0.1191    4.7160    4.9099 H         1 RES1    0.0000
     32 H16       -0.8235    4.5211    6.1471 H         1 RES1    0.0000
     33 H17        0.5704    3.8059    6.1036 H         1 RES1    0.0000
     34 N1B        9.2394    9.4280   -1.7348 N.2       1 RES1    0.0000
     35 N2B       12.5858   12.4885   -6.3112 N.3       1 RES1    0.0000
     36 O1B        9.0409    8.6751   -0.5431 O.3       1 RES1    0.0000
     37 O2B        8.8248   10.6793   -4.0700 O.3       1 RES1    0.0000
     38 H1B        8.6146   10.2520   -3.4021 H         1 RES1    0.0000
     39 C1B        7.6443    8.5640   -0.3007 C.3       1 RES1    0.0000
     40 H2B        7.1861    8.3803   -1.1352 H         1 RES1    0.0000
     41 H3B        7.4805    7.8214    0.3015 H         1 RES1    0.0000
     42 C2B       10.4875    9.6151   -1.9396 C.2       1 RES1    0.0000
     43 H4B       11.0982    9.2665   -1.3303 H         1 RES1    0.0000
     44 C3B       10.9851   10.3443   -3.0767 C.ar      1 RES1    0.0000
     45 C4B       10.1692   10.8575   -4.0877 C.ar      1 RES1    0.0000
     46 C5B       10.6923   11.5521   -5.1511 C.ar      1 RES1    0.0000
     47 H5B       10.1202   11.8847   -5.8039 H         1 RES1    0.0000
     48 C6B       12.0648   11.7678   -5.2708 C.ar      1 RES1    0.0000
     49 C7B       12.8943   11.2351   -4.2678 C.ar      1 RES1    0.0000
     50 H6B       13.8156   11.3534   -4.3156 H         1 RES1    0.0000
     51 C8B       12.3489   10.5484   -3.2274 C.ar      1 RES1    0.0000
     52 H7B       12.9207   10.1969   -2.5835 H         1 RES1    0.0000
     53 C9B       11.7422   13.1596   -7.2832 C.3       1 RES1    0.0000
     54 H8B       10.9315   13.4586   -6.8433 H         1 RES1    0.0000
     55 H9B       12.2062   13.9439   -7.6140 H         1 RES1    0.0000
     56 C10B      11.3690   12.2835   -8.4530 C.3       1 RES1    0.0000
     57 H10B      10.8919   11.5133   -8.1364 H         1 RES1    0.0000
     58 H11B      10.8124   12.7783   -9.0588 H         1 RES1    0.0000
     59 H12B      12.1655   12.0005   -8.9089 H         1 RES1    0.0000
     60 C11B      14.0175   12.5905   -6.5338 C.3       1 RES1    0.0000
     61 H13B      14.4432   11.7836   -6.2039 H         1 RES1    0.0000
     62 H14B      14.1829   12.6422   -7.4881 H         1 RES1    0.0000
     63 C12B      14.6514   13.7849   -5.8624 C.3       1 RES1    0.0000
     64 H15B      14.6219   13.6700   -4.9099 H         1 RES1    0.0000
     65 H16B      15.5645   13.8649   -6.1471 H         1 RES1    0.0000
     66 H17B      14.1706   14.5801   -6.1036 H         1 RES1    0.0000
@<TRIPOS>BOND
     1    1    3 1
     2    2   15 1
     3    3    6 1
     4    4    5 1
     5    6    7 1
     6    8    6 1
     7    9    1 2
     8   10    9 1
     9   11    9 1
    10   12    4 1
    11   13   12 ar
    12   14   13 1
    13   15   13 ar
    14   16   15 ar
    15   17   16 1
    16   18   11 ar
    17   19   18 1
    18   20    2 1
    19   21   20 1
    20   22   20 1
    21   23   20 1
    22   24   23 1
    23   25   23 1
    24   26   23 1
    25   27    2 1
    26   28   27 1
    27   29   27 1
    28   30   27 1
    29   31   30 1
    30   32   30 1
    31   33   30 1
    32   34   36 1
    33   35   48 1
    34   36   39 1
    35   37   38 1
    36   39    6 1
    37   40   39 1
    38   41   39 1
    39   42   34 2
    40   43   42 1
    41   44   42 1
    42   45   37 1
    43   46   45 ar
    44   47   46 1
    45   48   46 ar
    46   49   48 ar
    47   50   49 1
    48   51   44 ar
    49   52   51 1
    50   53   35 1
    51   54   53 1
    52   55   53 1
    53   56   53 1
    54   57   56 1
    55   58   56 1
    56   59   56 1
    57   60   35 1
    58   61   60 1
    59   62   60 1
    60   63   60 1
    61   64   63 1
    62   65   63 1
    63   66   63 1
    64   11   12 ar
    65   16   18 ar
    66   44   45 ar
    67   49   51 ar
@<TRIPOS>SUBSTRUCTURE
     1 RES1 1

@<TRIPOS>CRYSIN
   7.3705   18.3860    8.9368  90.0000  97.0630  90.0000  14 1

