# MOL2 file generated by ConQuest
# Please check atom types

@<TRIPOS>MOLECULE
AFIMUZ
    41    44     1
SMALL
NO_CHARGES
****
Generated from CSD

@<TRIPOS>ATOM
      1 C1        18.3566    6.4348   -0.8869 C.2       1 RES1    0.0000
      2 C2        18.8784    6.7556    0.4730 C.3       1 RES1    0.0000
      3 H1        18.8700    7.7198    0.6494 H         1 RES1    0.0000
      4 C3        20.2400    6.1181    0.8308 C.3       1 RES1    0.0000
      5 H2        21.0157    6.6690    0.5964 H         1 RES1    0.0000
      6 C4        20.2789    4.6975    0.2559 C.3       1 RES1    0.0000
      7 H3        20.0057    4.6876   -0.6749 H         1 RES1    0.0000
      8 H4        21.1653    4.3119    0.3313 H         1 RES1    0.0000
      9 C5        19.2730    3.9515    1.1377 C.3       1 RES1    0.0000
     10 H5        19.6975    3.2035    1.5872 H         1 RES1    0.0000
     11 H6        18.5307    3.6195    0.6096 H         1 RES1    0.0000
     12 C6        18.7914    5.0044    2.1601 C.3       1 RES1    0.0000
     13 C7        17.8949    5.9984    1.3844 C.3       1 RES1    0.0000
     14 C8        20.0802    5.8595    2.3528 C.3       1 RES1    0.0000
     15 C9        21.2644    5.0725    2.9645 C.3       1 RES1    0.0000
     16 H7        22.0784    5.5632    2.8289 H         1 RES1    0.0000
     17 H8        21.3320    4.2154    2.5384 H         1 RES1    0.0000
     18 H9        21.1155    4.9515    3.9054 H         1 RES1    0.0000
     19 C10       19.9259    7.1372    3.1847 C.3       1 RES1    0.0000
     20 H10       20.7710    7.5889    3.2367 H         1 RES1    0.0000
     21 H11       19.6295    6.9097    4.0685 H         1 RES1    0.0000
     22 H12       19.2807    7.7139    2.7687 H         1 RES1    0.0000
     23 C11       18.9516    6.9170   -2.1449 C.ar      1 RES1    0.0000
     24 C12       18.7813    6.2212   -3.3366 C.ar      1 RES1    0.0000
     25 H13       18.2781    5.4395   -3.3508 H         1 RES1    0.0000
     26 C13       19.3644    6.6941   -4.5069 C.ar      1 RES1    0.0000
     27 H14       19.2395    6.2265   -5.3020 H         1 RES1    0.0000
     28 C14       20.1065    7.8190   -4.5079 C.ar      1 RES1    0.0000
     29 H15       20.5048    8.1140   -5.2938 H         1 RES1    0.0000
     30 C15       20.2730    8.5293   -3.3427 C.ar      1 RES1    0.0000
     31 H16       20.7684    9.3156   -3.3468 H         1 RES1    0.0000
     32 C16       19.7020    8.0750   -2.1601 C.ar      1 RES1    0.0000
     33 H17       19.8262    8.5544   -1.3732 H         1 RES1    0.0000
     34 C17       18.1454    4.4072    3.4018 C.3       1 RES1    0.0000
     35 H18       17.3452    3.9403    3.1520 H         1 RES1    0.0000
     36 H19       17.9280    5.1095    4.0186 H         1 RES1    0.0000
     37 H20       18.7569    3.7948    3.8177 H         1 RES1    0.0000
     38 O1        16.9844    5.3383    0.4449 O.3       1 RES1    0.0000
     39 N1        17.3643    5.6373   -0.8807 N.2       1 RES1    0.0000
     40 O2        17.1176    6.7377    2.2585 O.3       1 RES1    0.0000
     41 H21       16.8158    7.3925    1.8686 H         1 RES1    0.0000
@<TRIPOS>BOND
     1    1    2 1
     2    2    3 1
     3    4    2 1
     4    5    4 1
     5    6    4 1
     6    7    6 1
     7    8    6 1
     8    9    6 1
     9   10    9 1
    10   11    9 1
    11   12    9 1
    12   13    2 1
    13   14    4 1
    14   15   14 1
    15   16   15 1
    16   17   15 1
    17   18   15 1
    18   19   14 1
    19   20   19 1
    20   21   19 1
    21   22   19 1
    22   23    1 1
    23   24   23 ar
    24   25   24 1
    25   26   24 ar
    26   27   26 1
    27   28   26 ar
    28   29   28 1
    29   30   28 ar
    30   31   30 1
    31   32   23 ar
    32   33   32 1
    33   34   12 1
    34   35   34 1
    35   36   34 1
    36   37   34 1
    37   38   13 1
    38   39    1 2
    39   40   13 1
    40   41   40 1
    41   12   13 1
    42   12   14 1
    43   30   32 ar
    44   38   39 1
@<TRIPOS>SUBSTRUCTURE
     1 RES1 1

@<TRIPOS>CRYSIN
  22.1681    6.6134   10.7358  90.0000 108.2770  90.0000   5 1

