# MOL2 file generated by ConQuest
# Please check atom types

@<TRIPOS>MOLECULE
AFISEP
   104   106     2
SMALL
NO_CHARGES
****
Generated from CSD

@<TRIPOS>ATOM
      1 O1         8.1806   -2.8104    7.2338 O.2       1 RES1    0.0000
      2 O2         4.0087    3.1156    9.0997 O.2       1 RES1    0.0000
      3 O3         2.7258    4.6309    8.2439 O.2       1 RES1    0.0000
      4 N1         6.6239   -1.5068    6.3144 N.am      1 RES1    0.0000
      5 N2         5.8153   -0.3991    6.3892 N.2       1 RES1    0.0000
      6 N3         3.3716    3.5942    8.1681 N.pl3     1 RES1    0.0000
      7 C1         3.5315   -3.8801   12.2774 C.3       1 RES1    0.0000
      8 C2         2.5553   -2.5525   14.1601 C.3       1 RES1    0.0000
      9 C3         3.4048   -2.5287   12.8747 C.3       1 RES1    0.0000
     10 C4         4.6955   -1.8118   13.1409 C.3       1 RES1    0.0000
     11 C5         5.5274   -1.5092   11.9126 C.ar      1 RES1    0.0000
     12 C6         6.5079   -2.3585   11.4737 C.ar      1 RES1    0.0000
     13 C7         7.2438   -2.1179   10.3312 C.ar      1 RES1    0.0000
     14 C8         7.0238   -0.9830    9.5651 C.ar      1 RES1    0.0000
     15 C9         6.0485   -0.1221   10.0032 C.ar      1 RES1    0.0000
     16 C10        5.3057   -0.3814   11.1414 C.ar      1 RES1    0.0000
     17 C11        7.8306   -0.6956    8.3144 C.3       1 RES1    0.0000
     18 C12        9.3357   -0.6422    8.5862 C.3       1 RES1    0.0000
     19 C13        7.5562   -1.7532    7.2612 C.2       1 RES1    0.0000
     20 C14        5.0495   -0.1357    5.3959 C.2       1 RES1    0.0000
     21 C15        5.0007   -0.9283    4.1192 C.3       1 RES1    0.0000
     22 C16        4.1831    1.0521    5.5532 C.ar      1 RES1    0.0000
     23 C17        3.3721    1.5193    4.5300 C.ar      1 RES1    0.0000
     24 C18        2.6020    2.6577    4.6742 C.ar      1 RES1    0.0000
     25 C19        2.5931    3.3500    5.8609 C.ar      1 RES1    0.0000
     26 C20        3.3746    2.8640    6.8841 C.ar      1 RES1    0.0000
     27 C21        4.1586    1.7535    6.7622 C.ar      1 RES1    0.0000
     28 H1         6.5358   -2.0525    5.6557 H         1 RES1    0.0000
     29 H2         5.2271   -2.3511   13.7459 H         1 RES1    0.0000
     30 H3         2.9121   -1.9827   12.2255 H         1 RES1    0.0000
     31 H4         4.4967   -0.9768   13.5914 H         1 RES1    0.0000
     32 H5         6.6859   -3.1285   11.9645 H         1 RES1    0.0000
     33 H6         7.8974   -2.7265   10.0702 H         1 RES1    0.0000
     34 H7         5.8808    0.6568    9.5223 H         1 RES1    0.0000
     35 H8         4.6406    0.2177   11.3958 H         1 RES1    0.0000
     36 H9         4.0647   -3.8300   11.4815 H         1 RES1    0.0000
     37 H10        7.5505    0.1741    7.9590 H         1 RES1    0.0000
     38 H11        2.6592   -4.2157   12.0580 H         1 RES1    0.0000
     39 H12        9.6427   -1.5094    8.8588 H         1 RES1    0.0000
     40 H13        9.5119   -0.0072    9.2847 H         1 RES1    0.0000
     41 H14        9.7954   -0.3764    7.7877 H         1 RES1    0.0000
     42 H15        3.9513   -4.4700   12.9085 H         1 RES1    0.0000
     43 H16        3.0288   -3.0275   14.8469 H         1 RES1    0.0000
     44 H17        1.7208   -2.9908   13.9835 H         1 RES1    0.0000
     45 H18        4.9581   -0.3278    3.3719 H         1 RES1    0.0000
     46 H19        4.2226   -1.4914    4.1210 H         1 RES1    0.0000
     47 H20        5.7880   -1.4722    4.0496 H         1 RES1    0.0000
     48 H21        2.3893   -1.6528   14.4509 H         1 RES1    0.0000
     49 H22        3.3450    1.0539    3.7250 H         1 RES1    0.0000
     50 H23        2.0847    2.9591    3.9613 H         1 RES1    0.0000
     51 H24        2.0780    4.1159    5.9699 H         1 RES1    0.0000
     52 H25        4.6737    1.4644    7.4799 H         1 RES1    0.0000
     53 O4         2.7399    9.1470    4.2757 O.2       2 RES2    0.0000
     54 O5         6.6186    2.9792    3.0148 O.2       2 RES2    0.0000
     55 O6         7.9144    1.5989    3.9094 O.2       2 RES2    0.0000
     56 N4         3.9518    7.7006    5.4637 N.am      2 RES2    0.0000
     57 N5         4.7044    6.5551    5.5082 N.2       2 RES2    0.0000
     58 N6         7.2030    2.5572    3.9665 N.pl3     2 RES2    0.0000
     59 C22       10.3514    8.9097   -0.9894 C.3       2 RES2    0.0000
     60 C23        7.9877    8.3233   -1.5009 C.3       2 RES2    0.0000
     61 C24        8.9519    8.7556   -0.4194 C.3       2 RES2    0.0000
     62 C25        8.9237    7.8230    0.7829 C.3       2 RES2    0.0000
     63 C26        7.5633    7.6549    1.4237 C.ar      2 RES2    0.0000
     64 C27        6.8732    8.7286    1.9451 C.ar      2 RES2    0.0000
     65 C28        5.6113    8.5923    2.4843 C.ar      2 RES2    0.0000
     66 C29        4.9848    7.3612    2.5475 C.ar      2 RES2    0.0000
     67 C30        5.6768    6.2823    2.0495 C.ar      2 RES2    0.0000
     68 C31        6.9317    6.4270    1.4939 C.ar      2 RES2    0.0000
     69 C32        3.5669    7.2239    3.0694 C.3       2 RES2    0.0000
     70 C33        2.5618    7.6068    1.9763 C.3       2 RES2    0.0000
     71 C34        3.3716    8.1011    4.3024 C.2       2 RES2    0.0000
     72 C35        5.2145    6.1995    6.6279 C.2       2 RES2    0.0000
     73 C36        5.0221    6.9267    7.9358 C.3       2 RES2    0.0000
     74 C37        6.0567    4.9836    6.5606 C.ar      2 RES2    0.0000
     75 C38        6.7306    4.4617    7.6656 C.ar      2 RES2    0.0000
     76 C39        7.5362    3.3549    7.5656 C.ar      2 RES2    0.0000
     77 C40        7.7015    2.7173    6.3724 C.ar      2 RES2    0.0000
     78 C41        7.0286    3.2184    5.2688 C.ar      2 RES2    0.0000
     79 C42        6.2342    4.3223    5.3405 C.ar      2 RES2    0.0000
     80 H26        9.2446    6.9513    0.5038 H         2 RES2    0.0000
     81 H27        3.8458    8.1696    6.1764 H         2 RES2    0.0000
     82 H28        9.5405    8.1618    1.4503 H         2 RES2    0.0000
     83 H29        8.6643    9.6401   -0.1091 H         2 RES2    0.0000
     84 H30        8.0036    8.9623   -2.2176 H         2 RES2    0.0000
     85 H31        7.1004    8.2717   -1.1374 H         2 RES2    0.0000
     86 H32        7.2701    9.5699    1.9320 H         2 RES2    0.0000
     87 H33        8.2475    7.4624   -1.8359 H         2 RES2    0.0000
     88 H34        5.1725    9.3439    2.8123 H         2 RES2    0.0000
     89 H35       10.6008    8.1040   -1.4490 H         2 RES2    0.0000
     90 H36       10.9715    9.0749   -0.2753 H         2 RES2    0.0000
     91 H37        5.2905    5.4366    2.0878 H         2 RES2    0.0000
     92 H38       10.3666    9.6475   -1.6035 H         2 RES2    0.0000
     93 H39        7.3653    5.6766    1.1569 H         2 RES2    0.0000
     94 H40        3.4147    6.2896    3.3225 H         2 RES2    0.0000
     95 H41        2.6912    8.5257    1.7307 H         2 RES2    0.0000
     96 H42        1.6678    7.4862    2.3072 H         2 RES2    0.0000
     97 H43        2.6969    7.0472    1.2075 H         2 RES2    0.0000
     98 H44        5.4319    7.7934    7.8837 H         2 RES2    0.0000
     99 H45        5.4271    6.4233    8.6446 H         2 RES2    0.0000
    100 H46        4.0825    7.0268    8.1110 H         2 RES2    0.0000
    101 H47        6.6318    4.8756    8.4927 H         2 RES2    0.0000
    102 H48        7.9742    3.0367    8.3213 H         2 RES2    0.0000
    103 H49        8.2485    1.9685    6.3010 H         2 RES2    0.0000
    104 H50        5.8077    4.6377    4.5768 H         2 RES2    0.0000
@<TRIPOS>BOND
     1    1   19 2
     2    2    6 2
     3    3    6 2
     4    4    5 1
     5    5   20 2
     6    6   26 1
     7    7    9 1
     8    8    9 1
     9    9   10 1
    10   10   11 1
    11   11   12 ar
    12   12   13 ar
    13   13   14 ar
    14   14   15 ar
    15   15   16 ar
    16   16   11 ar
    17   17   14 1
    18   18   17 1
    19   19    4 1
    20   20   21 1
    21   21   45 1
    22   22   20 1
    23   23   22 ar
    24   24   23 ar
    25   25   24 ar
    26   26   25 ar
    27   27   22 ar
    28   28    4 1
    29   29   10 1
    30   30    9 1
    31   31   10 1
    32   32   12 1
    33   33   13 1
    34   34   15 1
    35   35   16 1
    36   36    7 1
    37   37   17 1
    38   38    7 1
    39   39   18 1
    40   40   18 1
    41   41   18 1
    42   42    7 1
    43   43    8 1
    44   44    8 1
    45   46   21 1
    46   47   21 1
    47   48    8 1
    48   49   23 1
    49   50   24 1
    50   51   25 1
    51   52   27 1
    52   53   71 2
    53   54   58 2
    54   55   58 2
    55   56   57 1
    56   57   72 2
    57   58   78 1
    58   59   61 1
    59   60   61 1
    60   61   62 1
    61   62   63 1
    62   63   64 ar
    63   64   65 ar
    64   65   66 ar
    65   66   67 ar
    66   67   68 ar
    67   68   63 ar
    68   69   66 1
    69   70   69 1
    70   71   56 1
    71   72   73 1
    72   73   98 1
    73   74   72 1
    74   75   74 ar
    75   76   75 ar
    76   77   76 ar
    77   78   77 ar
    78   79   74 ar
    79   80   62 1
    80   81   56 1
    81   82   62 1
    82   83   61 1
    83   84   60 1
    84   85   60 1
    85   86   64 1
    86   87   60 1
    87   88   65 1
    88   89   59 1
    89   90   59 1
    90   91   67 1
    91   92   59 1
    92   93   68 1
    93   94   69 1
    94   95   70 1
    95   96   70 1
    96   97   70 1
    97   99   73 1
    98  100   73 1
    99  101   75 1
   100  102   76 1
   101  103   77 1
   102  104   79 1
   103   17   19 1
   104   26   27 ar
   105   69   71 1
   106   78   79 ar
@<TRIPOS>SUBSTRUCTURE
     1 RES1 1
     2 RES2 53

@<TRIPOS>CRYSIN
  12.2010   13.4290   13.9320  90.4700 110.0990 107.3210   2 1

