# MOL2 file generated by ConQuest
# Please check atom types

@<TRIPOS>MOLECULE
AFIWIX
    56    59     1
SMALL
NO_CHARGES
****
Generated from CSD

@<TRIPOS>ATOM
      1 O1         2.9357    7.1691    0.0074 O.2       1 RES1    0.0000
      2 O2         1.0058    6.4274    1.8692 O.3       1 RES1    0.0000
      3 O3         4.0836    4.8111    4.7835 O.2       1 RES1    0.0000
      4 N1         0.3584    5.4954    2.8302 N.3       1 RES1    0.0000
      5 C1         5.1459   10.7433    2.5976 C.ar      1 RES1    0.0000
      6 H1         5.5727   11.5213    2.8781 H         1 RES1    0.0000
      7 C2         5.3574   10.2736    1.3359 C.ar      1 RES1    0.0000
      8 H2         5.9426   10.7203    0.7671 H         1 RES1    0.0000
      9 C3         4.7118    9.1451    0.9015 C.ar      1 RES1    0.0000
     10 H3         4.8570    8.8319    0.0380 H         1 RES1    0.0000
     11 C4         3.8404    8.4679    1.7495 C.ar      1 RES1    0.0000
     12 C5         3.0638    7.3465    1.1960 C.2       1 RES1    0.0000
     13 C6         2.3260    6.4265    2.1282 C.2       1 RES1    0.0000
     14 C7         2.6975    5.5992    3.1057 C.2       1 RES1    0.0000
     15 C8         1.4706    4.8954    3.6181 C.3       1 RES1    0.0000
     16 H4         1.3469    5.0834    4.5724 H         1 RES1    0.0000
     17 C9         1.4925    3.3984    3.3782 C.ar      1 RES1    0.0000
     18 C10        1.8366    2.8957    2.1411 C.ar      1 RES1    0.0000
     19 H5         2.0546    3.4815    1.4525 H         1 RES1    0.0000
     20 C11        1.8610    1.5314    1.9109 C.ar      1 RES1    0.0000
     21 H6         2.1068    1.2050    1.0751 H         1 RES1    0.0000
     22 C12        1.5250    0.6669    2.9081 C.ar      1 RES1    0.0000
     23 H7         1.5379   -0.2492    2.7529 H         1 RES1    0.0000
     24 C13       -0.6284    6.3240    3.5911 C.3       1 RES1    0.0000
     25 C14       -1.2987    5.3797    4.5797 C.3       1 RES1    0.0000
     26 H8        -1.5761    4.5832    4.1220 H         1 RES1    0.0000
     27 H9        -2.0646    5.8114    4.9651 H         1 RES1    0.0000
     28 H10       -0.6775    5.1493    5.2744 H         1 RES1    0.0000
     29 C15       -1.6459    6.8038    2.5694 C.3       1 RES1    0.0000
     30 H11       -1.2122    7.3688    1.9263 H         1 RES1    0.0000
     31 H12       -2.3380    7.2976    3.0143 H         1 RES1    0.0000
     32 H13       -2.0304    6.0463    2.1214 H         1 RES1    0.0000
     33 C16       -0.0103    7.5012    4.3153 C.3       1 RES1    0.0000
     34 H14        0.6393    7.1837    4.9467 H         1 RES1    0.0000
     35 H15       -0.6956    7.9882    4.7792 H         1 RES1    0.0000
     36 H16        0.4182    8.0790    3.6795 H         1 RES1    0.0000
     37 C17        1.1696    1.1473    4.1355 C.ar      1 RES1    0.0000
     38 H17        0.9368    0.5553    4.8142 H         1 RES1    0.0000
     39 C18        1.1553    2.5150    4.3742 C.ar      1 RES1    0.0000
     40 H18        0.9167    2.8354    5.2143 H         1 RES1    0.0000
     41 C19        4.0072    5.3641    3.7022 C.2       1 RES1    0.0000
     42 C20        5.2422    5.7614    2.9763 C.ar      1 RES1    0.0000
     43 C21        6.2176    6.4856    3.6421 C.ar      1 RES1    0.0000
     44 H19        6.0692    6.7814    4.5110 H         1 RES1    0.0000
     45 C22        7.4039    6.7620    3.0106 C.ar      1 RES1    0.0000
     46 H20        8.0474    7.2745    3.4439 H         1 RES1    0.0000
     47 C23        7.6508    6.2918    1.7526 C.ar      1 RES1    0.0000
     48 H21        8.4696    6.4593    1.3458 H         1 RES1    0.0000
     49 C24        6.6882    5.5730    1.0899 C.ar      1 RES1    0.0000
     50 H22        6.8553    5.2525    0.2332 H         1 RES1    0.0000
     51 C25        5.4782    5.3251    1.6888 C.ar      1 RES1    0.0000
     52 H23        4.8168    4.8627    1.2261 H         1 RES1    0.0000
     53 C26        3.6510    8.9339    3.0376 C.ar      1 RES1    0.0000
     54 H24        3.0839    8.4794    3.6188 H         1 RES1    0.0000
     55 C27        4.3076   10.0780    3.4592 C.ar      1 RES1    0.0000
     56 H25        4.1815   10.3946    4.3245 H         1 RES1    0.0000
@<TRIPOS>BOND
     1    1   12 2
     2    2    4 1
     3    3   41 2
     4    4   15 1
     5    5    6 1
     6    7    5 ar
     7    8    7 1
     8    9    7 ar
     9   10    9 1
    10   11    9 ar
    11   12   11 1
    12   13    2 1
    13   14   13 2
    14   15   14 1
    15   16   15 1
    16   17   15 1
    17   18   17 ar
    18   19   18 1
    19   20   18 ar
    20   21   20 1
    21   22   20 ar
    22   23   22 1
    23   24    4 1
    24   25   24 1
    25   26   25 1
    26   27   25 1
    27   28   25 1
    28   29   24 1
    29   30   29 1
    30   31   29 1
    31   32   29 1
    32   33   24 1
    33   34   33 1
    34   35   33 1
    35   36   33 1
    36   37   22 ar
    37   38   37 1
    38   39   17 ar
    39   40   39 1
    40   41   14 1
    41   42   41 1
    42   43   42 ar
    43   44   43 1
    44   45   43 ar
    45   46   45 1
    46   47   45 ar
    47   48   47 1
    48   49   47 ar
    49   50   49 1
    50   51   42 ar
    51   52   51 1
    52   53   11 ar
    53   54   53 1
    54   55    5 ar
    55   56   55 1
    56   12   13 1
    57   37   39 ar
    58   49   51 ar
    59   53   55 ar
@<TRIPOS>SUBSTRUCTURE
     1 RES1 1

@<TRIPOS>CRYSIN
  20.1034   17.7990    6.1366  90.0000  90.0000  90.0000  33 1

