# MOL2 file generated by ConQuest
# Please check atom types

@<TRIPOS>MOLECULE
AFOMAL
    82    86     2
SMALL
NO_CHARGES
****
Generated from CSD

@<TRIPOS>ATOM
      1 C1         1.7129   -0.7982   14.5577 C.ar      1 RES1    0.0000
      2 C2         1.8415   -2.1953   14.5310 C.ar      1 RES1    0.0000
      3 C3         1.6079   -2.9819   15.6454 C.ar      1 RES1    0.0000
      4 H1         1.7127   -3.9051   15.6041 H         1 RES1    0.0000
      5 C4         1.2216   -2.3805   16.8041 C.ar      1 RES1    0.0000
      6 C5         1.0772   -1.0104   16.8943 C.ar      1 RES1    0.0000
      7 H2         0.8146   -0.6115   17.6930 H         1 RES1    0.0000
      8 C6         1.3295   -0.2505   15.7842 C.ar      1 RES1    0.0000
      9 H3         1.2416    0.6734   15.8491 H         1 RES1    0.0000
     10 C7         1.9668    0.1042   13.4392 C.2       1 RES1    0.0000
     11 H4         2.0551   -0.2093   12.5673 H         1 RES1    0.0000
     12 C8         2.5103    3.5853   13.1614 C.ar      1 RES1    0.0000
     13 C9         2.9212    3.8549   14.4527 C.ar      1 RES1    0.0000
     14 H5         3.0760    3.1585   15.0479 H         1 RES1    0.0000
     15 C10        3.0992    5.1611   14.8528 C.ar      1 RES1    0.0000
     16 H6         3.3702    5.3390   15.7239 H         1 RES1    0.0000
     17 C11        2.8826    6.2053   13.9861 C.ar      1 RES1    0.0000
     18 H7         3.0028    7.0842   14.2663 H         1 RES1    0.0000
     19 C12        2.4887    5.9330   12.7052 C.ar      1 RES1    0.0000
     20 H8         2.3450    6.6336   12.1113 H         1 RES1    0.0000
     21 C13        2.3012    4.6364   12.2851 C.ar      1 RES1    0.0000
     22 H9         2.0337    4.4662   11.4102 H         1 RES1    0.0000
     23 C14        2.2879    1.9091   11.3480 C.ar      1 RES1    0.0000
     24 C15        3.4548    1.9790   10.6228 C.ar      1 RES1    0.0000
     25 H10        4.2496    2.2322   11.0328 H         1 RES1    0.0000
     26 C16        3.4287    1.6672    9.2736 C.ar      1 RES1    0.0000
     27 H11        4.2113    1.7218    8.7723 H         1 RES1    0.0000
     28 C17        2.2642    1.2789    8.6703 C.ar      1 RES1    0.0000
     29 H12        2.2577    1.0587    7.7672 H         1 RES1    0.0000
     30 C18        1.1132    1.2151    9.3966 C.ar      1 RES1    0.0000
     31 H13        0.3216    0.9492    8.9869 H         1 RES1    0.0000
     32 C19        1.1133    1.5422   10.7385 C.ar      1 RES1    0.0000
     33 H14        0.3218    1.5144   11.2260 H         1 RES1    0.0000
     34 N1         2.0635    1.3578   13.7223 N.2       1 RES1    0.0000
     35 N2         2.2907    2.2592   12.7387 N.pl3     1 RES1    0.0000
     36 N3         2.2331   -2.9328   13.3220 N.pl3     1 RES1    0.0000
     37 N4         0.9192   -3.2112   17.9723 N.pl3     1 RES1    0.0000
     38 O1         2.2557   -2.3690   12.2506 O.2       1 RES1    0.0000
     39 O2         2.5071   -4.1159   13.4329 O.2       1 RES1    0.0000
     40 O3         0.9989   -4.4216   17.8697 O.2       1 RES1    0.0000
     41 O4         0.6091   -2.6515   19.0066 O.2       1 RES1    0.0000
     42 C20        6.4859    6.0357   14.5643 C.ar      2 RES2    0.0000
     43 C21        6.4415    4.6315   14.4963 C.ar      2 RES2    0.0000
     44 C22        6.7426    3.8307   15.5860 C.ar      2 RES2    0.0000
     45 H15        6.6982    2.9049   15.5147 H         2 RES2    0.0000
     46 C23        7.1043    4.4121   16.7633 C.ar      2 RES2    0.0000
     47 C24        7.1518    5.7873   16.8968 C.ar      2 RES2    0.0000
     48 H16        7.3884    6.1788   17.7073 H         2 RES2    0.0000
     49 C25        6.8421    6.5600   15.8114 C.ar      2 RES2    0.0000
     50 H17        6.8702    7.4851   15.9081 H         2 RES2    0.0000
     51 C26        6.1950    6.9556   13.4733 C.2       2 RES2    0.0000
     52 H18        6.1237    6.6601   12.5942 H         2 RES2    0.0000
     53 C27        5.4633   10.4115   13.2330 C.ar      2 RES2    0.0000
     54 C28        5.0737   10.6522   14.5366 C.ar      2 RES2    0.0000
     55 H19        5.0115    9.9501   15.1427 H         2 RES2    0.0000
     56 C29        4.7773   11.9377   14.9334 C.ar      2 RES2    0.0000
     57 H20        4.5280   12.0996   15.8151 H         2 RES2    0.0000
     58 C30        4.8439   12.9843   14.0451 C.ar      2 RES2    0.0000
     59 H21        4.6433   13.8488   14.3236 H         2 RES2    0.0000
     60 C31        5.2058   12.7462   12.7549 C.ar      2 RES2    0.0000
     61 H22        5.2433   13.4513   12.1506 H         2 RES2    0.0000
     62 C32        5.5186   11.4629   12.3321 C.ar      2 RES2    0.0000
     63 H23        5.7643   11.3083   11.4478 H         2 RES2    0.0000
     64 C33        5.7502    8.7447   11.4204 C.ar      2 RES2    0.0000
     65 C34        6.9033    8.6430   10.6873 C.ar      2 RES2    0.0000
     66 H24        7.7279    8.7984   11.0883 H         2 RES2    0.0000
     67 C35        6.8337    8.3073    9.3469 C.ar      2 RES2    0.0000
     68 H25        7.6125    8.2497    8.8420 H         2 RES2    0.0000
     69 C36        5.6259    8.0618    8.7682 C.ar      2 RES2    0.0000
     70 H26        5.5837    7.8258    7.8691 H         2 RES2    0.0000
     71 C37        4.4831    8.1597    9.4957 C.ar      2 RES2    0.0000
     72 H27        3.6617    7.9886    9.0942 H         2 RES2    0.0000
     73 C38        4.5384    8.5118   10.8316 C.ar      2 RES2    0.0000
     74 H28        3.7547    8.5904   11.3279 H         2 RES2    0.0000
     75 N5         6.0404    8.2018   13.7808 N.2       2 RES2    0.0000
     76 N6         5.8072    9.1079   12.8046 N.pl3     2 RES2    0.0000
     77 N7         6.0562    3.9068   13.2802 N.pl3     2 RES2    0.0000
     78 N8         7.4669    3.5678   17.9015 N.pl3     2 RES2    0.0000
     79 O5         5.8124    4.5154   12.2635 O.2       2 RES2    0.0000
     80 O6         5.9879    2.6891   13.3324 O.2       2 RES2    0.0000
     81 O7         7.4426    2.3565   17.7645 O.2       2 RES2    0.0000
     82 O8         7.7698    4.1152   18.9397 O.2       2 RES2    0.0000
@<TRIPOS>BOND
     1    1    2 ar
     2    2    3 ar
     3    3    4 1
     4    5    3 ar
     5    6    5 ar
     6    7    6 1
     7    8    1 ar
     8    9    8 1
     9   10    1 1
    10   11   10 1
    11   12   13 ar
    12   13   14 1
    13   15   13 ar
    14   16   15 1
    15   17   15 ar
    16   18   17 1
    17   19   17 ar
    18   20   19 1
    19   21   12 ar
    20   22   21 1
    21   23   24 ar
    22   24   25 1
    23   26   24 ar
    24   27   26 1
    25   28   26 ar
    26   29   28 1
    27   30   28 ar
    28   31   30 1
    29   32   23 ar
    30   33   32 1
    31   34   10 2
    32   35   12 1
    33   36    2 1
    34   37    5 1
    35   38   36 2
    36   39   36 2
    37   40   37 2
    38   41   37 2
    39   42   43 ar
    40   43   44 ar
    41   44   45 1
    42   46   44 ar
    43   47   46 ar
    44   48   47 1
    45   49   42 ar
    46   50   49 1
    47   51   42 1
    48   52   51 1
    49   53   54 ar
    50   54   55 1
    51   56   54 ar
    52   57   56 1
    53   58   56 ar
    54   59   58 1
    55   60   58 ar
    56   61   60 1
    57   62   53 ar
    58   63   62 1
    59   64   65 ar
    60   65   66 1
    61   67   65 ar
    62   68   67 1
    63   69   67 ar
    64   70   69 1
    65   71   69 ar
    66   72   71 1
    67   73   64 ar
    68   74   73 1
    69   75   51 2
    70   76   53 1
    71   77   43 1
    72   78   46 1
    73   79   77 2
    74   80   77 2
    75   81   78 2
    76   82   78 2
    77    6    8 ar
    78   19   21 ar
    79   23   35 1
    80   30   32 ar
    81   34   35 1
    82   47   49 ar
    83   60   62 ar
    84   64   76 1
    85   71   73 ar
    86   75   76 1
@<TRIPOS>SUBSTRUCTURE
     1 RES1 1
     2 RES2 42

@<TRIPOS>CRYSIN
   7.0288   13.5001   17.9271  91.8780  93.4310  91.5480   2 1

