# MOL2 file generated by ConQuest
# Please check atom types

@<TRIPOS>MOLECULE
AFONEQ
    64    70     1
SMALL
NO_CHARGES
****
Generated from CSD

@<TRIPOS>ATOM
      1 C1         6.9775   12.7726    4.7783 C.3       1 RES1    0.0000
      2 H1         7.8613   13.1139    4.6241 H         1 RES1    0.0000
      3 H2         6.3387   13.3108    4.3033 H         1 RES1    0.0000
      4 H3         6.9258   11.8655    4.4662 H         1 RES1    0.0000
      5 C2         7.3930   11.9848    6.9935 C.ar      1 RES1    0.0000
      6 C3         8.5591   11.3438    6.6561 C.ar      1 RES1    0.0000
      7 H4         8.9237   11.4503    5.8071 H         1 RES1    0.0000
      8 C4         9.1892   10.5350    7.5921 C.ar      1 RES1    0.0000
      9 H5         9.9975   10.1320    7.3723 H         1 RES1    0.0000
     10 C5         8.6443   10.3126    8.8451 C.ar      1 RES1    0.0000
     11 C6         7.4823   10.9896    9.1663 C.ar      1 RES1    0.0000
     12 H6         7.1067   10.8787   10.0102 H         1 RES1    0.0000
     13 C7         6.8724   11.8254    8.2579 C.ar      1 RES1    0.0000
     14 H7         6.1013   12.2856    8.5001 H         1 RES1    0.0000
     15 C8         9.3614    9.4046    9.8154 C.3       1 RES1    0.0000
     16 H8        10.3178    9.5712    9.6794 H         1 RES1    0.0000
     17 C9         9.1816    7.8819    9.7027 C.3       1 RES1    0.0000
     18 C10       10.1036    7.1595   10.7105 C.3       1 RES1    0.0000
     19 H9         9.5711    6.4397   11.1092 H         1 RES1    0.0000
     20 C11       10.5580    8.0436   11.8532 C.ar      1 RES1    0.0000
     21 C12       11.4702    7.5876   12.8020 C.ar      1 RES1    0.0000
     22 H10       11.8853    6.7643   12.6782 H         1 RES1    0.0000
     23 C13       11.7669    8.3344   13.9199 C.ar      1 RES1    0.0000
     24 H11       12.3980    8.0268   14.5303 H         1 RES1    0.0000
     25 C14       11.1317    9.5395   14.1358 C.ar      1 RES1    0.0000
     26 H12       11.3086   10.0259   14.9075 H         1 RES1    0.0000
     27 C15       10.2349   10.0221   13.2095 C.ar      1 RES1    0.0000
     28 H13        9.8107   10.8372   13.3486 H         1 RES1    0.0000
     29 C16        9.9702    9.2793   12.0632 C.ar      1 RES1    0.0000
     30 C17        9.6029    7.3468    8.3209 C.3       1 RES1    0.0000
     31 H14       10.2024    8.0104    7.9212 H         1 RES1    0.0000
     32 C18        8.5396    7.0197    7.2871 C.3       1 RES1    0.0000
     33 H15        8.0068    7.8070    7.0954 H         1 RES1    0.0000
     34 H16        7.9512    6.3244    7.6217 H         1 RES1    0.0000
     35 C19        9.2476    6.5458    6.0255 C.3       1 RES1    0.0000
     36 H17        8.5880    6.2676    5.3710 H         1 RES1    0.0000
     37 H18        9.7562    7.2792    5.6455 H         1 RES1    0.0000
     38 C20       10.1777    5.3909    6.3257 C.3       1 RES1    0.0000
     39 H19       10.6793    5.1694    5.5252 H         1 RES1    0.0000
     40 H20        9.6514    4.6144    6.5715 H         1 RES1    0.0000
     41 C21       11.1506    5.7133    7.4518 C.3       1 RES1    0.0000
     42 H21       11.6665    4.9227    7.6756 H         1 RES1    0.0000
     43 H22       11.7662    6.4068    7.1655 H         1 RES1    0.0000
     44 C22       11.1833    6.4752    9.8311 C.3       1 RES1    0.0000
     45 C23       11.8401    5.2618   10.4302 C.ar      1 RES1    0.0000
     46 C24       11.2955    4.0953   10.9201 C.ar      1 RES1    0.0000
     47 H23       10.3762    3.9538   10.8949 H         1 RES1    0.0000
     48 C25       12.1421    3.1370   11.4512 C.ar      1 RES1    0.0000
     49 H24       11.7867    2.3514   11.7997 H         1 RES1    0.0000
     50 C26       13.5065    3.3331   11.4702 C.ar      1 RES1    0.0000
     51 H25       14.0592    2.6713   11.8185 H         1 RES1    0.0000
     52 C27       14.0674    4.5013   10.9793 C.ar      1 RES1    0.0000
     53 H26       14.9870    4.6369   10.9939 H         1 RES1    0.0000
     54 C28       13.2144    5.4513   10.4701 C.ar      1 RES1    0.0000
     55 C29       12.4117    7.3983    9.5685 C.2       1 RES1    0.0000
     56 N1         7.7374    7.4527    9.9738 N.pl3     1 RES1    0.0000
     57 N2        10.4040    6.1668    8.6257 N.3       1 RES1    0.0000
     58 N3        13.5192    6.7177    9.9410 N.am      1 RES1    0.0000
     59 H27       14.3187    7.0249    9.8636 H         1 RES1    0.0000
     60 O1         6.6899   12.8127    6.1666 O.3       1 RES1    0.0000
     61 O2         9.0817    9.8207   11.1571 O.3       1 RES1    0.0000
     62 O3         6.8511    8.2492    9.8355 O.2       1 RES1    0.0000
     63 O4         7.5234    6.2923   10.2499 O.2       1 RES1    0.0000
     64 O5        12.3860    8.5143    9.0945 O.2       1 RES1    0.0000
@<TRIPOS>BOND
     1    1    2 1
     2    3    1 1
     3    4    1 1
     4    5    6 ar
     5    6    7 1
     6    8    6 ar
     7    9    8 1
     8   10    8 ar
     9   11   10 ar
    10   12   11 1
    11   13    5 ar
    12   14   13 1
    13   15   10 1
    14   16   15 1
    15   17   15 1
    16   18   17 1
    17   19   18 1
    18   20   18 1
    19   21   20 ar
    20   22   21 1
    21   23   21 ar
    22   24   23 1
    23   25   23 ar
    24   26   25 1
    25   27   25 ar
    26   28   27 1
    27   29   20 ar
    28   30   17 1
    29   31   30 1
    30   32   30 1
    31   33   32 1
    32   34   32 1
    33   35   32 1
    34   36   35 1
    35   37   35 1
    36   38   35 1
    37   39   38 1
    38   40   38 1
    39   41   38 1
    40   42   41 1
    41   43   41 1
    42   44   18 1
    43   45   44 1
    44   46   45 ar
    45   47   46 1
    46   48   46 ar
    47   49   48 1
    48   50   48 ar
    49   51   50 1
    50   52   50 ar
    51   53   52 1
    52   54   45 ar
    53   55   44 1
    54   56   17 1
    55   57   30 1
    56   58   54 1
    57   59   58 1
    58   60    1 1
    59   61   15 1
    60   62   56 2
    61   63   56 2
    62   64   55 2
    63    5   60 1
    64   11   13 ar
    65   27   29 ar
    66   29   61 1
    67   41   57 1
    68   44   57 1
    69   52   54 ar
    70   55   58 1
@<TRIPOS>SUBSTRUCTURE
     1 RES1 1

@<TRIPOS>CRYSIN
   9.3438   11.3626   13.5713  68.6870  88.2840  66.7570   2 1

