# MOL2 file generated by ConQuest
# Please check atom types

@<TRIPOS>MOLECULE
AFONOA
    28    29     1
SMALL
NO_CHARGES
****
Generated from CSD

@<TRIPOS>ATOM
      1 C1         7.2370    2.5569   -0.6289 C.ar      1 RES1    0.0000
      2 H1         7.5226    1.9622   -1.2857 H         1 RES1    0.0000
      3 N1         6.0864    3.8138   -2.3683 N.pl3     1 RES1    0.0000
      4 O1         5.2724    4.6893   -2.6363 O.2       1 RES1    0.0000
      5 N2         7.5138    3.0902    2.9670 N.pl3     1 RES1    0.0000
      6 H2         7.2302    3.6409    3.5646 H         1 RES1    0.0000
      7 H3         8.0101    2.4260    3.1956 H         1 RES1    0.0000
      8 C2         6.4458    3.6318   -0.9747 C.ar      1 RES1    0.0000
      9 O2         6.6095    3.0911   -3.2095 O.2       1 RES1    0.0000
     10 N3         8.4447    1.2990    1.0983 N.2       1 RES1    0.0000
     11 C3         6.0090    4.5301   -0.0174 C.ar      1 RES1    0.0000
     12 H4         5.4720    5.2510   -0.2588 H         1 RES1    0.0000
     13 C4         6.3721    4.3480    1.2787 C.ar      1 RES1    0.0000
     14 H5         6.0783    4.9527    1.9215 H         1 RES1    0.0000
     15 N4        10.5829   -3.2979    1.4876 N.ar      1 RES1    0.0000
     16 C5         7.1800    3.2695    1.6744 C.ar      1 RES1    0.0000
     17 C6         7.6077    2.3593    0.6800 C.ar      1 RES1    0.0000
     18 C7         8.3869    0.1976    0.4699 C.2       1 RES1    0.0000
     19 H6         7.7881    0.1290   -0.2379 H         1 RES1    0.0000
     20 C8         9.2056   -0.9642    0.7914 C.ar      1 RES1    0.0000
     21 C9        10.2611   -0.9377    1.6895 C.ar      1 RES1    0.0000
     22 H7        10.5289   -0.1354    2.0759 H         1 RES1    0.0000
     23 C10       10.9039   -2.1050    2.0016 C.ar      1 RES1    0.0000
     24 H8        11.6090   -2.0656    2.6073 H         1 RES1    0.0000
     25 C11        9.5855   -3.3152    0.6069 C.ar      1 RES1    0.0000
     26 H9         9.3456   -4.1285    0.2251 H         1 RES1    0.0000
     27 C12        8.8930   -2.1909    0.2332 C.ar      1 RES1    0.0000
     28 H10        8.2118   -2.2541   -0.3957 H         1 RES1    0.0000
@<TRIPOS>BOND
     1    1    2 1
     2    3    4 2
     3    5    6 1
     4    7    5 1
     5    8    1 ar
     6    9    3 2
     7   10   17 1
     8   11    8 ar
     9   12   11 1
    10   13   11 ar
    11   14   13 1
    12   15   23 ar
    13   16    5 1
    14   17    1 ar
    15   18   10 2
    16   19   18 1
    17   20   18 1
    18   21   20 ar
    19   22   21 1
    20   23   21 ar
    21   24   23 1
    22   25   15 ar
    23   26   25 1
    24   27   20 ar
    25   28   27 1
    26    3    8 1
    27   13   16 ar
    28   16   17 ar
    29   25   27 ar
@<TRIPOS>SUBSTRUCTURE
     1 RES1 1

@<TRIPOS>CRYSIN
  21.3240    9.1480   12.9500  90.0000 116.3600  90.0000  15 1

