# MOL2 file generated by ConQuest
# Please check atom types

@<TRIPOS>MOLECULE
AFOPUI
    33    34     1
SMALL
NO_CHARGES
****
Generated from CSD

@<TRIPOS>ATOM
      1 O1         2.5410    4.1296    3.2626 O.3       1 RES1    0.0000
      2 H1         2.5415    3.5347    3.8264 H         1 RES1    0.0000
      3 O2         0.2280    1.0422   -1.6521 O.2       1 RES1    0.0000
      4 N1         2.2067    1.7658    4.2631 N.2       1 RES1    0.0000
      5 N2         0.6255    2.2084   -1.5643 N.pl3     1 RES1    0.0000
      6 C1         2.0961    1.2918    6.6361 C.ar      1 RES1    0.0000
      7 O3         0.6356    2.9289   -2.5417 O.2       1 RES1    0.0000
      8 C2         1.6626    2.2885    2.0010 C.ar      1 RES1    0.0000
      9 C3         1.7460    1.3812    3.1447 C.2       1 RES1    0.0000
     10 H2         1.4547    0.5038    3.0523 H         1 RES1    0.0000
     11 C4         2.9283   -1.3389    6.1693 C.ar      1 RES1    0.0000
     12 H3         3.1968   -2.2147    6.0076 H         1 RES1    0.0000
     13 C5         2.6785   -0.9308    7.4586 C.ar      1 RES1    0.0000
     14 H4         2.7704   -1.5178    8.1726 H         1 RES1    0.0000
     15 C6         1.1368    2.6793   -0.2911 C.ar      1 RES1    0.0000
     16 C7         1.2008    1.8411    0.7833 C.ar      1 RES1    0.0000
     17 H5         0.9286    0.9575    0.6909 H         1 RES1    0.0000
     18 C8         2.2891    0.3736    7.6573 C.ar      1 RES1    0.0000
     19 O4         2.5783    1.8396    9.4319 O.2       1 RES1    0.0000
     20 N3         2.0778    0.7864    9.0529 N.pl3     1 RES1    0.0000
     21 C9         1.5229    4.0339   -0.1895 C.ar      1 RES1    0.0000
     22 H6         1.4705    4.6036   -0.9242 H         1 RES1    0.0000
     23 C10        2.0649    3.6493    2.1073 C.ar      1 RES1    0.0000
     24 C11        2.7841   -0.4615    5.1180 C.ar      1 RES1    0.0000
     25 H7         2.9826   -0.7409    4.2515 H         1 RES1    0.0000
     26 C12        1.9713    4.4781    1.0074 C.ar      1 RES1    0.0000
     27 H8         2.2245    5.3696    1.0906 H         1 RES1    0.0000
     28 O5         1.4719    0.0439    9.8039 O.2       1 RES1    0.0000
     29 C13        2.3436    0.8350    5.3421 C.ar      1 RES1    0.0000
     30 C14        1.6053    2.7217    6.8602 C.3       1 RES1    0.0000
     31 H9         1.5449    3.1753    6.0168 H         1 RES1    0.0000
     32 H10        2.2225    3.1847    7.4309 H         1 RES1    0.0000
     33 H11        0.7398    2.6997    7.2761 H         1 RES1    0.0000
@<TRIPOS>BOND
     1    1    2 1
     2    3    5 2
     3    4    9 2
     4    5    7 2
     5    6   18 ar
     6    8    9 1
     7    9   10 1
     8   11   12 1
     9   13   11 ar
    10   14   13 1
    11   15    5 1
    12   16    8 ar
    13   17   16 1
    14   18   13 ar
    15   19   20 2
    16   20   18 1
    17   21   15 ar
    18   22   21 1
    19   23    1 1
    20   24   11 ar
    21   25   24 1
    22   26   21 ar
    23   27   26 1
    24   28   20 2
    25   29    4 1
    26   30    6 1
    27   31   30 1
    28   32   30 1
    29   33   30 1
    30    6   29 ar
    31    8   23 ar
    32   15   16 ar
    33   23   26 ar
    34   24   29 ar
@<TRIPOS>SUBSTRUCTURE
     1 RES1 1

@<TRIPOS>CRYSIN
   3.7540   15.6960   23.1490  90.0000  93.4910  90.0000  14 1

