# MOL2 file generated by ConQuest
# Please check atom types

@<TRIPOS>MOLECULE
AGAFUL
    74    79     1
SMALL
USER_CHARGES
****
Generated from CSD

@<TRIPOS>ATOM
      1 N1         2.4432    1.8830    2.4443 N.3       1 RES1    0.0000
      2 O1         1.2916    2.8208    4.8695 O.2       1 RES1    0.0000
      3 N2         5.0167   -1.5823    4.3346 N.3       1 RES1    0.0000
      4 C1         3.4389   -0.2566    2.9844 C.2       1 RES1    0.0000
      5 C2         1.5235    0.5656    4.2578 C.2       1 RES1    0.0000
      6 C3         6.4142    0.3570    3.4822 C.ar      1 RES1    0.0000
      7 O2         0.4499    1.3000    6.1454 O.2       1 RES1    0.0000
      8 C4         1.1846    2.6091    2.1577 C.3       1 RES1    0.0000
      9 H1         1.2187    3.4790    2.5838 H         1 RES1    0.0000
     10 H2         0.4429    2.1186    2.5467 H         1 RES1    0.0000
     11 C5         6.2524    1.2007    4.5419 C.ar      1 RES1    0.0000
     12 H3         5.9507    0.8768    5.3597 H         1 RES1    0.0000
     13 C6         6.2313   -1.1300    3.6064 C.3       1 RES1    0.0000
     14 H4         6.2080   -1.5101    2.7131 H         1 RES1    0.0000
     15 H5         7.0088   -1.4959    4.0569 H         1 RES1    0.0000
     16 C7         2.4541    0.7849    3.2096 C.2       1 RES1    0.0000
     17 C8         3.6458    2.4165    1.7738 C.3       1 RES1    0.0000
     18 H6         3.5473    2.3082    0.8139 H         1 RES1    0.0000
     19 H7         4.4191    1.9026    2.0527 H         1 RES1    0.0000
     20 C9         3.8111   -1.1486    4.0517 C.2       1 RES1    0.0000
     21 C10        0.9277    2.7956    0.6744 C.ar      1 RES1    0.0000
     22 N3         3.7441   -0.7209    1.6739 N.pl3     1 RES1    0.0000
     23 C11        1.5082   -0.7287    4.8222 C.2       1 RES1    0.0000
     24 O3         4.3690   -1.7780    1.5600 O.2       1 RES1    0.0000
     25 O4         3.2849   -0.1051    0.7128 O.2       1 RES1    0.0000
     26 C12        5.3141   -2.5236    5.4275 C.3       1 RES1    0.0000
     27 H8         4.4897   -2.7661    5.8754 H         1 RES1    0.0000
     28 H9         5.8907   -2.0896    6.0750 H         1 RES1    0.0000
     29 C13        6.8618    0.8316    2.2818 C.ar      1 RES1    0.0000
     30 H10        6.9683    0.2519    1.5626 H         1 RES1    0.0000
     31 O5         1.0786   -2.7632    5.6783 O.3       1 RES1    0.0000
     32 C14        5.9845   -3.7627    4.9169 C.ar      1 RES1    0.0000
     33 C15        0.8825    4.0394    0.1177 C.ar      1 RES1    0.0000
     34 H11        1.0305    4.7874    0.6488 H         1 RES1    0.0000
     35 C16        7.1550    2.1701    2.1372 C.ar      1 RES1    0.0000
     36 H12        7.4561    2.4925    1.3182 H         1 RES1    0.0000
     37 O6        -0.6371   -1.2740    5.5695 O.2       1 RES1   -1.0000
     38 C17        6.5417    2.5330    4.3883 C.ar      1 RES1    0.0000
     39 H13        6.4197    3.1145    5.1024 H         1 RES1    0.0000
     40 C18        7.0104    3.0216    3.1828 C.ar      1 RES1    0.0000
     41 H14        7.2233    3.9223    3.0906 H         1 RES1    0.0000
     42 C19        0.3709    1.8789   -1.4564 C.ar      1 RES1    0.0000
     43 H15        0.1752    1.1397   -1.9862 H         1 RES1    0.0000
     44 C20        3.8772    3.8577    2.0822 C.ar      1 RES1    0.0000
     45 C21        4.2825    4.6923    1.0622 C.ar      1 RES1    0.0000
     46 H16        4.3522    4.3730    0.1920 H         1 RES1    0.0000
     47 C22        4.5920    6.0413    1.3604 C.ar      1 RES1    0.0000
     48 H17        4.8826    6.6112    0.6860 H         1 RES1    0.0000
     49 C23        3.7768    4.3618    3.3517 C.ar      1 RES1    0.0000
     50 H18        3.5025    3.8000    4.0402 H         1 RES1    0.0000
     51 C24        0.6635    1.7098   -0.1088 C.ar      1 RES1    0.0000
     52 H19        0.6792    0.8559    0.2585 H         1 RES1    0.0000
     53 N4         2.4018   -2.8279    5.2522 N.2       1 RES1    0.0000
     54 C25        2.6297   -1.5601    4.7825 C.2       1 RES1    0.0000
     55 C26        0.3708    3.1070   -1.9939 C.ar      1 RES1    0.0000
     56 H20        0.1991    3.2165   -2.9012 H         1 RES1    0.0000
     57 C27        0.6217    4.1974   -1.2132 C.ar      1 RES1    0.0000
     58 H21        0.6150    5.0491   -1.5869 H         1 RES1    0.0000
     59 C28        4.4621    6.5024    2.6376 C.ar      1 RES1    0.0000
     60 H22        4.6434    7.3944    2.8270 H         1 RES1    0.0000
     61 C29        4.0677    5.6645    3.6332 C.ar      1 RES1    0.0000
     62 H23        3.9971    5.9793    4.5060 H         1 RES1    0.0000
     63 C30        7.1596   -6.0938    4.0517 C.ar      1 RES1    0.0000
     64 H24        7.5337   -6.8978    3.7689 H         1 RES1    0.0000
     65 C31        6.0833   -5.5756    3.3939 C.ar      1 RES1    0.0000
     66 H25        5.7450   -6.0122    2.6453 H         1 RES1    0.0000
     67 C32        7.0952   -4.2541    5.5555 C.ar      1 RES1    0.0000
     68 H26        7.4551   -3.7961    6.2811 H         1 RES1    0.0000
     69 C33        5.5025   -4.4279    3.8265 C.ar      1 RES1    0.0000
     70 H27        4.7656   -4.0883    3.3722 H         1 RES1    0.0000
     71 C34        7.6877   -5.4429    5.1178 C.ar      1 RES1    0.0000
     72 H28        8.4352   -5.7841    5.5516 H         1 RES1    0.0000
     73 N5         1.0723    1.6427    5.0947 N.pl3     1 RES1    0.0000
     74 N6         0.5352   -1.4262    5.3494 N.pl3     1 RES1    1.0000
@<TRIPOS>BOND
     1    1    8 1
     2    2   73 2
     3    3   13 1
     4    4   16 1
     5    5   16 2
     6    6   11 ar
     7    7   73 2
     8    8    9 1
     9   10    8 1
    10   11   12 1
    11   13    6 1
    12   14   13 1
    13   15   13 1
    14   16    1 1
    15   17    1 1
    16   18   17 1
    17   19   17 1
    18   20    3 1
    19   21    8 1
    20   22    4 1
    21   23    5 1
    22   24   22 2
    23   25   22 2
    24   26    3 1
    25   27   26 1
    26   28   26 1
    27   29    6 ar
    28   30   29 1
    29   31   53 1
    30   32   26 1
    31   33   21 ar
    32   34   33 1
    33   35   29 ar
    34   36   35 1
    35   37   74 1
    36   38   11 ar
    37   39   38 1
    38   40   35 ar
    39   41   40 1
    40   42   43 1
    41   44   17 1
    42   45   44 ar
    43   46   45 1
    44   47   45 ar
    45   48   47 1
    46   49   44 ar
    47   50   49 1
    48   51   21 ar
    49   52   51 1
    50   53   54 2
    51   54   20 1
    52   55   42 ar
    53   56   55 1
    54   57   33 ar
    55   58   57 1
    56   59   47 ar
    57   60   59 1
    58   61   49 ar
    59   62   61 1
    60   63   64 1
    61   65   63 ar
    62   66   65 1
    63   67   32 ar
    64   68   67 1
    65   69   32 ar
    66   70   69 1
    67   71   63 ar
    68   72   71 1
    69   73    5 1
    70   74   23 2
    71    4   20 2
    72   23   54 1
    73   31   74 1
    74   38   40 ar
    75   42   51 ar
    76   55   57 ar
    77   59   61 ar
    78   65   69 ar
    79   67   71 ar
@<TRIPOS>SUBSTRUCTURE
     1 RES1 1

@<TRIPOS>CRYSIN
   9.5480   12.4650   13.6080  79.5150  71.6090  79.4890   2 1

