# MOL2 file generated by ConQuest
# Please check atom types

@<TRIPOS>MOLECULE
AGAFOF
    69    64     2
SMALL
NO_CHARGES
****
Generated from CSD

@<TRIPOS>ATOM
      1 C1         5.7362    1.1055    5.9293 C.2       1 RES1    0.0000
      2 C2         5.7238    0.6313    4.5404 C.2       1 RES1    0.0000
      3 C3         6.8689    1.1076    3.8284 C.2       1 RES1    0.0000
      4 C4         7.4315    2.4234    4.0750 C.2       1 RES1    0.0000
      5 C5         7.2311    2.9941    5.3539 C.2       1 RES1    0.0000
      6 C6         6.4994    2.2416    6.3161 C.2       1 RES1    0.0000
      7 C7         3.7197   -0.7991    4.8414 C.3       1 RES1    0.0000
      8 H1         2.8451   -0.4523    4.6056 H         1 RES1    0.0000
      9 H2         3.8709   -0.6176    5.7818 H         1 RES1    0.0000
     10 C8         3.7430   -2.2758    4.6141 C.ar      1 RES1    0.0000
     11 C9         2.6405   -2.9135    4.1390 C.ar      1 RES1    0.0000
     12 H3         1.8764   -2.4221    3.9359 H         1 RES1    0.0000
     13 C10        2.6414   -4.2796    3.9565 C.ar      1 RES1    0.0000
     14 H4         1.8859   -4.7026    3.6168 H         1 RES1    0.0000
     15 C11        3.7273   -4.9988    4.2647 C.ar      1 RES1    0.0000
     16 H5         3.7271   -5.9211    4.1535 H         1 RES1    0.0000
     17 C12        4.8215   -4.3691    4.7398 C.ar      1 RES1    0.0000
     18 H6         5.5775   -4.8661    4.9562 H         1 RES1    0.0000
     19 C13        4.8354   -3.0055    4.9066 C.ar      1 RES1    0.0000
     20 H7         5.6024   -2.5852    5.2233 H         1 RES1    0.0000
     21 C14        4.5602   -0.3292    2.5857 C.3       1 RES1    0.0000
     22 H8         3.6599   -0.6625    2.4491 H         1 RES1    0.0000
     23 H9         5.1741   -1.0234    2.2968 H         1 RES1    0.0000
     24 C15        4.7591    0.8777    1.6972 C.ar      1 RES1    0.0000
     25 C16        5.3601    0.7288    0.4654 C.ar      1 RES1    0.0000
     26 H10        5.7231   -0.0929    0.2261 H         1 RES1    0.0000
     27 C17        5.4271    1.7954   -0.4207 C.ar      1 RES1    0.0000
     28 H11        5.8411    1.6877   -1.2451 H         1 RES1    0.0000
     29 C18        4.8880    2.9948   -0.0846 C.ar      1 RES1    0.0000
     30 H12        4.9191    3.7009   -0.6878 H         1 RES1    0.0000
     31 C19        4.2951    3.1688    1.1448 C.ar      1 RES1    0.0000
     32 H13        3.9473    3.9983    1.3793 H         1 RES1    0.0000
     33 C20        4.2182    2.1075    2.0333 C.ar      1 RES1    0.0000
     34 H14        3.8016    2.2226    2.8565 H         1 RES1    0.0000
     35 C21        8.1014    2.7922    1.6972 C.3       1 RES1    0.0000
     36 H15        7.3002    2.3032    1.4518 H         1 RES1    0.0000
     37 H16        8.8644    2.2205    1.5147 H         1 RES1    0.0000
     38 C22        8.1995    4.0158    0.8559 C.ar      1 RES1    0.0000
     39 C23        8.5079    3.8761   -0.4606 C.ar      1 RES1    0.0000
     40 H17        8.3572    3.0168   -0.7809 H         1 RES1    0.0000
     41 C24        8.9685    4.6774   -1.3660 C.ar      1 RES1    0.0000
     42 H18        9.1420    4.4270   -2.2424 H         1 RES1    0.0000
     43 C25        9.1569    5.9294   -0.8909 C.ar      1 RES1    0.0000
     44 H19        9.3853    6.6019   -1.4905 H         1 RES1    0.0000
     45 C26        9.0265    6.2493    0.4303 C.ar      1 RES1    0.0000
     46 H20        9.2170    7.1038    0.7446 H         1 RES1    0.0000
     47 C27        8.5815    5.2160    1.3055 C.ar      1 RES1    0.0000
     48 H21        8.5600    5.3816    2.2206 H         1 RES1    0.0000
     49 N1         6.3748    2.4289    7.6096 N.2       1 RES1    0.0000
     50 N2         5.1654    0.5883    6.9846 N.2       1 RES1    0.0000
     51 N3         7.6494    0.1375    3.1587 N.pl3     1 RES1    0.0000
     52 N4         7.7008    4.2691    5.6948 N.pl3     1 RES1    0.0000
     53 N5         4.7582   -0.1080    4.0339 N.3       1 RES1    0.0000
     54 N6         8.0605    3.0853    3.1164 N.3       1 RES1    0.0000
     55 O1         5.5546    1.3842    8.0301 O.3       1 RES1    0.0000
     56 O2         7.2112   -1.0248    3.0402 O.2       1 RES1    0.0000
     57 O3         8.8000    0.4158    2.8154 O.2       1 RES1    0.0000
     58 O4         8.3297    4.9578    4.8692 O.2       1 RES1    0.0000
     59 O5         7.4828    4.6891    6.8480 O.2       1 RES1    0.0000
     60 H22        8.4636    3.8530    3.4089 H         1 RES1    0.0000
     61 H23        8.8607    3.0944   -0.8184 Du        2 SUP2    0.0000
     62 C28        8.1974    5.1323   -1.2983 Du        2 SUP2    0.0000
     63 H24        8.4612    5.1224   -2.1892 Du        2 SUP2    0.0000
     64 H25        6.7948    7.0916    0.7785 Du        2 SUP2    0.0000
     65 C29        7.5617    6.2355   -0.8401 Du        2 SUP2    0.0000
     66 H26        7.3969    6.9464   -1.4167 Du        2 SUP2    0.0000
     67 C30        7.3381    5.1915    1.2814 Du        2 SUP2    0.0000
     68 H27        6.9134    5.1722    2.1082 Du        2 SUP2    0.0000
     69 C31        7.1707    6.3100    0.4461 Du        2 SUP2    0.0000
@<TRIPOS>BOND
     1    1    2 1
     2    2    3 2
     3    3    4 1
     4    4    5 2
     5    5    6 1
     6    6    1 1
     7    7    8 1
     8    9    7 1
     9   10    7 1
    10   11   10 ar
    11   12   11 1
    12   13   11 ar
    13   14   13 1
    14   15   13 ar
    15   16   15 1
    16   17   15 ar
    17   18   17 1
    18   19   10 ar
    19   20   19 1
    20   21   22 1
    21   23   21 1
    22   24   21 1
    23   25   24 ar
    24   26   25 1
    25   27   25 ar
    26   28   27 1
    27   29   27 ar
    28   30   29 1
    29   31   29 ar
    30   32   31 1
    31   33   24 ar
    32   34   33 1
    33   35   36 1
    34   37   35 1
    35   38   35 1
    36   39   38 ar
    37   40   39 1
    38   41   39 ar
    39   42   41 1
    40   43   41 ar
    41   44   43 1
    42   45   43 ar
    43   46   45 1
    44   47   38 ar
    45   48   47 1
    46   49    6 2
    47   50    1 2
    48   51    3 1
    49   52    5 1
    50   53    2 1
    51   54    4 1
    52   55   49 1
    53   56   51 2
    54   57   51 2
    55   58   52 2
    56   59   52 2
    57   60   54 1
    58    7   53 1
    59   17   19 ar
    60   21   53 1
    61   31   33 ar
    62   35   54 1
    63   45   47 ar
    64   50   55 1
@<TRIPOS>SUBSTRUCTURE
     1 RES1 1
     2 SUP2 61

@<TRIPOS>CRYSIN
   7.5913   13.4630   13.7950 114.5250  99.5120 100.4510   2 1

