# MOL2 file generated by ConQuest
# Please check atom types

@<TRIPOS>MOLECULE
AGAXEN
    28    29     1
SMALL
NO_CHARGES
****
Generated from CSD

@<TRIPOS>ATOM
      1 O1         2.7139    6.5775   12.1957 O.2       1 RES1    0.0000
      2 O2         3.4833    9.5530    4.0502 O.2       1 RES1    0.0000
      3 O3         4.2191    7.8811    2.9050 O.2       1 RES1    0.0000
      4 N1         2.4419    6.0040    9.9719 N.am      1 RES1    0.0000
      5 H1         2.7994    6.7167    9.5992 H         1 RES1    0.0000
      6 N2         0.9091    3.6860   13.7960 N.1       1 RES1    0.0000
      7 N3         3.6543    8.3439    3.8848 N.pl3     1 RES1    0.0000
      8 C1         2.3180    5.8224   11.3083 C.2       1 RES1    0.0000
      9 C2         1.6350    4.5180   11.4739 C.2       1 RES1    0.0000
     10 C3         1.4430    3.9570   10.2627 C.2       1 RES1    0.0000
     11 C4         1.9273    4.9092    9.2525 C.2       1 RES1    0.0000
     12 C5         1.2516    4.0300   12.7541 C.1       1 RES1    0.0000
     13 C6         0.8531    2.6209    9.9490 C.3       1 RES1    0.0000
     14 H2         0.1593    2.7228    9.2646 H         1 RES1    0.0000
     15 H3         0.4576    2.2394   10.7608 H         1 RES1    0.0000
     16 H4         1.5552    2.0231    9.6165 H         1 RES1    0.0000
     17 C7         1.8923    4.7452    7.9262 C.2       1 RES1    0.0000
     18 H5         1.5499    3.9148    7.6150 H         1 RES1    0.0000
     19 C8         2.3202    5.6959    6.8928 C.ar      1 RES1    0.0000
     20 C9         2.2052    7.0858    7.0645 C.ar      1 RES1    0.0000
     21 H6         1.8317    7.4313    7.8677 H         1 RES1    0.0000
     22 C10        2.6289    7.9554    6.0802 C.ar      1 RES1    0.0000
     23 H7         2.5495    8.8949    6.1944 H         1 RES1    0.0000
     24 C11        3.1718    7.4289    4.9246 C.ar      1 RES1    0.0000
     25 C12        3.2727    6.0613    4.6960 C.ar      1 RES1    0.0000
     26 H8         3.6349    5.7260    3.8842 H         1 RES1    0.0000
     27 C13        2.8296    5.2056    5.6868 C.ar      1 RES1    0.0000
     28 H9         2.8718    4.2669    5.5467 H         1 RES1    0.0000
@<TRIPOS>BOND
     1    1    8 2
     2    2    7 2
     3    3    7 2
     4    4    5 1
     5    6   12 3
     6    7   24 1
     7    8    4 1
     8    9    8 1
     9   10    9 2
    10   11    4 1
    11   12    9 1
    12   13   10 1
    13   14   13 1
    14   15   13 1
    15   16   13 1
    16   17   11 2
    17   18   17 1
    18   19   17 1
    19   20   19 ar
    20   21   20 1
    21   22   20 ar
    22   23   22 1
    23   24   22 ar
    24   25   24 ar
    25   26   25 1
    26   27   19 ar
    27   28   27 1
    28   10   11 1
    29   25   27 ar
@<TRIPOS>SUBSTRUCTURE
     1 RES1 1

@<TRIPOS>CRYSIN
   3.7456   14.9193   21.6077  90.0000  92.2730  90.0000  14 1

