# MOL2 file generated by ConQuest
# Please check atom types

@<TRIPOS>MOLECULE
AGAXOX
    56    58     2
SMALL
NO_CHARGES
****
Generated from CSD

@<TRIPOS>ATOM
      1 O1         1.5900   -1.9237   11.3286 O.2       1 RES1    0.0000
      2 O2         5.9547    2.5868    7.3708 O.2       1 RES1    0.0000
      3 O3         4.8742    2.5348    5.5087 O.2       1 RES1    0.0000
      4 N1         3.1364   -0.4815   10.3638 N.am      1 RES1    0.0000
      5 N2         1.4445   -1.1676    9.1388 N.am      1 RES1    0.0000
      6 N3         5.0239    2.1971    6.6718 N.pl3     1 RES1    0.0000
      7 C1         2.0081   -1.2631   10.4040 C.2       1 RES1    0.0000
      8 C2         3.2741    0.0900    9.1182 C.ar      1 RES1    0.0000
      9 C3         2.2052   -0.3561    8.3347 C.ar      1 RES1    0.0000
     10 C4         4.2340    0.9339    8.6013 C.ar      1 RES1    0.0000
     11 H1         4.9664    1.2461    9.1196 H         1 RES1    0.0000
     12 C5         2.0473    0.0192    7.0064 C.ar      1 RES1    0.0000
     13 H2         1.3165   -0.2913    6.4849 H         1 RES1    0.0000
     14 C6         4.0569    1.2973    7.2733 C.ar      1 RES1    0.0000
     15 C7         3.0076    0.8678    6.4755 C.ar      1 RES1    0.0000
     16 H3         2.9465    1.1531    5.5704 H         1 RES1    0.0000
     17 C8         4.0105   -0.3019   11.5201 C.3       1 RES1    0.0000
     18 H4         3.5796   -0.6930   12.3191 H         1 RES1    0.0000
     19 H5         4.1404    0.6657   11.6855 H         1 RES1    0.0000
     20 C9         5.3149   -0.9361   11.3151 C.1       1 RES1    0.0000
     21 C10        6.3617   -1.4499   11.1703 C.1       1 RES1    0.0000
     22 H6         7.2074   -1.8653   11.0519 H         1 RES1    0.0000
     23 C11        0.2191   -1.8713    8.7853 C.3       1 RES1    0.0000
     24 H7         0.3497   -2.3267    7.9155 H         1 RES1    0.0000
     25 H8         0.0402   -2.5664    9.4665 H         1 RES1    0.0000
     26 C12       -0.9358   -0.9932    8.6907 C.1       1 RES1    0.0000
     27 C13       -1.8816   -0.3006    8.5806 C.1       1 RES1    0.0000
     28 H9        -2.6450    0.2580    8.4918 H         1 RES1    0.0000
     29 O4         6.5446    2.0363   -0.3271 O.2       2 RES2    0.0000
     30 O5        10.9273   -2.4141    3.6860 O.2       2 RES2    0.0000
     31 O6         9.8703   -2.3016    5.5540 O.2       2 RES2    0.0000
     32 N4         8.1024    0.6192    0.6459 N.am      2 RES2    0.0000
     33 N5         6.3874    1.2849    1.8641 N.am      2 RES2    0.0000
     34 N6        10.0128   -2.0107    4.3714 N.pl3     2 RES2    0.0000
     35 C14        6.9614    1.3800    0.6106 C.2       2 RES2    0.0000
     36 C15        8.2552    0.0554    1.9073 C.ar      2 RES2    0.0000
     37 C16        7.1620    0.4921    2.6757 C.ar      2 RES2    0.0000
     38 C17        9.2107   -0.7676    2.4306 C.ar      2 RES2    0.0000
     39 H10        9.9489   -1.0776    1.9180 H         2 RES2    0.0000
     40 C18        7.0173    0.1245    4.0008 C.ar      2 RES2    0.0000
     41 H11        6.2789    0.4311    4.5125 H         2 RES2    0.0000
     42 C19        9.0290   -1.1224    3.7683 C.ar      2 RES2    0.0000
     43 C20        7.9688   -0.6955    4.5575 C.ar      2 RES2    0.0000
     44 H12        7.9028   -0.9655    5.4672 H         2 RES2    0.0000
     45 C21        8.9954    0.4478   -0.4937 C.3       2 RES2    0.0000
     46 H13        9.1168   -0.5190   -0.6709 H         2 RES2    0.0000
     47 H14        8.5822    0.8542   -1.2958 H         2 RES2    0.0000
     48 C22       10.2978    1.0602   -0.2632 C.1       2 RES2    0.0000
     49 C23       11.3434    1.5685   -0.0889 C.1       2 RES2    0.0000
     50 H15       12.1879    1.9796    0.0516 H         2 RES2    0.0000
     51 C24        5.1654    1.9693    2.2193 C.3       2 RES2    0.0000
     52 H16        4.9423    2.6248    1.5109 H         2 RES2    0.0000
     53 H17        5.3061    2.4696    3.0618 H         2 RES2    0.0000
     54 C25        4.0332    1.0448    2.3921 C.1       2 RES2    0.0000
     55 C26        3.1276    0.3271    2.5802 C.1       2 RES2    0.0000
     56 H18        2.3918   -0.2550    2.7322 H         2 RES2    0.0000
@<TRIPOS>BOND
     1    1    7 2
     2    2    6 2
     3    3    6 2
     4    4    7 1
     5    5    7 1
     6    6   14 1
     7    8    4 1
     8    9    5 1
     9   10    8 ar
    10   11   10 1
    11   12    9 ar
    12   13   12 1
    13   14   10 ar
    14   15   12 ar
    15   16   15 1
    16   17    4 1
    17   18   17 1
    18   19   17 1
    19   20   17 1
    20   21   20 3
    21   22   21 1
    22   23    5 1
    23   24   23 1
    24   25   23 1
    25   26   23 1
    26   27   26 3
    27   28   27 1
    28   29   35 2
    29   30   34 2
    30   31   34 2
    31   32   35 1
    32   33   35 1
    33   34   42 1
    34   36   32 1
    35   37   33 1
    36   38   36 ar
    37   39   38 1
    38   40   37 ar
    39   41   40 1
    40   42   38 ar
    41   43   40 ar
    42   44   43 1
    43   45   32 1
    44   46   45 1
    45   47   45 1
    46   48   45 1
    47   49   48 3
    48   50   49 1
    49   51   33 1
    50   52   51 1
    51   53   51 1
    52   54   51 1
    53   55   54 3
    54   56   55 1
    55    8    9 ar
    56   14   15 ar
    57   36   37 ar
    58   42   43 ar
@<TRIPOS>SUBSTRUCTURE
     1 RES1 1
     2 RES2 29

@<TRIPOS>CRYSIN
  20.0988    4.2645   28.6690  90.0000  90.0000  90.0000  29 1

