# MOL2 file generated by ConQuest
# Please check atom types

@<TRIPOS>MOLECULE
AGETIR
   118   126     2
SMALL
NO_CHARGES
****
Generated from CSD

@<TRIPOS>ATOM
      1 O1         0.8468    3.3883   -2.7460 O.2       1 RES1    0.0000
      2 O2         0.8738    3.8304   -0.6430 O.2       1 RES1    0.0000
      3 N1         1.4248    3.6205   -1.7042 N.pl3     1 RES1    0.0000
      4 N2         2.8000    6.0393   -1.1560 N.pl3     1 RES1    0.0000
      5 N3         3.1338    5.7013    1.0828 N.ar      1 RES1    0.0000
      6 N4         3.5050    5.1330    3.2855 N.pl3     1 RES1    0.0000
      7 N5         3.3275    2.8480    2.7538 N.ar      1 RES1    0.0000
      8 N6         2.9778    0.5917    2.1772 N.pl3     1 RES1    0.0000
      9 N7         2.8489    0.8708   -0.1156 N.ar      1 RES1    0.0000
     10 N8         2.8779    1.2805   -2.3646 N.pl3     1 RES1    0.0000
     11 C1         2.9074    3.6599   -1.7325 C.ar      1 RES1    0.0000
     12 C2         3.5843    2.4903   -2.0705 C.ar      1 RES1    0.0000
     13 C3         4.9668    2.5332   -2.0673 C.ar      1 RES1    0.0000
     14 H1         5.4613    1.7544   -2.2942 H         1 RES1    0.0000
     15 C4         5.6367    3.6959   -1.7368 C.ar      1 RES1    0.0000
     16 H2         6.5867    3.7070   -1.7286 H         1 RES1    0.0000
     17 C5         4.9285    4.8558   -1.4133 C.ar      1 RES1    0.0000
     18 H3         5.3989    5.6527   -1.1948 H         1 RES1    0.0000
     19 C6         3.5375    4.8489   -1.4087 C.ar      1 RES1    0.0000
     20 C7         2.0981    6.6796   -2.2709 C.3       1 RES1    0.0000
     21 H4         2.4340    7.5928   -2.3862 H         1 RES1    0.0000
     22 H5         1.1375    6.7073   -2.0786 H         1 RES1    0.0000
     23 H6         2.2540    6.1682   -3.0932 H         1 RES1    0.0000
     24 C8         2.5979    6.4689    0.1488 C.ar      1 RES1    0.0000
     25 C9         1.8618    7.6288    0.4468 C.ar      1 RES1    0.0000
     26 H7         1.5091    8.1818   -0.2404 H         1 RES1    0.0000
     27 C10        1.6764    7.9240    1.7742 C.ar      1 RES1    0.0000
     28 H8         1.1805    8.6987    2.0114 H         1 RES1    0.0000
     29 C11        2.1937    7.1258    2.7640 C.ar      1 RES1    0.0000
     30 H9         2.0526    7.3267    3.6835 H         1 RES1    0.0000
     31 C12        2.9375    6.0033    2.3706 C.ar      1 RES1    0.0000
     32 C13        2.8923    5.0069    4.6132 C.3       1 RES1    0.0000
     33 H10        1.9795    4.6618    4.5213 H         1 RES1    0.0000
     34 H11        2.8666    5.8855    5.0445 H         1 RES1    0.0000
     35 H12        3.4212    4.3888    5.1612 H         1 RES1    0.0000
     36 C14        4.0918    3.9454    2.7450 C.ar      1 RES1    0.0000
     37 C15        5.3703    3.9786    2.2331 C.ar      1 RES1    0.0000
     38 H13        5.8909    4.7727    2.2695 H         1 RES1    0.0000
     39 C16        5.8758    2.8187    1.6639 C.ar      1 RES1    0.0000
     40 H14        6.7497    2.8076    1.2903 H         1 RES1    0.0000
     41 C17        5.1023    1.6879    1.6459 C.ar      1 RES1    0.0000
     42 H15        5.4298    0.8814    1.2655 H         1 RES1    0.0000
     43 C18        3.8212    1.7447    2.1984 C.ar      1 RES1    0.0000
     44 C19        2.2691    0.2605    3.4046 C.3       1 RES1    0.0000
     45 H16        1.3419    0.5723    3.3406 H         1 RES1    0.0000
     46 H17        2.7086    0.6971    4.1643 H         1 RES1    0.0000
     47 H18        2.2786   -0.7109    3.5350 H         1 RES1    0.0000
     48 C20        2.4735    0.1566    0.9559 C.ar      1 RES1    0.0000
     49 C21        1.6403   -0.9534    0.8562 C.ar      1 RES1    0.0000
     50 H19        1.3939   -1.4551    1.6226 H         1 RES1    0.0000
     51 C22        1.1869   -1.2957   -0.4019 C.ar      1 RES1    0.0000
     52 H20        0.6017   -2.0385   -0.4984 H         1 RES1    0.0000
     53 C23        1.5620   -0.5904   -1.5208 C.ar      1 RES1    0.0000
     54 H21        1.2593   -0.8329   -2.3862 H         1 RES1    0.0000
     55 C24        2.4129    0.5072   -1.3186 C.ar      1 RES1    0.0000
     56 C25        2.5837    0.9437   -3.7503 C.3       1 RES1    0.0000
     57 H22        2.8810    0.0277   -3.9345 H         1 RES1    0.0000
     58 H23        3.0552    1.5646   -4.3446 H         1 RES1    0.0000
     59 H24        1.6188    1.0102   -3.9062 H         1 RES1    0.0000
     60 O3         9.3598    5.5521    9.4216 O.2       2 RES2    0.0000
     61 O4         9.8268    6.2735   11.4065 O.2       2 RES2    0.0000
     62 N9         9.0405    5.9747   10.5083 N.pl3     2 RES2    0.0000
     63 N10        7.8895    8.4722   10.0752 N.pl3     2 RES2    0.0000
     64 N11        6.8885    8.2026    8.0291 N.ar      2 RES2    0.0000
     65 N12        5.8065    7.7397    6.0545 N.pl3     2 RES2    0.0000
     66 N13        6.0064    5.4564    6.5363 N.ar      2 RES2    0.0000
     67 N14        6.3747    3.1873    7.0312 N.pl3     2 RES2    0.0000
     68 N15        6.9834    3.3862    9.2417 N.ar      2 RES2    0.0000
     69 N16        7.5281    3.8040   11.4295 N.pl3     2 RES2    0.0000
     70 C26        7.6016    6.1627   10.7960 C.ar      2 RES2    0.0000
     71 C27        6.8840    5.0693   11.2580 C.ar      2 RES2    0.0000
     72 C28        5.5478    5.2619   11.5246 C.ar      2 RES2    0.0000
     73 H25        5.0215    4.5440   11.8565 H         2 RES2    0.0000
     74 C29        4.9703    6.5022   11.3079 C.ar      2 RES2    0.0000
     75 H26        4.0451    6.6214   11.4889 H         2 RES2    0.0000
     76 C30        5.7081    7.5692   10.8314 C.ar      2 RES2    0.0000
     77 H27        5.2905    8.4104   10.6864 H         2 RES2    0.0000
     78 C31        7.0576    7.4113   10.5638 C.ar      2 RES2    0.0000
     79 C32        8.6119    9.2835   11.0573 C.3       2 RES2    0.0000
     80 H28        9.5287    9.4331   10.7465 H         2 RES2    0.0000
     81 H29        8.6317    8.8151   11.9166 H         2 RES2    0.0000
     82 H30        8.1590   10.1468   11.1637 H         2 RES2    0.0000
     83 C33        7.6895    8.9467    8.7849 C.ar      2 RES2    0.0000
     84 C34        8.3011   10.1177    8.3236 C.ar      2 RES2    0.0000
     85 H31        8.8698   10.6360    8.8800 H         2 RES2    0.0000
     86 C35        8.0347   10.4808    7.0181 C.ar      2 RES2    0.0000
     87 H32        8.4415   11.2638    6.6635 H         2 RES2    0.0000
     88 C36        7.1954    9.7380    6.2139 C.ar      2 RES2    0.0000
     89 H33        7.0050   10.0013    5.3202 H         2 RES2    0.0000
     90 C37        6.6379    8.5836    6.7682 C.ar      2 RES2    0.0000
     91 C38        5.3236    8.0376    4.7578 C.3       2 RES2    0.0000
     92 H34        5.0607    7.2075    4.3092 H         2 RES2    0.0000
     93 H35        6.0289    8.4811    4.2420 H         2 RES2    0.0000
     94 H36        4.5478    8.6321    4.8289 H         2 RES2    0.0000
     95 C39        5.3101    6.5839    6.7346 C.ar      2 RES2    0.0000
     96 C40        4.2178    6.6768    7.5462 C.ar      2 RES2    0.0000
     97 H37        3.7558    7.5013    7.6498 H         2 RES2    0.0000
     98 C41        3.7980    5.5390    8.2179 C.ar      2 RES2    0.0000
     99 H38        3.0303    5.5654    8.7775 H         2 RES2    0.0000
    100 C42        4.5091    4.3722    8.0610 C.ar      2 RES2    0.0000
    101 H39        4.2548    3.5823    8.5230 H         2 RES2    0.0000
    102 C43        5.6060    4.3750    7.2122 C.ar      2 RES2    0.0000
    103 C44        6.7503    2.8159    5.6546 C.3       2 RES2    0.0000
    104 H40        6.2361    3.3564    5.0198 H         2 RES2    0.0000
    105 H41        6.5583    1.8667    5.5076 H         2 RES2    0.0000
    106 H42        7.7077    2.9809    5.5217 H         2 RES2    0.0000
    107 C45        7.0810    2.6788    8.1119 C.ar      2 RES2    0.0000
    108 C46        7.8535    1.5119    8.0185 C.ar      2 RES2    0.0000
    109 H43        7.9122    1.0172    7.2079 H         2 RES2    0.0000
    110 C47        8.5236    1.1128    9.1586 C.ar      2 RES2    0.0000
    111 H44        9.0601    0.3298    9.1275 H         2 RES2    0.0000
    112 C48        8.4366    1.8154   10.3357 C.ar      2 RES2    0.0000
    113 H45        8.8854    1.5258   11.1212 H         2 RES2    0.0000
    114 C49        7.6557    2.9781   10.3220 C.ar      2 RES2    0.0000
    115 C50        8.1678    3.5019   12.6911 C.3       2 RES2    0.0000
    116 H46        7.8527    2.6330   13.0160 H         2 RES2    0.0000
    117 H47        7.9452    4.1962   13.3448 H         2 RES2    0.0000
    118 H48        9.1392    3.4714   12.5671 H         2 RES2    0.0000
@<TRIPOS>BOND
     1    1    3 2
     2    2    3 2
     3    3   11 1
     4    4   19 1
     5    5   24 ar
     6    6   31 1
     7    7   36 ar
     8    8   43 1
     9    9   48 ar
    10   10   12 1
    11   11   12 ar
    12   12   13 ar
    13   13   14 1
    14   15   13 ar
    15   16   15 1
    16   17   15 ar
    17   18   17 1
    18   19   11 ar
    19   20    4 1
    20   21   20 1
    21   22   20 1
    22   23   20 1
    23   24    4 1
    24   25   24 ar
    25   26   25 1
    26   27   25 ar
    27   28   27 1
    28   29   27 ar
    29   30   29 1
    30   31    5 ar
    31   32    6 1
    32   33   32 1
    33   34   32 1
    34   35   32 1
    35   36    6 1
    36   37   36 ar
    37   38   37 1
    38   39   37 ar
    39   40   39 1
    40   41   39 ar
    41   42   41 1
    42   43    7 ar
    43   44    8 1
    44   45   44 1
    45   46   44 1
    46   47   44 1
    47   48    8 1
    48   49   48 ar
    49   50   49 1
    50   51   49 ar
    51   52   51 1
    52   53   51 ar
    53   54   53 1
    54   55    9 ar
    55   56   10 1
    56   57   56 1
    57   58   56 1
    58   59   56 1
    59   60   62 2
    60   61   62 2
    61   62   70 1
    62   63   78 1
    63   64   83 ar
    64   65   90 1
    65   66   95 ar
    66   67  102 1
    67   68  107 ar
    68   69   71 1
    69   70   71 ar
    70   71   72 ar
    71   72   73 1
    72   74   72 ar
    73   75   74 1
    74   76   74 ar
    75   77   76 1
    76   78   70 ar
    77   79   63 1
    78   80   79 1
    79   81   79 1
    80   82   79 1
    81   83   63 1
    82   84   83 ar
    83   85   84 1
    84   86   84 ar
    85   87   86 1
    86   88   86 ar
    87   89   88 1
    88   90   64 ar
    89   91   65 1
    90   92   91 1
    91   93   91 1
    92   94   91 1
    93   95   65 1
    94   96   95 ar
    95   97   96 1
    96   98   96 ar
    97   99   98 1
    98  100   98 ar
    99  101  100 1
   100  102   66 ar
   101  103   67 1
   102  104  103 1
   103  105  103 1
   104  106  103 1
   105  107   67 1
   106  108  107 ar
   107  109  108 1
   108  110  108 ar
   109  111  110 1
   110  112  110 ar
   111  113  112 1
   112  114   68 ar
   113  115   69 1
   114  116  115 1
   115  117  115 1
   116  118  115 1
   117   10   55 1
   118   17   19 ar
   119   29   31 ar
   120   41   43 ar
   121   53   55 ar
   122   69  114 1
   123   76   78 ar
   124   88   90 ar
   125  100  102 ar
   126  112  114 ar
@<TRIPOS>SUBSTRUCTURE
     1 RES1 1
     2 RES2 60

@<TRIPOS>CRYSIN
  10.2950   13.8580   35.3760  90.0000  92.1800  90.0000  14 1

