# MOL2 file generated by ConQuest
# Please check atom types

@<TRIPOS>MOLECULE
AGIKEI
    82    86     2
SMALL
NO_CHARGES
****
Generated from CSD

@<TRIPOS>ATOM
      1 N1        23.7980    3.5062    3.9554 N.pl3     1 RES1    0.0000
      2 O1        24.9629    3.7199    4.2944 O.2       1 RES1    0.0000
      3 O2        23.4510    3.4012    2.7833 O.2       1 RES1    0.0000
      4 O3        17.2586    5.3541    8.2857 O.2       1 RES1    0.0000
      5 O4        18.7896    4.4231    3.9099 O.3       1 RES1    0.0000
      6 O5        17.5949    0.8814    4.9660 O.2       1 RES1    0.0000
      7 O6        19.4294    1.2277    3.7195 O.3       1 RES1    0.0000
      8 O7        19.9532    2.7091    7.8472 O.3       1 RES1    0.0000
      9 C1        21.4722    3.1197    4.6233 C.ar      1 RES1    0.0000
     10 H1        21.2158    3.1182    3.7085 H         1 RES1    0.0000
     11 C2        22.7882    3.3355    5.0077 C.ar      1 RES1    0.0000
     12 C3        23.2067    3.3414    6.3272 C.ar      1 RES1    0.0000
     13 H2        24.1202    3.4894    6.5368 H         1 RES1    0.0000
     14 C4        22.2799    3.1284    7.3446 C.ar      1 RES1    0.0000
     15 H3        22.5357    3.1284    8.2583 H         1 RES1    0.0000
     16 C5        20.9570    2.9148    6.9592 C.ar      1 RES1    0.0000
     17 C6        18.7577    2.3248    7.0950 C.3       1 RES1    0.0000
     18 H4        18.6100    1.3411    7.1953 H         1 RES1    0.0000
     19 C7        17.5789    3.0657    7.6852 C.3       1 RES1    0.0000
     20 H5        16.7453    2.7310    7.2697 H         1 RES1    0.0000
     21 H6        17.5310    2.8783    8.6564 H         1 RES1    0.0000
     22 C8        17.6727    4.5497    7.4749 C.2       1 RES1    0.0000
     23 C9        18.2996    4.9902    6.1768 C.3       1 RES1    0.0000
     24 H7        19.2411    5.2483    6.3426 H         1 RES1    0.0000
     25 H8        17.8217    5.7880    5.8394 H         1 RES1    0.0000
     26 C10       18.2603    3.8963    5.1132 C.3       1 RES1    0.0000
     27 H9        17.3084    3.6287    4.9592 H         1 RES1    0.0000
     28 C11       19.0683    2.6457    5.5912 C.3       1 RES1    0.0000
     29 C12       20.5495    2.9068    5.6297 C.ar      1 RES1    0.0000
     30 C13       18.1092    4.0378    2.7160 C.3       1 RES1    0.0000
     31 H10       18.2276    3.0767    2.5678 H         1 RES1    0.0000
     32 H11       18.4764    4.5344    1.9562 H         1 RES1    0.0000
     33 H12       17.1539    4.2383    2.8056 H         1 RES1    0.0000
     34 C14       18.6241    1.4709    4.7374 C.2       1 RES1    0.0000
     35 C15       18.9483    0.2516    2.7288 C.3       1 RES1    0.0000
     36 H13       18.2355    0.6527    2.1714 H         1 RES1    0.0000
     37 H14       18.5785   -0.5455    3.1842 H         1 RES1    0.0000
     38 C16       20.1135   -0.1327    1.8780 C.3       1 RES1    0.0000
     39 H15       20.6108    0.6716    1.6212 H         1 RES1    0.0000
     40 H16       19.7937   -0.5907    1.0727 H         1 RES1    0.0000
     41 H17       20.7025   -0.7322    2.3817 H         1 RES1    0.0000
     42 N2        17.0816   -0.5097   15.3007 N.pl3     2 RES2    0.0000
     43 O8        18.2826   -0.5294   15.0305 O.2       2 RES2    0.0000
     44 O9        16.6358   -0.7030   16.4272 O.2       2 RES2    0.0000
     45 O10       10.6294   -1.7487   10.6664 O.2       2 RES2    0.0000
     46 O11       12.0040   -0.9701   15.1109 O.3       2 RES2    0.0000
     47 O12       11.0646    2.6145   14.0065 O.2       2 RES2    0.0000
     48 O13       12.8638    2.2773   15.3120 O.3       2 RES2    0.0000
     49 C17       14.8351    0.1247   14.5448 C.ar      2 RES2    0.0000
     50 H18       14.5402    0.1517   15.4471 H         2 RES2    0.0000
     51 C18       16.1396   -0.2239   14.2168 C.ar      2 RES2    0.0000
     52 C19       16.6031   -0.3121   12.9106 C.ar      2 RES2    0.0000
     53 H19       17.5074   -0.5484   12.7386 H         2 RES2    0.0000
     54 C20       15.7386   -0.0532   11.8628 C.ar      2 RES2    0.0000
     55 H20       16.0199   -0.1335   10.9588 H         2 RES2    0.0000
     56 C21       14.4391    0.3296   12.1823 C.ar      2 RES2    0.0000
     57 O14       13.4924    0.6162   11.2575 O.3       2 RES2    0.0000
     58 C22       12.3162    1.1369   11.9477 C.3       2 RES2    0.0000
     59 H21       12.2748    2.1294   11.8277 H         2 RES2    0.0000
     60 C23       11.1029    0.5039   11.3003 C.3       2 RES2    0.0000
     61 H22       10.2818    0.8984   11.6885 H         2 RES2    0.0000
     62 H23       11.1068    0.7044   10.3310 H         2 RES2    0.0000
     63 C24       11.0767   -0.9954   11.4982 C.2       2 RES2    0.0000
     64 C25       11.6397   -1.4833   12.8208 C.3       2 RES2    0.0000
     65 H24       12.5760   -1.7801   12.6884 H         2 RES2    0.0000
     66 H25       11.1147   -2.2614   13.1334 H         2 RES2    0.0000
     67 C26       11.6026   -0.3916   13.8816 C.3       2 RES2    0.0000
     68 H26       10.6642   -0.0605   13.9715 H         2 RES2    0.0000
     69 C27       12.5228    0.8065   13.4678 C.3       2 RES2    0.0000
     70 C28       13.9850    0.4295   13.4994 C.ar      2 RES2    0.0000
     71 C29       11.3535   -0.4529   16.2694 C.3       2 RES2    0.0000
     72 H27       11.8244    0.3493   16.5781 H         2 RES2    0.0000
     73 H28       11.3635   -1.1289   16.9778 H         2 RES2    0.0000
     74 H29       10.4259   -0.2231   16.0490 H         2 RES2    0.0000
     75 C30       12.0761    2.0134   14.2819 C.2       2 RES2    0.0000
     76 C31       12.3560    3.3013   16.2380 C.3       2 RES2    0.0000
     77 H30       11.9737    4.0575   15.7271 H         2 RES2    0.0000
     78 H31       11.6411    2.9170   16.8047 H         2 RES2    0.0000
     79 C32       13.4586    3.7767   17.0797 C.3       2 RES2    0.0000
     80 H32       13.8514    3.0198   17.5619 H         2 RES2    0.0000
     81 H33       13.1181    4.4330   17.7237 H         2 RES2    0.0000
     82 H34       14.1421    4.1960   16.5166 H         2 RES2    0.0000
@<TRIPOS>BOND
     1    1    2 2
     2    3    1 2
     3    4   22 2
     4    5   26 1
     5    6   34 2
     6    7   34 1
     7    8   16 1
     8    9   10 1
     9   11    1 1
    10   12   11 ar
    11   13   12 1
    12   14   12 ar
    13   15   14 1
    14   16   14 ar
    15   17    8 1
    16   18   17 1
    17   19   17 1
    18   20   19 1
    19   21   19 1
    20   22   19 1
    21   23   22 1
    22   24   23 1
    23   25   23 1
    24   26   23 1
    25   27   26 1
    26   28   17 1
    27   29    9 ar
    28   30    5 1
    29   31   30 1
    30   32   30 1
    31   33   30 1
    32   34   28 1
    33   35    7 1
    34   36   35 1
    35   37   35 1
    36   38   35 1
    37   39   38 1
    38   40   38 1
    39   41   38 1
    40   42   43 2
    41   44   42 2
    42   45   63 2
    43   46   67 1
    44   47   75 2
    45   48   75 1
    46   49   50 1
    47   51   42 1
    48   52   51 ar
    49   53   52 1
    50   54   52 ar
    51   55   54 1
    52   56   54 ar
    53   57   56 1
    54   58   57 1
    55   59   58 1
    56   60   58 1
    57   61   60 1
    58   62   60 1
    59   63   60 1
    60   64   63 1
    61   65   64 1
    62   66   64 1
    63   67   64 1
    64   68   67 1
    65   69   58 1
    66   70   49 ar
    67   71   46 1
    68   72   71 1
    69   73   71 1
    70   74   71 1
    71   75   69 1
    72   76   48 1
    73   77   76 1
    74   78   76 1
    75   79   76 1
    76   80   79 1
    77   81   79 1
    78   82   79 1
    79    9   11 ar
    80   16   29 ar
    81   26   28 1
    82   28   29 1
    83   49   51 ar
    84   56   70 ar
    85   67   69 1
    86   69   70 1
@<TRIPOS>SUBSTRUCTURE
     1 RES1 1
     2 RES2 42

@<TRIPOS>CRYSIN
  26.1891    7.2924   16.1801  90.0000  90.0000  90.0000  29 1

