# MOL2 file generated by ConQuest
# Please check atom types

@<TRIPOS>MOLECULE
AGITER
    86    91     1
SMALL
USER_CHARGES
****
Generated from CSD

@<TRIPOS>ATOM
      1 N1         3.0129    3.1695    6.3066 N.3       1 RES1    0.0000
      2 N2         4.2128    1.4872    7.0739 N.pl3     1 RES1    1.0000
      3 O1         3.3114    7.5679    8.7791 O.3       1 RES1    0.0000
      4 O2         8.0934    2.3240   10.1851 O.3       1 RES1    0.0000
      5 O3         2.5178    4.3335    6.1176 O.2       1 RES1    0.0000
      6 O4         5.0513    0.7767    7.7278 O.2       1 RES1   -1.0000
      7 C1         5.9690    5.3507   10.0210 C.ar      1 RES1    0.0000
      8 C2         4.8212    5.8220    9.3200 C.ar      1 RES1    0.0000
      9 C3         4.1801    4.9944    8.3833 C.ar      1 RES1    0.0000
     10 C4         4.7008    3.7219    8.1092 C.ar      1 RES1    0.0000
     11 C5         5.8865    3.2840    8.7471 C.ar      1 RES1    0.0000
     12 C6         6.5068    4.0863    9.7088 C.ar      1 RES1    0.0000
     13 C7         7.6300    3.5897   10.4682 C.ar      1 RES1    0.0000
     14 C8         4.3181    7.1415    9.6109 C.ar      1 RES1    0.0000
     15 C9         2.2380    8.3197    9.3265 C.3       1 RES1    0.0000
     16 C10        7.5563    1.3219   11.0555 C.3       1 RES1    0.0000
     17 C11        4.0012    2.8173    7.1830 C.2       1 RES1    0.0000
     18 C12        2.6655    2.0368    5.3838 C.3       1 RES1    0.0000
     19 C13        3.4727    2.2679    4.1182 C.3       1 RES1    0.0000
     20 C14        1.1677    2.0368    5.0678 C.3       1 RES1    0.0000
     21 C15        3.1546    0.8207    6.2255 C.3       1 RES1    0.0000
     22 C16        2.1116    0.2782    7.1868 C.3       1 RES1    0.0000
     23 C17        3.7714   -0.3127    5.4328 C.3       1 RES1    0.0000
     24 H1         3.4034    5.2978    7.9285 H         1 RES1    0.0000
     25 H2         6.2713    2.4472    8.5141 H         1 RES1    0.0000
     26 H3         1.6234    8.5439    8.6384 H         1 RES1    0.0000
     27 H4         2.5729    9.1151    9.7253 H         1 RES1    0.0000
     28 H5         1.7982    7.7956    9.9865 H         1 RES1    0.0000
     29 H6         7.8989    0.4690   10.8164 H         1 RES1    0.0000
     30 H7         7.8038    1.5230   11.9496 H         1 RES1    0.0000
     31 H8         6.6094    1.3161   10.9828 H         1 RES1    0.0000
     32 H9         3.2931    1.5770    3.4924 H         1 RES1    0.0000
     33 H10        4.3978    2.2679    4.3329 H         1 RES1    0.0000
     34 H11        3.2353    3.1070    3.7410 H         1 RES1    0.0000
     35 H12        0.9648    1.3219    4.4761 H         1 RES1    0.0000
     36 H13        0.6860    1.9230    5.8790 H         1 RES1    0.0000
     37 H14        0.9209    2.8610    4.6657 H         1 RES1    0.0000
     38 H15        1.4261   -0.1598    6.6963 H         1 RES1    0.0000
     39 H16        2.5164   -0.3379    7.7853 H         1 RES1    0.0000
     40 H17        1.7376    1.0000    7.6799 H         1 RES1    0.0000
     41 H18        3.1087   -0.7368    4.9016 H         1 RES1    0.0000
     42 H19        4.1599   -0.9471    6.0222 H         1 RES1    0.0000
     43 H20        4.4456    0.0494    4.8679 H         1 RES1    0.0000
     44 N1B        9.5139    8.3250   14.7575 N.3       1 RES1    0.0000
     45 N2B        8.3140   10.0073   13.9901 N.pl3     1 RES1    1.0000
     46 O1B        9.2153    3.9266   12.2850 O.3       1 RES1    0.0000
     47 O2B        4.4333    9.1705   10.8789 O.3       1 RES1    0.0000
     48 O3B       10.0089    7.1610   14.9464 O.2       1 RES1    0.0000
     49 O4B        7.4754   10.7178   13.3363 O.2       1 RES1   -1.0000
     50 C1B        6.5577    6.1438   11.0430 C.ar      1 RES1    0.0000
     51 C2B        7.7056    5.6725   11.7440 C.ar      1 RES1    0.0000
     52 C3B        8.3466    6.5001   12.6808 C.ar      1 RES1    0.0000
     53 C4B        7.8260    7.7726   12.9548 C.ar      1 RES1    0.0000
     54 C5B        6.6402    8.2105   12.3170 C.ar      1 RES1    0.0000
     55 C6B        6.0200    7.4082   11.3552 C.ar      1 RES1    0.0000
     56 C7B        4.8968    7.9048   10.5958 C.ar      1 RES1    0.0000
     57 C8B        8.2087    4.3530   11.4532 C.ar      1 RES1    0.0000
     58 C9B       10.2888    3.1748   11.7375 C.3       1 RES1    0.0000
     59 C10B       4.9705   10.1726   10.0086 C.3       1 RES1    0.0000
     60 C11B       8.5255    8.6772   13.8810 C.2       1 RES1    0.0000
     61 C12B       9.8613    9.4577   15.6803 C.3       1 RES1    0.0000
     62 C13B       9.0541    9.2266   16.9458 C.3       1 RES1    0.0000
     63 C14B      11.3590    9.4577   15.9962 C.3       1 RES1    0.0000
     64 C15B       9.3722   10.6738   14.8386 C.3       1 RES1    0.0000
     65 C16B      10.4151   11.2163   13.8772 C.3       1 RES1    0.0000
     66 C17B       8.7553   11.8072   15.6312 C.3       1 RES1    0.0000
     67 H1B        9.1234    6.1967   13.1355 H         1 RES1    0.0000
     68 H2B        6.2555    9.0473   12.5500 H         1 RES1    0.0000
     69 H3B       10.9034    2.9506   12.4257 H         1 RES1    0.0000
     70 H4B        9.9539    2.3794   11.3388 H         1 RES1    0.0000
     71 H5B       10.7286    3.6989   11.0776 H         1 RES1    0.0000
     72 H6B        4.6279   11.0255   10.2477 H         1 RES1    0.0000
     73 H7B        4.7230    9.9715    9.1144 H         1 RES1    0.0000
     74 H8B        5.9173   10.1784   10.0813 H         1 RES1    0.0000
     75 H9B        9.2337    9.9175   17.5716 H         1 RES1    0.0000
     76 H10B       8.1289    9.2266   16.7312 H         1 RES1    0.0000
     77 H11B       9.2915    8.3875   17.3231 H         1 RES1    0.0000
     78 H12B      11.5620   10.1726   16.5879 H         1 RES1    0.0000
     79 H13B      11.8407    9.5715   15.1851 H         1 RES1    0.0000
     80 H14B      11.6059    8.6335   16.3984 H         1 RES1    0.0000
     81 H15B      11.1007   11.6543   14.3678 H         1 RES1    0.0000
     82 H16B      10.0103   11.8324   13.2788 H         1 RES1    0.0000
     83 H17B      10.7892   10.4945   13.3841 H         1 RES1    0.0000
     84 H18B       9.4181   12.2313   16.1624 H         1 RES1    0.0000
     85 H19B       8.3669   12.4416   15.0418 H         1 RES1    0.0000
     86 H20B       8.0812   11.4451   16.1961 H         1 RES1    0.0000
@<TRIPOS>BOND
     1    1    5 1
     2    2    6 1
     3    3   14 1
     4    4   13 1
     5    7    8 ar
     6    8    9 ar
     7    9   10 ar
     8   10   11 ar
     9   11   12 ar
    10   12    7 ar
    11   13   12 ar
    12   14    8 ar
    13   15    3 1
    14   16    4 1
    15   17    1 1
    16   18    1 1
    17   19   18 1
    18   20   18 1
    19   21    2 1
    20   22   21 1
    21   23   21 1
    22   24    9 1
    23   25   11 1
    24   26   15 1
    25   27   15 1
    26   28   15 1
    27   29   16 1
    28   30   16 1
    29   31   16 1
    30   32   19 1
    31   33   19 1
    32   34   19 1
    33   35   20 1
    34   36   20 1
    35   37   20 1
    36   38   22 1
    37   39   22 1
    38   40   22 1
    39   41   23 1
    40   42   23 1
    41   43   23 1
    42   44   48 1
    43   45   49 1
    44   46   57 1
    45   47   56 1
    46   50    7 ar
    47   51   50 ar
    48   52   51 ar
    49   53   52 ar
    50   54   53 ar
    51   55   50 ar
    52   56   14 ar
    53   57   13 ar
    54   58   46 1
    55   59   47 1
    56   60   44 1
    57   61   44 1
    58   62   61 1
    59   63   61 1
    60   64   45 1
    61   65   64 1
    62   66   64 1
    63   67   52 1
    64   68   54 1
    65   69   58 1
    66   70   58 1
    67   71   58 1
    68   72   59 1
    69   73   59 1
    70   74   59 1
    71   75   62 1
    72   76   62 1
    73   77   62 1
    74   78   63 1
    75   79   63 1
    76   80   63 1
    77   81   65 1
    78   82   65 1
    79   83   65 1
    80   84   66 1
    81   85   66 1
    82   86   66 1
    83    2   17 2
    84   10   17 1
    85   18   21 1
    86   45   60 2
    87   51   57 ar
    88   53   60 1
    89   54   55 ar
    90   55   56 ar
    91   61   64 1
@<TRIPOS>SUBSTRUCTURE
     1 RES1 1

@<TRIPOS>CRYSIN
   6.2882   11.4945   21.0641  90.0000  90.1350  90.0000 231 1

