# MOL2 file generated by ConQuest
# Please check atom types

@<TRIPOS>MOLECULE
AGOKUE
    42    45     1
SMALL
NO_CHARGES
****
Generated from CSD

@<TRIPOS>ATOM
      1 O1         0.5763    2.7149   11.4683 O.3       1 RES1    0.0000
      2 O2         3.3098    3.0064   12.7234 O.3       1 RES1    0.0000
      3 N1        -1.0960   -1.8287   11.6143 N.2       1 RES1    0.0000
      4 N2        -0.3069   -1.1792   12.4348 N.2       1 RES1    0.0000
      5 C1         1.3212    3.0721   10.3615 C.ar      1 RES1    0.0000
      6 C2        -1.8416   -0.9306   10.9145 C.2       1 RES1    0.0000
      7 C3         2.5475    3.7153   10.5031 C.ar      1 RES1    0.0000
      8 N3        -0.5603    0.1289   12.2849 N.3       1 RES1    0.0000
      9 C4        -2.8915   -1.3669    9.9972 C.ar      1 RES1    0.0000
     10 C5        -1.4908    0.3120   11.3399 C.2       1 RES1    0.0000
     11 H1        -1.8289    1.1242   11.0369 H         1 RES1    0.0000
     12 C6        -3.2679   -2.6982    9.9556 C.ar      1 RES1    0.0000
     13 H2        -2.7998   -3.3205   10.4634 H         1 RES1    0.0000
     14 C7         2.1267    2.5584   13.3494 C.3       1 RES1    0.0000
     15 H3         1.6527    3.3212   13.7142 H         1 RES1    0.0000
     16 H4         2.3605    1.9726   14.0866 H         1 RES1    0.0000
     17 C8         1.2128    1.8162   12.3986 C.3       1 RES1    0.0000
     18 H5         1.7401    1.1601   11.8965 H         1 RES1    0.0000
     19 C9         3.1002    4.0968   11.8409 C.3       1 RES1    0.0000
     20 H6         3.9450    4.5545   11.7076 H         1 RES1    0.0000
     21 H7         2.4910    4.7229   12.2609 H         1 RES1    0.0000
     22 C10        0.1282    1.1033   13.1374 C.3       1 RES1    0.0000
     23 H8         0.5093    0.6459   13.9031 H         1 RES1    0.0000
     24 H9        -0.5149    1.7515   13.4659 H         1 RES1    0.0000
     25 C11       -4.9834   -2.1950    8.4285 C.ar      1 RES1    0.0000
     26 C12        3.2111    4.0635    9.3461 C.ar      1 RES1    0.0000
     27 H10        4.0403    4.4802    9.4082 H         1 RES1    0.0000
     28 C13       -4.3199   -3.1184    9.1774 C.ar      1 RES1    0.0000
     29 H11       -4.5735   -4.0123    9.1639 H         1 RES1    0.0000
     30 C14        0.7914    2.8218    9.1073 C.ar      1 RES1    0.0000
     31 H12       -0.0335    2.4009    9.0290 H         1 RES1    0.0000
     32 O3        -6.5814   -3.7301    7.8034 O.2       1 RES1    0.0000
     33 C15       -3.5700   -0.4658    9.2058 C.ar      1 RES1    0.0000
     34 H13       -3.3152    0.4290    9.2058 H         1 RES1    0.0000
     35 N4        -6.1234   -2.6302    7.6094 N.pl3     1 RES1    0.0000
     36 C16       -4.6216   -0.8739    8.4177 C.ar      1 RES1    0.0000
     37 H14       -5.0790   -0.2636    7.8860 H         1 RES1    0.0000
     38 C17        1.4631    3.1861    8.0075 C.ar      1 RES1    0.0000
     39 H15        1.1016    3.0147    7.1668 H         1 RES1    0.0000
     40 C18        2.6844    3.8121    8.1100 C.ar      1 RES1    0.0000
     41 H16        3.1476    4.0628    7.3436 H         1 RES1    0.0000
     42 O4        -6.5259   -1.8775    6.7633 O.2       1 RES1    0.0000
@<TRIPOS>BOND
     1    1    5 1
     2    2   14 1
     3    3    4 2
     4    4    8 1
     5    5    7 ar
     6    6    3 1
     7    7   19 1
     8    8   10 1
     9    9    6 1
    10   10    6 2
    11   11   10 1
    12   12    9 ar
    13   13   12 1
    14   14   15 1
    15   16   14 1
    16   17    1 1
    17   18   17 1
    18   19    2 1
    19   20   19 1
    20   21   19 1
    21   22    8 1
    22   23   22 1
    23   24   22 1
    24   25   28 ar
    25   26    7 ar
    26   27   26 1
    27   28   12 ar
    28   29   28 1
    29   30    5 ar
    30   31   30 1
    31   32   35 2
    32   33    9 ar
    33   34   33 1
    34   35   25 1
    35   36   25 ar
    36   37   36 1
    37   38   30 ar
    38   39   38 1
    39   40   26 ar
    40   41   40 1
    41   42   35 2
    42   14   17 1
    43   17   22 1
    44   33   36 ar
    45   38   40 ar
@<TRIPOS>SUBSTRUCTURE
     1 RES1 1

@<TRIPOS>CRYSIN
   6.0255   10.3665   13.6263  92.9030  97.1680  94.6660   2 1

