# MOL2 file generated by ConQuest
# Please check atom types

@<TRIPOS>MOLECULE
AGUBOV
    54    57     1
SMALL
NO_CHARGES
****
Generated from CSD

@<TRIPOS>ATOM
      1 O1         4.5292    1.8416   19.4517 O.3       1 RES1    0.0000
      2 C1         2.6957   -0.6215   18.1689 C.3       1 RES1    0.0000
      3 H1         1.8246   -0.9026   18.4884 H         1 RES1    0.0000
      4 H2         2.6845    0.3449   18.0907 H         1 RES1    0.0000
      5 O2         8.7047   -0.4084   19.6453 O.3       1 RES1    0.0000
      6 C2         5.1623   -0.8180   18.6079 C.ar      1 RES1    0.0000
      7 N1         4.2555   -0.8031   16.3291 N.3       1 RES1    0.0000
      8 O3        -0.7449    1.5214   12.3530 O.2       1 RES1    0.0000
      9 C3         3.8612    1.2054   20.4809 C.ar      1 RES1    0.0000
     10 C4         7.5583   -0.5550   18.9039 C.ar      1 RES1    0.0000
     11 C5         5.3335   -0.7976   17.2176 C.ar      1 RES1    0.0000
     12 C6         3.7701   -1.0300   19.2081 C.3       1 RES1    0.0000
     13 C7         6.2880   -0.6872   19.4311 C.ar      1 RES1    0.0000
     14 H3         6.1774   -0.6898   20.3548 H         1 RES1    0.0000
     15 C8         6.6304   -0.7004   16.6999 C.ar      1 RES1    0.0000
     16 H4         6.7555   -0.7219   15.7791 H         1 RES1    0.0000
     17 N2        -0.8271    0.4040   12.7936 N.pl3     1 RES1    0.0000
     18 C9         7.7230   -0.5737   17.5224 C.ar      1 RES1    0.0000
     19 H5         8.5743   -0.5003   17.1552 H         1 RES1    0.0000
     20 C10        1.7818    0.5417   15.4157 C.ar      1 RES1    0.0000
     21 H6         2.3312    1.1756   15.8175 H         1 RES1    0.0000
     22 C11        2.4291    0.1968   22.5950 C.ar      1 RES1    0.0000
     23 H7         1.9407   -0.1535   23.3059 H         1 RES1    0.0000
     24 C12        0.0647   -0.0132   13.8839 C.ar      1 RES1    0.0000
     25 C13        3.5180   -0.1478   20.4473 C.ar      1 RES1    0.0000
     26 C14        1.0432   -1.7154   15.2058 C.ar      1 RES1    0.0000
     27 H8         1.0932   -2.6076   15.4650 H         1 RES1    0.0000
     28 C15        1.8949   -0.7909   15.7813 C.ar      1 RES1    0.0000
     29 C16        2.7991   -0.6197   21.5407 C.ar      1 RES1    0.0000
     30 H9         2.5578   -1.5176   21.5637 H         1 RES1    0.0000
     31 C17        0.8653    0.9393   14.4646 C.ar      1 RES1    0.0000
     32 H10        0.7913    1.8343   14.2222 H         1 RES1    0.0000
     33 C18        3.6030   -2.5445   19.5032 C.3       1 RES1    0.0000
     34 H11        2.6978   -2.6883   19.8193 H         1 RES1    0.0000
     35 H12        3.6929   -3.0235   18.6646 H         1 RES1    0.0000
     36 C19        2.7823    1.5219   22.5932 C.ar      1 RES1    0.0000
     37 H13        2.5254    2.0762   23.2946 H         1 RES1    0.0000
     38 C20        4.5547   -3.1759   20.5069 C.3       1 RES1    0.0000
     39 H14        5.4499   -3.1439   20.1628 H         1 RES1    0.0000
     40 H15        4.3014   -4.0902   20.6554 H         1 RES1    0.0000
     41 H16        4.5129   -2.6931   21.3355 H         1 RES1    0.0000
     42 C21        0.1153   -1.3331   14.2477 C.ar      1 RES1    0.0000
     43 H17       -0.4571   -1.9567   13.8629 H         1 RES1    0.0000
     44 C22        3.5185    2.0231   21.5463 C.ar      1 RES1    0.0000
     45 H18        3.7872    2.9137   21.5524 H         1 RES1    0.0000
     46 C23        8.5529   -0.2866   21.0558 C.3       1 RES1    0.0000
     47 H19        7.9487    0.4333   21.2519 H         1 RES1    0.0000
     48 H20        9.4066   -0.1049   21.4553 H         1 RES1    0.0000
     49 H21        8.2010   -1.1056   21.4123 H         1 RES1    0.0000
     50 C24        2.9394   -1.2298   16.7889 C.3       1 RES1    0.0000
     51 H22        2.9254   -2.2074   16.8614 H         1 RES1    0.0000
     52 O4        -1.6217   -0.3919   12.3779 O.2       1 RES1    0.0000
     53 H23        4.4462   -1.1047   15.5463 H         1 RES1    0.0000
     54 H24        4.9042    1.2436   18.8793 H         1 RES1    0.0000
@<TRIPOS>BOND
     1    1    9 1
     2    2    3 1
     3    4    2 1
     4    5   10 1
     5    6   11 ar
     6    7   11 1
     7    8   17 2
     8    9   25 ar
     9   10   13 ar
    10   11   15 ar
    11   12    2 1
    12   13    6 ar
    13   14   13 1
    14   15   16 1
    15   17   24 1
    16   18   10 ar
    17   19   18 1
    18   20   21 1
    19   22   23 1
    20   24   31 ar
    21   25   12 1
    22   26   27 1
    23   28   20 ar
    24   29   22 ar
    25   30   29 1
    26   31   20 ar
    27   32   31 1
    28   33   12 1
    29   34   33 1
    30   35   33 1
    31   36   22 ar
    32   37   36 1
    33   38   33 1
    34   39   38 1
    35   40   38 1
    36   41   38 1
    37   42   24 ar
    38   43   42 1
    39   44    9 ar
    40   45   44 1
    41   46    5 1
    42   47   46 1
    43   48   46 1
    44   49   46 1
    45   50    2 1
    46   51   50 1
    47   52   17 2
    48   53    7 1
    49   54    1 1
    50    6   12 1
    51    7   50 1
    52   15   18 ar
    53   25   29 ar
    54   26   28 ar
    55   26   42 ar
    56   28   50 1
    57   36   44 ar
@<TRIPOS>SUBSTRUCTURE
     1 RES1 1

@<TRIPOS>CRYSIN
   9.5228    9.7155   22.5964  90.0000  90.0000  90.0000  19 1

