# MOL2 file generated by ConQuest
# Please check atom types

@<TRIPOS>MOLECULE
AGUQOI
    49    51     1
SMALL
NO_CHARGES
****
Generated from CSD

@<TRIPOS>ATOM
      1 O1         7.3676    2.2332    6.4470 O.3       1 RES1    0.0000
      2 O2         5.7322    1.7183    7.9113 O.2       1 RES1    0.0000
      3 O3         1.6087    0.5774    2.5163 O.2       1 RES1    0.0000
      4 O4         3.1942    1.0690    1.1515 O.2       1 RES1    0.0000
      5 N1         2.7413    0.9038    2.2604 N.pl3     1 RES1    0.0000
      6 C1         7.5975    4.9742   10.4560 C.ar      1 RES1    0.0000
      7 C2         6.8884    5.9461    9.8874 C.ar      1 RES1    0.0000
      8 C3         6.5028    5.9558    8.5084 C.ar      1 RES1    0.0000
      9 C4         6.7116    5.0017    6.3049 C.ar      1 RES1    0.0000
     10 C5         7.0035    4.8860    7.6910 C.ar      1 RES1    0.0000
     11 C6         7.7345    3.8293    8.2809 C.ar      1 RES1    0.0000
     12 C7         5.2828    1.5702    5.5727 C.ar      1 RES1    0.0000
     13 C8         4.0314    1.0468    5.7789 C.ar      1 RES1    0.0000
     14 C9         3.2089    0.8232    4.6700 C.ar      1 RES1    0.0000
     15 C10        3.6557    1.1564    3.4190 C.ar      1 RES1    0.0000
     16 C11        4.9098    1.6508    3.2200 C.ar      1 RES1    0.0000
     17 C12        5.7443    1.8797    4.3146 C.ar      1 RES1    0.0000
     18 C13       11.2012    1.7895    5.4093 C.2       1 RES1    0.0000
     19 C14       10.0138    2.1031    5.6580 C.2       1 RES1    0.0000
     20 C15        9.5573    3.1663    6.6319 C.3       1 RES1    0.0000
     21 C16        8.3469    2.6734    7.4848 C.3       1 RES1    0.0000
     22 C17        6.1337    1.8295    6.7740 C.2       1 RES1    0.0000
     23 C18        5.4993    7.0527    6.6745 C.ar      1 RES1    0.0000
     24 C19        8.7464    1.4403    8.3023 C.3       1 RES1    0.0000
     25 C20        5.7283    6.9889    7.9113 C.ar      1 RES1    0.0000
     26 C21       10.6376    3.7645    7.5346 C.3       1 RES1    0.0000
     27 C22        5.9677    6.0459    5.7860 C.ar      1 RES1    0.0000
     28 C23        7.9838    3.9287    9.6315 C.ar      1 RES1    0.0000
     29 H1         7.9346    5.1039   11.6573 H         1 RES1    0.0000
     30 H2         6.4886    6.8346   10.4489 H         1 RES1    0.0000
     31 H3         6.9856    4.2920    5.8286 H         1 RES1    0.0000
     32 H4         3.7403    0.9334    6.6532 H         1 RES1    0.0000
     33 H5         2.3765    0.5988    4.6132 H         1 RES1    0.0000
     34 H6         5.1361    1.7798    2.2035 H         1 RES1    0.0000
     35 H7         6.6211    2.2094    3.9805 H         1 RES1    0.0000
     36 H8         9.2631    1.5768    5.3311 H         1 RES1    0.0000
     37 H9         4.9059    7.5592    6.0419 H         1 RES1    0.0000
     38 H10        5.5261    7.6772    8.9562 H         1 RES1    0.0000
     39 H11        6.0125    5.7975    4.8406 H         1 RES1    0.0000
     40 H12        8.5642    3.2943    9.8803 H         1 RES1    0.0000
     41 H13        9.2440    3.9876    6.2196 H         1 RES1    0.0000
     42 H14        8.0640    1.2509    8.8140 H         1 RES1    0.0000
     43 H15        8.8488    0.7795    7.7478 H         1 RES1    0.0000
     44 H16        9.5161    1.6619    9.0273 H         1 RES1    0.0000
     45 H17       11.3369    3.1377    8.1743 H         1 RES1    0.0000
     46 H18       11.3279    4.0014    7.0370 H         1 RES1    0.0000
     47 H19       10.2945    4.2237    8.0321 H         1 RES1    0.0000
     48 H20       11.4179    2.7019    5.6865 H         1 RES1    0.0000
     49 H21       11.5130    1.1865    4.6203 H         1 RES1    0.0000
@<TRIPOS>BOND
     1    1   21 1
     2    2   22 2
     3    3    5 2
     4    4    5 2
     5    5   15 1
     6    6    7 ar
     7    7    8 ar
     8    8   10 ar
     9    9   10 ar
    10   10   11 ar
    11   11   21 1
    12   12   13 ar
    13   13   14 ar
    14   14   15 ar
    15   15   16 ar
    16   16   17 ar
    17   17   12 ar
    18   18   19 2
    19   19   20 1
    20   20   21 1
    21   21   24 1
    22   22    1 1
    23   23   25 ar
    24   24   42 1
    25   25    8 ar
    26   26   20 1
    27   27    9 ar
    28   28    6 ar
    29   29    6 1
    30   30    7 1
    31   31    9 1
    32   32   13 1
    33   33   14 1
    34   34   16 1
    35   35   17 1
    36   36   19 1
    37   37   23 1
    38   38   25 1
    39   39   27 1
    40   40   28 1
    41   41   20 1
    42   43   24 1
    43   44   24 1
    44   45   26 1
    45   46   26 1
    46   47   26 1
    47   48   18 1
    48   49   18 1
    49   11   28 ar
    50   12   22 1
    51   23   27 ar
@<TRIPOS>SUBSTRUCTURE
     1 RES1 1

@<TRIPOS>CRYSIN
  11.6560   12.0030    7.2570  92.1200 101.3800  91.1700   2 1

