# MOL2 file generated by ConQuest
# Please check atom types

@<TRIPOS>MOLECULE
AHACIX
    48    50     2
SMALL
NO_CHARGES
****
Generated from CSD

@<TRIPOS>ATOM
      1 O1         0.1857    4.4740    8.5186 O.2       1 RES1    0.0000
      2 O2         1.2752    2.7403    7.7937 O.2       1 RES1    0.0000
      3 N1         1.0339    6.1323    2.7113 N.pl3     1 RES1    0.0000
      4 H1         1.7617    6.1425    2.2979 H         1 RES1    0.0000
      5 H2         0.3069    6.4614    2.3908 H         1 RES1    0.0000
      6 N2        -0.1329    5.7370    4.6456 N.ar      1 RES1    0.0000
      7 N3         2.1669    5.0400    4.3796 N.ar      1 RES1    0.0000
      8 N4         0.8272    3.8771    7.6513 N.pl3     1 RES1    0.0000
      9 C1         1.0258    5.6177    3.9378 C.ar      1 RES1    0.0000
     10 C2        -0.1124    5.1947    5.8573 C.ar      1 RES1    0.0000
     11 H3        -0.8895    5.2633    6.3993 H         1 RES1    0.0000
     12 C3         0.9913    4.5368    6.3627 C.ar      1 RES1    0.0000
     13 C4         2.1650    4.4748    5.5916 C.ar      1 RES1    0.0000
     14 C5         3.4257    3.8300    6.0303 C.ar      1 RES1    0.0000
     15 C6         4.1482    3.0680    5.1088 C.ar      1 RES1    0.0000
     16 H4         3.8562    3.0107    4.2070 H         1 RES1    0.0000
     17 C7         5.2941    2.3945    5.5115 C.ar      1 RES1    0.0000
     18 H5         5.7824    1.8731    4.8848 H         1 RES1    0.0000
     19 C8         5.7240    2.4797    6.8206 C.ar      1 RES1    0.0000
     20 H6         6.4938    1.9970    7.0980 H         1 RES1    0.0000
     21 C9         5.0365    3.2704    7.7317 C.ar      1 RES1    0.0000
     22 H7         5.3510    3.3471    8.6241 H         1 RES1    0.0000
     23 C10        3.8909    3.9465    7.3405 C.ar      1 RES1    0.0000
     24 H8         3.4222    4.4887    7.9649 H         1 RES1    0.0000
     25 O3         3.9944    7.1890   -2.6115 O.2       2 RES2    0.0000
     26 O4         5.2308    8.9184   -2.1388 O.2       2 RES2    0.0000
     27 N5         4.9227    6.0675    3.2910 N.pl3     2 RES2    0.0000
     28 H9         5.6593    6.0308    3.7138 H         2 RES2    0.0000
     29 H10        4.1990    5.6673    3.5629 H         2 RES2    0.0000
     30 N6         3.7432    6.3027    1.3402 N.ar      2 RES2    0.0000
     31 N7         6.0296    7.0757    1.5384 N.ar      2 RES2    0.0000
     32 N8         4.6922    7.8542   -1.8423 N.pl3     2 RES2    0.0000
     33 C11        4.9019    6.4944    2.0379 C.ar      2 RES2    0.0000
     34 C12        3.7429    6.7223    0.0847 C.ar      2 RES2    0.0000
     35 H11        2.9637    6.5908   -0.4422 H         2 RES2    0.0000
     36 C13        4.8391    7.3473   -0.4892 C.ar      2 RES2    0.0000
     37 C14        5.9987    7.5215    0.2762 C.ar      2 RES2    0.0000
     38 C15        7.2438    8.1567   -0.2553 C.ar      2 RES2    0.0000
     39 C16        7.8029    9.2419    0.3969 C.ar      2 RES2    0.0000
     40 H12        7.4439    9.5396    1.2244 H         2 RES2    0.0000
     41 C17        8.8954    9.8974   -0.1694 C.ar      2 RES2    0.0000
     42 H13        9.2734   10.6535    0.2634 H         2 RES2    0.0000
     43 C18        9.4287    9.4442   -1.3625 C.ar      2 RES2    0.0000
     44 H14       10.1674    9.8984   -1.7524 H         2 RES2    0.0000
     45 C19        8.8939    8.3343   -1.9904 C.ar      2 RES2    0.0000
     46 H15        9.2773    8.0172   -2.7993 H         2 RES2    0.0000
     47 C20        7.8041    7.6864   -1.4437 C.ar      2 RES2    0.0000
     48 H16        7.4373    6.9232   -1.8743 H         2 RES2    0.0000
@<TRIPOS>BOND
     1    1    8 2
     2    2    8 2
     3    3    4 1
     4    5    3 1
     5    6    9 ar
     6    7    9 ar
     7    8   12 1
     8    9    3 1
     9   10    6 ar
    10   11   10 1
    11   12   10 ar
    12   13    7 ar
    13   14   13 1
    14   15   14 ar
    15   16   15 1
    16   17   15 ar
    17   18   17 1
    18   19   17 ar
    19   20   19 1
    20   21   19 ar
    21   22   21 1
    22   23   14 ar
    23   24   23 1
    24   25   32 2
    25   26   32 2
    26   27   28 1
    27   29   27 1
    28   30   33 ar
    29   31   33 ar
    30   32   36 1
    31   33   27 1
    32   34   30 ar
    33   35   34 1
    34   36   34 ar
    35   37   31 ar
    36   38   37 1
    37   39   38 ar
    38   40   39 1
    39   41   39 ar
    40   42   41 1
    41   43   41 ar
    42   44   43 1
    43   45   43 ar
    44   46   45 1
    45   47   38 ar
    46   48   47 1
    47   12   13 ar
    48   21   23 ar
    49   36   37 ar
    50   45   47 ar
@<TRIPOS>SUBSTRUCTURE
     1 RES1 1
     2 RES2 25

@<TRIPOS>CRYSIN
   7.7259   11.0541   11.8753  77.8830  88.4930  74.9900   2 1

