# MOL2 file generated by ConQuest
# Please check atom types

@<TRIPOS>MOLECULE
AHADOE
    39    40     1
SMALL
USER_CHARGES
****
Generated from CSD

@<TRIPOS>ATOM
      1 O1         1.1933   -3.5486    0.7683 O.2       1 RES1   -1.0000
      2 N1         2.1995   -4.0689    1.3833 N.pl3     1 RES1    1.0000
      3 O2         3.6569    2.7983    6.0195 O.3       1 RES1    0.0000
      4 N2         0.7262    2.5579    1.4885 N.pl3     1 RES1    0.0000
      5 O3         4.0870   -1.1951    2.3176 O.2       1 RES1    0.0000
      6 O4         1.6301    3.1150    0.9039 O.2       1 RES1    0.0000
      7 C1         2.8288    1.6015    4.0547 C.ar      1 RES1    0.0000
      8 H1         3.4429    2.0140    3.4903 H         1 RES1    0.0000
      9 C2         3.1557   -3.2930    1.9860 C.ar      1 RES1    0.0000
     10 C3         1.8746    0.4252    2.0362 C.3       1 RES1    0.0000
     11 H2         2.6818    0.8065    1.6311 H         1 RES1    0.0000
     12 C4         4.2349   -3.9142    2.5872 C.ar      1 RES1    0.0000
     13 H3         4.8926   -3.3947    2.9892 H         1 RES1    0.0000
     14 O5        -0.1062    3.1425    2.1506 O.2       1 RES1    0.0000
     15 C5         1.9164    0.6908    3.5358 C.ar      1 RES1    0.0000
     16 C6         3.0771   -1.7945    2.0043 C.2       1 RES1    0.0000
     17 C7         1.8129   -1.0692    1.6829 C.3       1 RES1    0.0000
     18 H4         1.0812   -1.4794    2.1713 H         1 RES1    0.0000
     19 H5         1.6268   -1.1622    0.7361 H         1 RES1    0.0000
     20 C8         0.6534    1.0794    1.3880 C.3       1 RES1    0.0000
     21 H6         0.6066    0.8217    0.4539 H         1 RES1    0.0000
     22 H7        -0.1527    0.7647    1.8269 H         1 RES1    0.0000
     23 C9         2.8265    1.9001    5.4151 C.ar      1 RES1    0.0000
     24 C10        1.0216    0.0697    4.3853 C.ar      1 RES1    0.0000
     25 H8         0.4092   -0.5451    4.0501 H         1 RES1    0.0000
     26 C11        2.3169   -5.4273    1.4168 C.ar      1 RES1    0.0000
     27 H9         1.6552   -5.9491    1.0229 H         1 RES1    0.0000
     28 C12        3.3735   -6.0363    2.0089 C.ar      1 RES1    0.0000
     29 H10        3.4318   -6.9637    2.0124 H         1 RES1    0.0000
     30 C13        4.3577   -5.2867    2.6045 C.ar      1 RES1    0.0000
     31 H11        5.0897   -5.6946    3.0076 H         1 RES1    0.0000
     32 C14        1.0427    0.3661    5.7411 C.ar      1 RES1    0.0000
     33 H12        0.4432   -0.0581    6.3124 H         1 RES1    0.0000
     34 C15        1.9269    1.2703    6.2502 C.ar      1 RES1    0.0000
     35 H13        1.9241    1.4620    7.1602 H         1 RES1    0.0000
     36 C16        4.6829    3.4040    5.2573 C.3       1 RES1    0.0000
     37 H14        5.1807    4.0072    5.8137 H         1 RES1    0.0000
     38 H15        4.2946    3.8886    4.5258 H         1 RES1    0.0000
     39 H16        5.2706    2.7253    4.9163 H         1 RES1    0.0000
@<TRIPOS>BOND
     1    1    2 1
     2    2    9 ar
     3    3   23 1
     4    4    6 2
     5    5   16 2
     6    7    8 1
     7    9   12 ar
     8   10   11 1
     9   12   13 1
    10   14    4 2
    11   15    7 ar
    12   16    9 1
    13   17   10 1
    14   18   17 1
    15   19   17 1
    16   20    4 1
    17   21   20 1
    18   22   20 1
    19   23    7 ar
    20   24   15 ar
    21   25   24 1
    22   26    2 ar
    23   27   26 1
    24   28   26 ar
    25   29   28 1
    26   30   12 ar
    27   31   30 1
    28   32   24 ar
    29   33   32 1
    30   34   23 ar
    31   35   34 1
    32   36    3 1
    33   37   36 1
    34   38   36 1
    35   39   36 1
    36   10   15 1
    37   10   20 1
    38   16   17 1
    39   28   30 ar
    40   32   34 ar
@<TRIPOS>SUBSTRUCTURE
     1 RES1 1

@<TRIPOS>CRYSIN
   5.7307   11.6217   11.8016  90.0000 102.5630  90.0000   4 1

