# MOL2 file generated by ConQuest
# Please check atom types

@<TRIPOS>MOLECULE
AHAZAL
    64    66     2
SMALL
NO_CHARGES
****
Generated from CSD

@<TRIPOS>ATOM
      1 O1         0.3353   -0.3216   11.4382 O.3       1 RES1    0.0000
      2 N1         1.7866    0.1406   11.4129 N.3       1 RES1    0.0000
      3 H1         1.7602    0.6866   10.6824 H         1 RES1    0.0000
      4 C1         0.8131    0.6824   12.3262 C.3       1 RES1    0.0000
      5 C2         0.2607    2.0513   12.0386 C.ar      1 RES1    0.0000
      6 C3         1.1189    3.1419   11.8372 C.ar      1 RES1    0.0000
      7 C4         0.6037    4.3925   11.5218 C.ar      1 RES1    0.0000
      8 H2         1.1874    5.1306   11.3923 H         1 RES1    0.0000
      9 C5        -0.7682    4.5582   11.3967 C.ar      1 RES1    0.0000
     10 H3        -1.1175    5.4130   11.1730 H         1 RES1    0.0000
     11 C6        -1.6313    3.4992   11.5917 C.ar      1 RES1    0.0000
     12 H4        -2.5698    3.6225   11.5080 H         1 RES1    0.0000
     13 C7        -1.1108    2.2490   11.9124 C.ar      1 RES1    0.0000
     14 H5        -1.7015    1.5178   12.0464 H         1 RES1    0.0000
     15 O2         2.4562    2.8682   11.9333 O.3       1 RES1    0.0000
     16 C8         3.3584    3.9572   11.7774 C.3       1 RES1    0.0000
     17 H6         3.2186    4.6029   12.5011 H         1 RES1    0.0000
     18 H7         3.1986    4.3938   10.9137 H         1 RES1    0.0000
     19 H8         4.2796    3.6251   11.8091 H         1 RES1    0.0000
     20 C9         0.9503    0.2374   13.7869 C.3       1 RES1    0.0000
     21 C10        1.8340    1.2308   14.5416 C.3       1 RES1    0.0000
     22 H9         2.7249    1.2504   14.1342 H         1 RES1    0.0000
     23 H10        1.9099    0.9548   15.4783 H         1 RES1    0.0000
     24 H11        1.4346    2.1241   14.4952 H         1 RES1    0.0000
     25 C11       -0.4358    0.1942   14.4254 C.3       1 RES1    0.0000
     26 H12       -0.3603   -0.1280   15.3486 H         1 RES1    0.0000
     27 H13       -1.0127   -0.4112   13.9129 H         1 RES1    0.0000
     28 H14       -0.8245    1.0943   14.4234 H         1 RES1    0.0000
     29 C12        1.5869   -1.1463   13.8676 C.3       1 RES1    0.0000
     30 H15        1.0195   -1.7940   13.4004 H         1 RES1    0.0000
     31 H16        1.6777   -1.4102   14.8062 H         1 RES1    0.0000
     32 H17        2.4725   -1.1234   13.4483 H         1 RES1    0.0000
     33 O3         1.7777   -2.5542    8.6514 O.3       2 RES2    0.0000
     34 N2         0.3015   -2.2183    8.7799 N.3       2 RES2    0.0000
     35 H18        0.2966   -1.6855    9.4820 H         2 RES2    0.0000
     36 C13        1.1555   -1.6100    7.7926 C.3       2 RES2    0.0000
     37 C14        1.5900   -0.1942    8.0323 C.ar      2 RES2    0.0000
     38 C15        0.6326    0.8206    8.1980 C.ar      2 RES2    0.0000
     39 C16        1.0326    2.1313    8.4353 C.ar      2 RES2    0.0000
     40 H19        0.3860    2.8195    8.5348 H         2 RES2    0.0000
     41 C17        2.3879    2.4254    8.5238 C.ar      2 RES2    0.0000
     42 H20        2.6611    3.3225    8.6764 H         2 RES2    0.0000
     43 C18        3.3439    1.4374    8.3930 C.ar      2 RES2    0.0000
     44 H21        4.2665    1.6476    8.4710 H         2 RES2    0.0000
     45 C19        2.9369    0.1316    8.1473 C.ar      2 RES2    0.0000
     46 H22        3.5905   -0.5515    8.0562 H         2 RES2    0.0000
     47 O4        -0.6730    0.4166    8.1451 O.3       2 RES2    0.0000
     48 C20       -1.6726    1.4197    8.3118 C.3       2 RES2    0.0000
     49 H23       -1.5948    2.0808    7.5936 H         2 RES2    0.0000
     50 H24       -1.5504    1.8629    9.1769 H         2 RES2    0.0000
     51 H25       -2.5606    1.0051    8.2795 H         2 RES2    0.0000
     52 C21        0.9864   -2.0747    6.3401 C.3       2 RES2    0.0000
     53 C22        0.0416   -1.1357    5.5841 C.3       2 RES2    0.0000
     54 H26       -0.8397   -1.1454    6.0122 H         2 RES2    0.0000
     55 H27       -0.0423   -1.4358    4.6542 H         2 RES2    0.0000
     56 H28        0.4037   -0.2250    5.6014 H         2 RES2    0.0000
     57 C23        2.3596   -2.0621    5.6645 C.3       2 RES2    0.0000
     58 H29        2.7179   -1.1498    5.6712 H         2 RES2    0.0000
     59 H30        2.2712   -2.3721    4.7380 H         2 RES2    0.0000
     60 H31        2.9680   -2.6562    6.1518 H         2 RES2    0.0000
     61 C24        0.4205   -3.4907    6.2896 C.3       2 RES2    0.0000
     62 H32        0.3274   -3.7716    5.3562 H         2 RES2    0.0000
     63 H33       -0.4567   -3.5078    6.7241 H         2 RES2    0.0000
     64 H34        1.0274   -4.1017    6.7560 H         2 RES2    0.0000
@<TRIPOS>BOND
     1    1    2 1
     2    2    3 1
     3    4    1 1
     4    5    4 1
     5    6    5 ar
     6    7    6 ar
     7    8    7 1
     8    9    7 ar
     9   10    9 1
    10   11    9 ar
    11   12   11 1
    12   13    5 ar
    13   14   13 1
    14   15    6 1
    15   16   15 1
    16   17   16 1
    17   18   16 1
    18   19   16 1
    19   20    4 1
    20   21   20 1
    21   22   21 1
    22   23   21 1
    23   24   21 1
    24   25   20 1
    25   26   25 1
    26   27   25 1
    27   28   25 1
    28   29   20 1
    29   30   29 1
    30   31   29 1
    31   32   29 1
    32   33   34 1
    33   34   35 1
    34   36   33 1
    35   37   36 1
    36   38   37 ar
    37   39   38 ar
    38   40   39 1
    39   41   39 ar
    40   42   41 1
    41   43   41 ar
    42   44   43 1
    43   45   37 ar
    44   46   45 1
    45   47   38 1
    46   48   47 1
    47   49   48 1
    48   50   48 1
    49   51   48 1
    50   52   36 1
    51   53   52 1
    52   54   53 1
    53   55   53 1
    54   56   53 1
    55   57   52 1
    56   58   57 1
    57   59   57 1
    58   60   57 1
    59   61   52 1
    60   62   61 1
    61   63   61 1
    62   64   61 1
    63    2    4 1
    64   11   13 ar
    65   34   36 1
    66   43   45 ar
@<TRIPOS>SUBSTRUCTURE
     1 RES1 1
     2 RES2 33

@<TRIPOS>CRYSIN
  13.0279    8.8246   20.4893  90.0000 103.2840  90.0000 231 1

