# MOL2 file generated by ConQuest
# Please check atom types

@<TRIPOS>MOLECULE
AHEDOH
   100   102     1
SMALL
NO_CHARGES
****
Generated from CSD

@<TRIPOS>ATOM
      1 O1        -2.5426    7.2505   16.0090 O.3       1 RES1    0.0000
      2 O2         1.2680    5.8181   18.0375 O.3       1 RES1    0.0000
      3 O3         6.1131    1.6373   15.3637 O.3       1 RES1    0.0000
      4 O4         7.7100    3.2337   16.9203 O.3       1 RES1    0.0000
      5 O5        -0.9102    6.4770   18.2964 O.3       1 RES1    0.0000
      6 O6         3.5538    2.6524   16.0809 O.3       1 RES1    0.0000
      7 O7         3.5909    4.5416   18.1642 O.3       1 RES1    0.0000
      8 O8         1.6976    7.7281   16.1280 O.3       1 RES1    0.0000
      9 O9         5.6565    3.7983   18.8051 O.3       1 RES1    0.0000
     10 O10        6.5532   -0.5183   15.8553 O.2       1 RES1    0.0000
     11 O11       -0.6510    8.7783   14.9320 O.3       1 RES1    0.0000
     12 O12        7.4720    3.2357   21.1463 O.3       1 RES1    0.0000
     13 O13        9.1653    1.7449   16.0504 O.2       1 RES1    0.0000
     14 O14        4.1643    3.7835   14.2190 O.2       1 RES1    0.0000
     15 O15       -3.7095    8.8812   14.9766 O.2       1 RES1    0.0000
     16 O16        1.8138    5.8610   14.8731 O.2       1 RES1    0.0000
     17 O17        4.1580    3.4482   23.0126 O.2       1 RES1    0.0000
     18 N1         0.6894    5.6309   22.8320 N.pl3     1 RES1    0.0000
     19 O18       -0.8223   10.9899   15.2602 O.2       1 RES1    0.0000
     20 C1         4.4539    3.4282   18.1628 C.3       1 RES1    0.0000
     21 H1         4.0376    2.6711   18.6257 H         1 RES1    0.0000
     22 C2         4.7737    3.0582   16.7137 C.3       1 RES1    0.0000
     23 H2         5.1661    3.8234   16.2429 H         1 RES1    0.0000
     24 O19       -3.8694    8.3285   20.9029 O.2       1 RES1    0.0000
     25 O20        7.8748    1.0542   21.3219 O.2       1 RES1    0.0000
     26 O21        0.3426    4.6558   23.4692 O.2       1 RES1    0.0000
     27 C3        -0.5586    8.5447   16.3538 C.3       1 RES1    0.0000
     28 H3        -0.1921    9.3319   16.8068 H         1 RES1    0.0000
     29 C4         5.7423    1.8837   16.7246 C.3       1 RES1    0.0000
     30 H4         5.2855    1.0929   17.0795 H         1 RES1    0.0000
     31 O22        3.0575    4.9982   23.9999 O.2       1 RES1    0.0000
     32 O23       -3.0741    6.4485   20.0672 O.3       1 RES1    0.0000
     33 C5         3.4697    4.4576   20.5814 C.ar      1 RES1    0.0000
     34 H5         4.2920    4.0270   20.6364 H         1 RES1    0.0000
     35 C6         6.9768    2.1656   17.5654 C.3       1 RES1    0.0000
     36 H6         7.5322    1.3627   17.6504 H         1 RES1    0.0000
     37 C7        -1.9435    8.2058   16.9088 C.3       1 RES1    0.0000
     38 H7        -2.4938    9.0146   16.9524 H         1 RES1    0.0000
     39 C8        -1.8501    7.5623   18.2927 C.3       1 RES1    0.0000
     40 H8        -1.5677    8.2373   18.9447 H         1 RES1    0.0000
     41 N2         3.3711    4.3693   23.0132 N.pl3     1 RES1    0.0000
     42 C9         6.5656    2.6872   18.9389 C.3       1 RES1    0.0000
     43 H9         6.1182    1.9668   19.4323 H         1 RES1    0.0000
     44 C10        0.3779    7.3652   16.5031 C.3       1 RES1    0.0000
     45 H10        0.0675    6.6269   15.9378 H         1 RES1    0.0000
     46 C11        0.4018    6.9186   17.9555 C.3       1 RES1    0.0000
     47 H11        0.6956    7.6451   18.5448 H         1 RES1    0.0000
     48 C12        3.3638    3.1055   14.7998 C.2       1 RES1    0.0000
     49 C13        2.9506    4.8189   19.3438 C.ar      1 RES1    0.0000
     50 C14        1.7463    5.5055   19.2726 C.ar      1 RES1    0.0000
     51 C15        1.0434    5.7972   20.4384 C.ar      1 RES1    0.0000
     52 H12        0.2336    6.2535   20.3938 H         1 RES1    0.0000
     53 C16        1.5542    5.4047   21.6607 C.ar      1 RES1    0.0000
     54 C17        2.7585    4.7425   21.7301 C.ar      1 RES1    0.0000
     55 C18        8.7843    2.8673   16.1664 C.2       1 RES1    0.0000
     56 O24        0.3385    6.7565   23.0689 O.2       1 RES1    0.0000
     57 C19        6.5553    0.3854   15.0610 C.2       1 RES1    0.0000
     58 C20        7.7627    3.1531   19.7325 C.3       1 RES1    0.0000
     59 H13        8.4988    2.5370   19.5918 H         1 RES1    0.0000
     60 H14        8.0389    4.0253   19.4115 H         1 RES1    0.0000
     61 C21        9.3771    4.0695   15.5077 C.3       1 RES1    0.0000
     62 H15        8.8860    4.8518   15.7668 H         1 RES1    0.0000
     63 H16        9.3345    3.9642   14.5534 H         1 RES1    0.0000
     64 H17       10.2939    4.1628   15.7784 H         1 RES1    0.0000
     65 C22        2.3588    6.7915   15.3790 C.2       1 RES1    0.0000
     66 C23       -3.1686    6.9748   18.7260 C.3       1 RES1    0.0000
     67 H18       -3.8549    7.6603   18.6927 H         1 RES1    0.0000
     68 H19       -3.4230    6.2654   18.1173 H         1 RES1    0.0000
     69 C24       -3.5091    7.1869   21.0732 C.2       1 RES1    0.0000
     70 C25       -3.2890    7.7615   14.9905 C.2       1 RES1    0.0000
     71 C26       -3.4697    6.7490   13.9098 C.3       1 RES1    0.0000
     72 H20       -3.0326    5.9311   14.1605 H         1 RES1    0.0000
     73 H21       -3.0856    7.0800   13.0951 H         1 RES1    0.0000
     74 H22       -4.4062    6.5844   13.7792 H         1 RES1    0.0000
     75 C27        3.8050    7.1071   15.3099 C.3       1 RES1    0.0000
     76 H23        3.9805    7.9132   15.8015 H         1 RES1    0.0000
     77 H24        4.0625    7.2310   14.3940 H         1 RES1    0.0000
     78 H25        4.3096    6.3842   15.6882 H         1 RES1    0.0000
     79 C28        2.0785    2.5930   14.2541 C.3       1 RES1    0.0000
     80 H26        1.6300    2.0738   14.9255 H         1 RES1    0.0000
     81 H27        2.2529    2.0432   13.4880 H         1 RES1    0.0000
     82 H28        1.5220    3.3329   13.9988 H         1 RES1    0.0000
     83 C29       -0.7942   10.0565   14.5158 C.2       1 RES1    0.0000
     84 C30        7.6018    2.0958   21.8475 C.2       1 RES1    0.0000
     85 C31       -3.3970    6.5030   22.3871 C.3       1 RES1    0.0000
     86 H29       -3.0731    5.6087   22.2543 H         1 RES1    0.0000
     87 H30       -4.2587    6.4724   22.8066 H         1 RES1    0.0000
     88 H31       -2.7845    6.9849   22.9476 H         1 RES1    0.0000
     89 C32        7.0297    0.3139   13.6539 C.3       1 RES1    0.0000
     90 H32        6.9290    1.1743   13.2384 H         1 RES1    0.0000
     91 H33        6.5117   -0.3360   13.1737 H         1 RES1    0.0000
     92 H34        7.9548    0.0594   13.6405 H         1 RES1    0.0000
     93 C33       -0.9365   10.0888   13.0306 C.3       1 RES1    0.0000
     94 H35       -0.8711    9.1962   12.6837 H         1 RES1    0.0000
     95 H36       -0.2388   10.6301   12.6537 H         1 RES1    0.0000
     96 H37       -1.7899   10.4604   12.7993 H         1 RES1    0.0000
     97 C34        7.4107    2.3283   23.3058 C.3       1 RES1    0.0000
     98 H38        7.1979    3.2515   23.4584 H         1 RES1    0.0000
     99 H39        8.2185    2.1043   23.7727 H         1 RES1    0.0000
    100 H40        6.6933    1.7768   23.6271 H         1 RES1    0.0000
@<TRIPOS>BOND
     1    1   37 1
     2    2   46 1
     3    3   29 1
     4    4   35 1
     5    5   39 1
     6    6   22 1
     7    7   20 1
     8    8   44 1
     9    9   20 1
    10   10   57 2
    11   11   27 1
    12   12   58 1
    13   13   55 2
    14   14   48 2
    15   15   70 2
    16   16   65 2
    17   17   41 2
    18   18   26 2
    19   19   83 2
    20   20   21 1
    21   22   20 1
    22   23   22 1
    23   24   69 2
    24   25   84 2
    25   27   28 1
    26   29   22 1
    27   30   29 1
    28   31   41 2
    29   32   66 1
    30   33   34 1
    31   35   29 1
    32   36   35 1
    33   37   27 1
    34   38   37 1
    35   39   37 1
    36   40   39 1
    37   41   54 1
    38   42    9 1
    39   43   42 1
    40   44   27 1
    41   45   44 1
    42   46    5 1
    43   47   46 1
    44   48    6 1
    45   49    7 1
    46   50    2 1
    47   51   50 ar
    48   52   51 1
    49   53   18 1
    50   54   33 ar
    51   55    4 1
    52   56   18 2
    53   57    3 1
    54   58   42 1
    55   59   58 1
    56   60   58 1
    57   61   55 1
    58   62   61 1
    59   63   61 1
    60   64   61 1
    61   65    8 1
    62   66   39 1
    63   67   66 1
    64   68   66 1
    65   69   32 1
    66   70    1 1
    67   71   70 1
    68   72   71 1
    69   73   71 1
    70   74   71 1
    71   75   65 1
    72   76   75 1
    73   77   75 1
    74   78   75 1
    75   79   48 1
    76   80   79 1
    77   81   79 1
    78   82   79 1
    79   83   11 1
    80   84   12 1
    81   85   69 1
    82   86   85 1
    83   87   85 1
    84   88   85 1
    85   89   57 1
    86   90   89 1
    87   91   89 1
    88   92   89 1
    89   93   83 1
    90   94   93 1
    91   95   93 1
    92   96   93 1
    93   97   84 1
    94   98   97 1
    95   99   97 1
    96  100   97 1
    97   33   49 ar
    98   35   42 1
    99   44   46 1
   100   49   50 ar
   101   51   53 ar
   102   53   54 ar
@<TRIPOS>SUBSTRUCTURE
     1 RES1 1

@<TRIPOS>CRYSIN
  10.3821   16.9702   23.1117  90.0000  90.0000  90.0000  18 2

