# MOL2 file generated by ConQuest
# Please check atom types

@<TRIPOS>MOLECULE
AHEMAB02
    12    12     1
SMALL
NO_CHARGES
****
Generated from CSD

@<TRIPOS>ATOM
      1 O1         3.2374    1.4963    1.7287 O.2       1 RES1    0.0000
      2 N1         2.5625    0.7677    0.8954 N.pl3     1 RES1    0.0000
      3 C1         2.1720    1.2728   -0.2983 C.ar      1 RES1    0.0000
      4 H1         2.3813    2.1525   -0.5169 H         1 RES1    0.0000
      5 C2         2.2469   -0.5065    1.1802 C.ar      1 RES1    0.0000
      6 H2         2.5083   -0.8709    1.9948 H         1 RES1    0.0000
      7 O1B        0.4865   -1.4963   -1.7287 O.2       1 RES1    0.0000
      8 N1B        1.1614   -0.7677   -0.8954 N.pl3     1 RES1    0.0000
      9 C1B        1.5519   -1.2728    0.2983 C.ar      1 RES1    0.0000
     10 H1B        1.3426   -2.1525    0.5169 H         1 RES1    0.0000
     11 C2B        1.4770    0.5065   -1.1802 C.ar      1 RES1    0.0000
     12 H2B        1.2156    0.8709   -1.9948 H         1 RES1    0.0000
@<TRIPOS>BOND
     1    1    2 1
     2    2    3 ar
     3    3    4 1
     4    5    2 ar
     5    6    5 1
     6    7    8 1
     7    8    9 ar
     8    9    5 ar
     9   10    9 1
    10   11    3 ar
    11   12   11 1
    12    8   11 ar
@<TRIPOS>SUBSTRUCTURE
     1 RES1 1

@<TRIPOS>CRYSIN
   3.7239   11.0100    5.6830  90.0000  96.2370  90.0000  14 1

