# MOL2 file generated by ConQuest
# Please check atom types

@<TRIPOS>MOLECULE
AHEMAB01
    24    24     2
SMALL
NO_CHARGES
****
Generated from CSD

@<TRIPOS>ATOM
      1 N1         6.6694    3.0554    1.2568 N.pl3     1 RES1    0.0000
      2 O1         5.9158    3.0554    2.3188 O.2       1 RES1    0.0000
      3 O2         9.0689    3.0554   -1.9878 O.2       1 RES1    0.0000
      4 C1         8.8197    3.0554    0.2874 C.ar      1 RES1    0.0000
      5 H1         9.7442    3.0554    0.3941 H         1 RES1    0.0000
      6 C2         6.1567    3.0554    0.0077 C.ar      1 RES1    0.0000
      7 H2         5.2334    3.0554   -0.1009 H         1 RES1    0.0000
      8 C3         8.0246    3.0554    1.3828 C.ar      1 RES1    0.0000
      9 H3         8.4079    3.0554    2.2301 H         1 RES1    0.0000
     10 N2         8.2940    3.0554   -0.9604 N.pl3     1 RES1    0.0000
     11 C4         6.9388    3.0554   -1.0781 C.ar      1 RES1    0.0000
     12 H4         6.5507    3.0554   -1.9235 H         1 RES1    0.0000
     13 O3         4.3490    5.9999    1.0672 O.2       2 RES2    0.0000
     14 N3         5.1132    6.0650    2.1125 N.pl3     2 RES2    0.0000
     15 C5         4.6021    6.0131    3.3641 C.ar      2 RES2    0.0000
     16 H5         3.6824    5.9507    3.4799 H         2 RES2    0.0000
     17 C6         6.4605    6.1717    1.9800 C.ar      2 RES2    0.0000
     18 H6         6.8355    6.2196    1.1302 H         2 RES2    0.0000
     19 O3D        7.5182    6.2218    5.3615 O.2       2 RES2    0.0000
     20 N3D        6.7540    6.1567    4.3162 N.pl3     2 RES2    0.0000
     21 C5D        7.2651    6.2086    3.0646 C.ar      2 RES2    0.0000
     22 H5D        8.1848    6.2710    2.9488 H         2 RES2    0.0000
     23 C6D        5.4067    6.0500    4.4487 C.ar      2 RES2    0.0000
     24 H6D        5.0317    6.0021    5.2985 H         2 RES2    0.0000
@<TRIPOS>BOND
     1    1    2 1
     2    3   10 1
     3    4    5 1
     4    6    1 ar
     5    7    6 1
     6    8    1 ar
     7    9    8 1
     8   10    4 ar
     9   11    6 ar
    10   12   11 1
    11   13   14 1
    12   14   15 ar
    13   15   16 1
    14   17   14 ar
    15   18   17 1
    16   19   20 1
    17   20   21 ar
    18   21   17 ar
    19   22   21 1
    20   23   15 ar
    21   24   23 1
    22    4    8 ar
    23   10   11 ar
    24   20   23 ar
@<TRIPOS>SUBSTRUCTURE
     1 RES1 1
     2 RES2 13

@<TRIPOS>CRYSIN
  11.8672   12.2217    6.4287  90.0000  90.0000  90.0000  62 1

