# MOL2 file generated by ConQuest
# Please check atom types

@<TRIPOS>MOLECULE
AHETOX
    26    27     1
SMALL
NO_CHARGES
****
Generated from CSD

@<TRIPOS>ATOM
      1 N1         1.1428    0.9417    7.2288 N.3       1 RES1    0.0000
      2 N2         1.1887   -2.6341    5.7313 N.1       1 RES1    0.0000
      3 O1         2.0812    0.6009    6.1448 O.3       1 RES1    0.0000
      4 C1         1.8176    1.8757    8.1238 C.3       1 RES1    0.0000
      5 H1         2.1286    2.6647    7.5893 H         1 RES1    0.0000
      6 H2         2.5749    1.4212    8.5567 H         1 RES1    0.0000
      7 C2         0.7773    2.3043    9.1578 C.3       1 RES1    0.0000
      8 H3         0.5503    1.5130    9.7225 H         1 RES1    0.0000
      9 H4         1.1947    2.9532    9.7524 H         1 RES1    0.0000
     10 C3        -0.4752    2.8966    8.5061 C.3       1 RES1    0.0000
     11 H5        -1.1363    3.0631    9.1930 H         1 RES1    0.0000
     12 H6        -0.2367    3.7606    8.0683 H         1 RES1    0.0000
     13 C4        -1.0411    1.9652    7.4269 C.3       1 RES1    0.0000
     14 H7        -1.7861    2.4091    6.9307 H         1 RES1    0.0000
     15 H8        -1.4020    1.1245    7.8288 H         1 RES1    0.0000
     16 C5         0.0765    1.6075    6.4661 C.3       1 RES1    0.0000
     17 H9         0.4385    2.4508    6.0754 H         1 RES1    0.0000
     18 C6        -0.1822    0.5675    5.3821 C.3       1 RES1    0.0000
     19 H10       -0.8131   -0.0994    5.6785 H         1 RES1    0.0000
     20 H11       -0.4642    0.9377    4.5418 H         1 RES1    0.0000
     21 C7         1.2319   -0.0550    5.1913 C.3       1 RES1    0.0000
     22 C8         1.2021   -1.5110    5.5126 C.1       1 RES1    0.0000
     23 C9         1.8407    0.1537    3.8139 C.3       1 RES1    0.0000
     24 H12        1.8235    1.0891    3.6078 H         1 RES1    0.0000
     25 H13        1.3170   -0.3224    3.1288 H         1 RES1    0.0000
     26 H14        2.7761   -0.1722    3.8002 H         1 RES1    0.0000
@<TRIPOS>BOND
     1    1    3 1
     2    2   22 3
     3    3   21 1
     4    4    1 1
     5    5    4 1
     6    6    4 1
     7    7    4 1
     8    8    7 1
     9    9    7 1
    10   10    7 1
    11   11   10 1
    12   12   10 1
    13   13   10 1
    14   14   13 1
    15   15   13 1
    16   16    1 1
    17   17   16 1
    18   18   16 1
    19   19   18 1
    20   20   18 1
    21   21   18 1
    22   22   21 1
    23   23   21 1
    24   24   23 1
    25   25   23 1
    26   26   23 1
    27   13   16 1
@<TRIPOS>SUBSTRUCTURE
     1 RES1 1

@<TRIPOS>CRYSIN
   6.4996    8.2657    9.4090 113.9800  90.3860 101.8230   2 1

