# MOL2 file generated by ConQuest
# Please check atom types

@<TRIPOS>MOLECULE
AHIDEC
    78    82     2
SMALL
NO_CHARGES
****
Generated from CSD

@<TRIPOS>ATOM
      1 N1         1.8864    9.7592    1.9646 N.2       1 RES1    0.0000
      2 O1         2.7639    7.1567    2.2750 O.2       1 RES1    0.0000
      3 N2         3.2987    7.6376    1.2989 N.pl3     1 RES1    0.0000
      4 N3         0.9034    9.3387    1.1136 N.pl3     1 RES1    0.0000
      5 O2         4.4642    7.9658    1.2372 O.2       1 RES1    0.0000
      6 C1         2.6208   10.8153    3.9426 C.ar      1 RES1    0.0000
      7 C2        -0.4751    9.6791    1.3007 C.ar      1 RES1    0.0000
      8 C3         1.5887   10.4398    2.9946 C.2       1 RES1    0.0000
      9 H1         0.6878   10.7040    3.1452 H         1 RES1    0.0000
     10 C4         1.3062    8.5083    0.0754 C.ar      1 RES1    0.0000
     11 C5         2.4850    7.7784    0.0912 C.ar      1 RES1    0.0000
     12 C6         3.9261   10.3898    3.8074 C.ar      1 RES1    0.0000
     13 H2         4.1783    9.8813    3.0458 H         1 RES1    0.0000
     14 C7        -0.9415   10.8833    0.8640 C.ar      1 RES1    0.0000
     15 H3        -0.3515   11.4916    0.4347 H         1 RES1    0.0000
     16 C8        -1.3168    8.8038    1.9302 C.ar      1 RES1    0.0000
     17 H4        -0.9969    7.9685    2.2488 H         1 RES1    0.0000
     18 C9         2.2978   11.5620    5.0525 C.ar      1 RES1    0.0000
     19 H5         1.4072   11.8776    5.1611 H         1 RES1    0.0000
     20 C10        2.9012    7.0440   -0.9981 C.ar      1 RES1    0.0000
     21 H6         3.7387    6.5959   -0.9745 H         1 RES1    0.0000
     22 C11       -2.2574   11.2206    1.0414 C.ar      1 RES1    0.0000
     23 H7        -2.5781   12.0602    0.7345 H         1 RES1    0.0000
     24 C12       -2.6501    9.1615    2.0941 C.ar      1 RES1    0.0000
     25 H8        -3.2519    8.5613    2.5187 H         1 RES1    0.0000
     26 C13        4.5194   11.4195    5.8613 C.ar      1 RES1    0.0000
     27 H9         5.1729   11.6172    6.5220 H         1 RES1    0.0000
     28 C14        4.8592   10.6910    4.7569 C.ar      1 RES1    0.0000
     29 H10        5.7539   10.3911    4.6482 H         1 RES1    0.0000
     30 C15       -3.0950   10.3643    1.6500 C.ar      1 RES1    0.0000
     31 H11       -4.0062   10.6021    1.7701 H         1 RES1    0.0000
     32 C16        3.2423   11.8599    6.0090 C.ar      1 RES1    0.0000
     33 H12        3.0011   12.3730    6.7720 H         1 RES1    0.0000
     34 C17        2.1186    6.9587   -2.1052 C.ar      1 RES1    0.0000
     35 H13        2.3883    6.4309   -2.8469 H         1 RES1    0.0000
     36 C18        0.5436    8.4246   -1.0770 C.ar      1 RES1    0.0000
     37 H14       -0.2672    8.9164   -1.1365 H         1 RES1    0.0000
     38 C19        0.9370    7.6455   -2.1335 C.ar      1 RES1    0.0000
     39 H15        0.3793    7.5804   -2.8995 H         1 RES1    0.0000
     40 N4        -0.1628    5.2137    5.7998 N.2       2 RES2    0.0000
     41 O3        -1.4030    7.7032    5.5853 O.2       2 RES2    0.0000
     42 N5        -0.2080    7.8613    5.7302 N.pl3     2 RES2    0.0000
     43 N6        -0.2947    5.2951    7.1600 N.pl3     2 RES2    0.0000
     44 O4         0.5476    8.2327    4.8545 O.2       2 RES2    0.0000
     45 C20       -0.8604    4.2470    7.9398 C.ar      2 RES2    0.0000
     46 C21       -0.5249    4.1323    3.7298 C.ar      2 RES2    0.0000
     47 C22        0.3537    7.6447    7.0617 C.ar      2 RES2    0.0000
     48 C23        0.2069    6.4529    7.7460 C.ar      2 RES2    0.0000
     49 C24       -0.6282    4.2077    5.1753 C.2       2 RES2    0.0000
     50 H16       -1.0450    3.5032    5.6569 H         2 RES2    0.0000
     51 C25       -0.9739    3.0049    3.0711 C.ar      2 RES2    0.0000
     52 H17       -1.3350    2.2815    3.5686 H         2 RES2    0.0000
     53 C26       -2.1661    4.3332    8.3455 C.ar      2 RES2    0.0000
     54 H18       -2.6904    5.0951    8.1259 H         2 RES2    0.0000
     55 C27       -0.1064    3.1493    8.2581 C.ar      2 RES2    0.0000
     56 H19        0.7987    3.0969    7.9753 H         2 RES2    0.0000
     57 C28        0.9528    8.7504    7.6319 C.ar      2 RES2    0.0000
     58 H20        1.0896    9.5379    7.1172 H         2 RES2    0.0000
     59 C29        0.0068    5.1596    2.9769 C.ar      2 RES2    0.0000
     60 H21        0.3446    5.9344    3.4109 H         2 RES2    0.0000
     61 C30       -0.9029    2.9208    1.6983 C.ar      2 RES2    0.0000
     62 H22       -1.1999    2.1332    1.2587 H         2 RES2    0.0000
     63 C31        0.6372    6.4314    9.0631 C.ar      2 RES2    0.0000
     64 H23        0.5576    5.6312    9.5692 H         2 RES2    0.0000
     65 C32       -0.6562    2.1284    8.9828 C.ar      2 RES2    0.0000
     66 H24       -0.1325    1.3659    9.2027 H         2 RES2    0.0000
     67 C33       -2.7098    3.2966    9.0787 C.ar      2 RES2    0.0000
     68 H25       -3.6133    3.3431    9.3689 H         2 RES2    0.0000
     69 C34       -0.4110    3.9567    0.9687 C.ar      2 RES2    0.0000
     70 H26       -0.3880    3.9056    0.0199 H         2 RES2    0.0000
     71 C35        1.1783    7.5528    9.6464 C.ar      2 RES2    0.0000
     72 H27        1.4390    7.5249   10.5594 H         2 RES2    0.0000
     73 C36       -1.9475    2.2056    9.3862 C.ar      2 RES2    0.0000
     74 H28       -2.3265    1.4935    9.8874 H         2 RES2    0.0000
     75 C37        0.0529    5.0739    1.6107 C.ar      2 RES2    0.0000
     76 H29        0.4082    5.7944    1.1052 H         2 RES2    0.0000
     77 C38        1.3463    8.7072    8.9339 C.ar      2 RES2    0.0000
     78 H30        1.7336    9.4718    9.3433 H         2 RES2    0.0000
@<TRIPOS>BOND
     1    1    4 1
     2    2    3 2
     3    3    5 2
     4    4    7 1
     5    6    8 1
     6    7   14 ar
     7    8    1 2
     8    9    8 1
     9   10    4 1
    10   11    3 1
    11   12    6 ar
    12   13   12 1
    13   14   15 1
    14   16    7 ar
    15   17   16 1
    16   18    6 ar
    17   19   18 1
    18   20   11 ar
    19   21   20 1
    20   22   14 ar
    21   23   22 1
    22   24   16 ar
    23   25   24 1
    24   26   27 1
    25   28   12 ar
    26   29   28 1
    27   30   22 ar
    28   31   30 1
    29   32   18 ar
    30   33   32 1
    31   34   20 ar
    32   35   34 1
    33   36   10 ar
    34   37   36 1
    35   38   34 ar
    36   39   38 1
    37   40   43 1
    38   41   42 2
    39   42   44 2
    40   43   45 1
    41   45   53 ar
    42   46   49 1
    43   47   42 1
    44   48   43 1
    45   49   40 2
    46   50   49 1
    47   51   46 ar
    48   52   51 1
    49   53   54 1
    50   55   45 ar
    51   56   55 1
    52   57   47 ar
    53   58   57 1
    54   59   46 ar
    55   60   59 1
    56   61   51 ar
    57   62   61 1
    58   63   48 ar
    59   64   63 1
    60   65   55 ar
    61   66   65 1
    62   67   53 ar
    63   68   67 1
    64   69   61 ar
    65   70   69 1
    66   71   63 ar
    67   72   71 1
    68   73   65 ar
    69   74   73 1
    70   75   59 ar
    71   76   75 1
    72   77   57 ar
    73   78   77 1
    74   10   11 ar
    75   24   30 ar
    76   26   28 ar
    77   26   32 ar
    78   36   38 ar
    79   47   48 ar
    80   67   73 ar
    81   69   75 ar
    82   71   77 ar
@<TRIPOS>SUBSTRUCTURE
     1 RES1 1
     2 RES2 40

@<TRIPOS>CRYSIN
  10.3720   11.7000   14.6880  93.5340 102.2570 109.2760   2 1

