# MOL2 file generated by ConQuest
# Please check atom types

@<TRIPOS>MOLECULE
AHIDIG
    38    39     1
SMALL
NO_CHARGES
****
Generated from CSD

@<TRIPOS>ATOM
      1 N1         7.7935    6.9673    6.3675 N.pl3     1 RES1    0.0000
      2 N2         6.9561    7.2640    7.4518 N.am      1 RES1    0.0000
      3 O1         5.3201    6.0966    6.4490 O.2       1 RES1    0.0000
      4 N3        10.0826    7.2145    4.6182 N.pl3     1 RES1    0.0000
      5 O2        10.6231    7.2715    5.7058 O.2       1 RES1    0.0000
      6 O3        10.5099    6.5715    3.6739 O.2       1 RES1    0.0000
      7 O4         6.6645    8.6577    9.2140 O.2       1 RES1    0.0000
      8 C1         8.1613    5.6010    6.2160 C.ar      1 RES1    0.0000
      9 C2         7.7553    7.8574    5.2736 C.ar      1 RES1    0.0000
     10 C3         8.8483    7.9825    4.4158 C.ar      1 RES1    0.0000
     11 C4         5.6779    6.6331    7.4585 C.2       1 RES1    0.0000
     12 C5         6.6562    8.6586    5.0016 C.ar      1 RES1    0.0000
     13 H1         5.8894    8.6062    5.5599 H         1 RES1    0.0000
     14 C6         8.0354    4.9599    4.9989 C.ar      1 RES1    0.0000
     15 H2         7.6684    5.4217    4.2537 H         1 RES1    0.0000
     16 C7         8.8434    8.8362    3.3284 C.ar      1 RES1    0.0000
     17 H3         9.5968    8.8812    2.7514 H         1 RES1    0.0000
     18 C8         7.4191    8.1950    8.3986 C.2       1 RES1    0.0000
     19 C9         8.6692    4.9093    7.2961 C.ar      1 RES1    0.0000
     20 H4         8.7575    5.3407    8.1383 H         1 RES1    0.0000
     21 C10        6.6602    9.5288    3.9317 C.ar      1 RES1    0.0000
     22 H5         5.9025   10.0798    3.7735 H         1 RES1    0.0000
     23 C11        7.7463    9.6125    3.0904 C.ar      1 RES1    0.0000
     24 H6         7.7313   10.2068    2.3484 H         1 RES1    0.0000
     25 C12        8.4425    3.6500    4.8648 C.ar      1 RES1    0.0000
     26 H7         8.3732    3.2186    4.0205 H         1 RES1    0.0000
     27 C13        9.0497    3.5856    7.1508 C.ar      1 RES1    0.0000
     28 H8         9.3859    3.1082    7.9005 H         1 RES1    0.0000
     29 C14        8.9481    2.9629    5.9443 C.ar      1 RES1    0.0000
     30 H9         9.2251    2.0596    5.8470 H         1 RES1    0.0000
     31 C15        4.9020    6.5853    8.7201 C.3       1 RES1    0.0000
     32 H10        5.3775    7.0884    9.4152 H         1 RES1    0.0000
     33 H11        4.0183    6.9836    8.5752 H         1 RES1    0.0000
     34 H12        4.7978    5.6535    9.0045 H         1 RES1    0.0000
     35 C16        8.8497    8.5823    8.3176 C.3       1 RES1    0.0000
     36 H13        9.2799    8.0902    7.5871 H         1 RES1    0.0000
     37 H14        8.9178    9.5445    8.1476 H         1 RES1    0.0000
     38 H15        9.2949    8.3670    9.1635 H         1 RES1    0.0000
@<TRIPOS>BOND
     1    1    2 1
     2    2   11 1
     3    3   11 2
     4    4    5 2
     5    6    4 2
     6    7   18 2
     7    8    1 1
     8    9    1 1
     9   10    4 1
    10   11   31 1
    11   12    9 ar
    12   13   12 1
    13   14    8 ar
    14   15   14 1
    15   16   10 ar
    16   17   16 1
    17   18    2 1
    18   19    8 ar
    19   20   19 1
    20   21   12 ar
    21   22   21 1
    22   23   16 ar
    23   24   23 1
    24   25   14 ar
    25   26   25 1
    26   27   19 ar
    27   28   27 1
    28   29   25 ar
    29   30   29 1
    30   31   32 1
    31   33   31 1
    32   34   31 1
    33   35   18 1
    34   36   35 1
    35   37   35 1
    36   38   35 1
    37    9   10 ar
    38   21   23 ar
    39   27   29 ar
@<TRIPOS>SUBSTRUCTURE
     1 RES1 1

@<TRIPOS>CRYSIN
  11.0898    9.1986   15.4627  90.0000  93.1210  90.0000  14 1

