# MOL2 file generated by ConQuest
# Please check atom types

@<TRIPOS>MOLECULE
AHIJEH
    37    39     1
SMALL
NO_CHARGES
****
Generated from CSD

@<TRIPOS>ATOM
      1 C1         8.3083    5.3984    0.1433 C.3       1 RES1    0.0000
      2 H1         9.2222    5.7420    0.2261 H         1 RES1    0.0000
      3 C2         7.3169    6.5962    3.2505 C.2       1 RES1    0.0000
      4 C3         7.4715    7.8339    4.0844 C.2       1 RES1    0.0000
      5 C4         6.6764    8.5098    6.3345 C.ar      1 RES1    0.0000
      6 C5         6.1527    6.3130    5.2019 C.ar      1 RES1    0.0000
      7 C6         7.8437    9.0629    6.8402 C.ar      1 RES1    0.0000
      8 H2         8.6696    8.8236    6.4849 H         1 RES1    0.0000
      9 C7         5.4402    8.8532    6.8554 C.ar      1 RES1    0.0000
     10 H3         4.6621    8.4871    6.5031 H         1 RES1    0.0000
     11 C8         6.4738    5.6721    3.9986 C.ar      1 RES1    0.0000
     12 C9         7.7687    9.9720    7.8770 C.ar      1 RES1    0.0000
     13 H4         8.5451   10.3524    8.2182 H         1 RES1    0.0000
     14 C10        6.0042    4.3876    3.7492 C.ar      1 RES1    0.0000
     15 H5         6.2192    3.9493    2.9578 H         1 RES1    0.0000
     16 C11        5.3765    5.7000    6.1568 C.ar      1 RES1    0.0000
     17 H6         5.1741    6.1248    6.9594 H         1 RES1    0.0000
     18 C12        5.3815    9.7476    7.9063 C.ar      1 RES1    0.0000
     19 H7         4.5585    9.9694    8.2788 H         1 RES1    0.0000
     20 C13        6.5380   10.3172    8.4090 C.ar      1 RES1    0.0000
     21 H8         6.4885   10.9327    9.1055 H         1 RES1    0.0000
     22 C14        5.2130    3.7748    4.7001 C.ar      1 RES1    0.0000
     23 H9         4.8850    2.9189    4.5457 H         1 RES1    0.0000
     24 C15        4.9063    4.4216    5.8772 C.ar      1 RES1    0.0000
     25 H10        4.3685    3.9901    6.5021 H         1 RES1    0.0000
     26 C16        8.3532    3.9479   -0.2917 C.3       1 RES1    0.0000
     27 H11        8.8394    3.4337    0.3563 H         1 RES1    0.0000
     28 H12        8.7894    3.8833   -1.1448 H         1 RES1    0.0000
     29 H13        7.4578    3.6079   -0.3634 H         1 RES1    0.0000
     30 C17        7.5215    6.2868   -0.7773 C.3       1 RES1    0.0000
     31 H14        6.6209    5.9622   -0.8429 H         1 RES1    0.0000
     32 H15        7.9269    6.2856   -1.6475 H         1 RES1    0.0000
     33 H16        7.5134    7.1818   -0.4290 H         1 RES1    0.0000
     34 O1         8.0506    8.8622    3.8068 O.2       1 RES1    0.0000
     35 O2         7.6835    5.3636    1.4603 O.3       1 RES1    0.0000
     36 N1         6.7629    7.5899    5.2474 N.am      1 RES1    0.0000
     37 N2         7.9033    6.5711    2.1031 N.2       1 RES1    0.0000
@<TRIPOS>BOND
     1    1    2 1
     2    3    4 1
     3    4   34 2
     4    5    7 ar
     5    6   11 ar
     6    7    8 1
     7    9    5 ar
     8   10    9 1
     9   11    3 1
    10   12    7 ar
    11   13   12 1
    12   14   11 ar
    13   15   14 1
    14   16    6 ar
    15   17   16 1
    16   18    9 ar
    17   19   18 1
    18   20   12 ar
    19   21   20 1
    20   22   14 ar
    21   23   22 1
    22   24   16 ar
    23   25   24 1
    24   26    1 1
    25   27   26 1
    26   28   26 1
    27   29   26 1
    28   30    1 1
    29   31   30 1
    30   32   30 1
    31   33   30 1
    32   35    1 1
    33   36    4 1
    34   37    3 2
    35    5   36 1
    36    6   36 1
    37   18   20 ar
    38   22   24 ar
    39   35   37 1
@<TRIPOS>SUBSTRUCTURE
     1 RES1 1

@<TRIPOS>CRYSIN
   8.7349    9.1451   10.7927  74.9305  71.3666  68.1172   2 1

