# MOL2 file generated by ConQuest
# Please check atom types

@<TRIPOS>MOLECULE
AHIJIL
    60    62     2
SMALL
USER_CHARGES
****
Generated from CSD

@<TRIPOS>ATOM
      1 N1         1.7271    2.5774   18.9276 N.am      1 RES1    0.0000
      2 C1         1.7271    3.2623   17.7393 C.2       1 RES1    0.0000
      3 O1         1.7271    4.4754   17.6450 O.2       1 RES1    0.0000
      4 C2         1.7271    2.1894   16.6878 C.2       1 RES1    0.0000
      5 C3         1.7271    0.9151   17.3610 C.ar      1 RES1    0.0000
      6 C4         1.7271   -0.4058   16.9172 C.ar      1 RES1    0.0000
      7 H1         1.7271   -0.6049   16.0082 H         1 RES1    0.0000
      8 C5         1.7271   -1.4221   17.8720 C.ar      1 RES1    0.0000
      9 H2         1.7271   -2.3795   17.5713 H         1 RES1    0.0000
     10 C6         1.7271   -1.1253   19.2180 C.ar      1 RES1    0.0000
     11 H3         1.7271   -1.8202   19.8357 H         1 RES1    0.0000
     12 C7         1.7271    0.1879   19.6765 C.ar      1 RES1    0.0000
     13 H4         1.7271    0.3814   20.5866 H         1 RES1    0.0000
     14 C8         1.7271    1.1953   18.7298 C.ar      1 RES1    0.0000
     15 C9         1.7271    3.2468   20.2079 C.3       1 RES1    0.0000
     16 H5         1.7271    4.1975   20.0724 H         1 RES1    0.0000
     17 H6         2.5112    2.9933   20.7005 H         1 RES1    0.0000
     18 N2         1.7271    2.3806   15.3795 N.pl3     1 RES1    1.0000
     19 O2         1.7271    1.3877   14.5900 O.2       1 RES1   -1.0000
     20 C10        1.7271    3.7371   14.7156 C.3       1 RES1    0.0000
     21 H7         1.7271    4.3364   15.4765 H         1 RES1    0.0000
     22 C11        0.4684    3.8594   13.8862 C.3       1 RES1    0.0000
     23 H8         0.4767    3.1133   13.2764 H         1 RES1    0.0000
     24 H9         0.4767    4.7145   13.4283 H         1 RES1    0.0000
     25 H10       -0.3109    3.7805   14.5123 H         1 RES1    0.0000
     26 N3         5.1813    1.9425   17.4048 N.am      2 RES2    0.0000
     27 C12        5.1813    3.3046   17.5652 C.2       2 RES2    0.0000
     28 O3         5.1813    4.1018   16.6440 O.2       2 RES2    0.0000
     29 C13        5.1813    3.5259   19.0360 C.2       2 RES2    0.0000
     30 C14        5.1813    2.2294   19.6759 C.ar      2 RES2    0.0000
     31 C15        5.1813    1.8046   20.9945 C.ar      2 RES2    0.0000
     32 H11        5.1813    2.4206   21.6910 H         2 RES2    0.0000
     33 C16        5.1813    0.4392   21.2551 C.ar      2 RES2    0.0000
     34 H12        5.1813    0.1379   22.1351 H         2 RES2    0.0000
     35 C17        5.1813   -0.4792   20.2126 C.ar      2 RES2    0.0000
     36 H13        5.1813   -1.3888   20.4084 H         2 RES2    0.0000
     37 C18        5.1813   -0.0767   18.8908 C.ar      2 RES2    0.0000
     38 H14        5.1813   -0.6972   18.1966 H         2 RES2    0.0000
     39 C19        5.1813    1.2854   18.6354 C.ar      2 RES2    0.0000
     40 C20        5.1813    1.2742   16.1166 C.3       2 RES2    0.0000
     41 H15        5.1813    1.9314   15.4151 H         2 RES2    0.0000
     42 H16        4.3972    0.7261   16.0404 H         2 RES2    0.0000
     43 N4         5.1813    4.6856   19.6677 N.pl3     2 RES2    1.0000
     44 O4         5.1813    4.7412   20.9389 O.2       2 RES2   -1.0000
     45 C21        5.1813    6.0076   18.9440 C.3       2 RES2    0.0000
     46 H17        5.1813    5.7931   18.0008 H         2 RES2    0.0000
     47 C22        6.4462    6.7515   19.3109 C.3       2 RES2    0.0000
     48 H18        6.4317    7.6388   18.8335 H         2 RES2    0.0000
     49 H19        6.4594    6.8716   20.2184 H         2 RES2    0.0000
     50 H20        7.2607    6.2378   19.0293 H         2 RES2    0.0000
     51 H6F        0.9430    2.9933   20.7005 H         1 RES1    0.0000
     52 C11F       2.9858    3.8594   13.8862 C.3       1 RES1    0.0000
     53 H8F        2.9775    3.1133   13.2764 H         1 RES1    0.0000
     54 H9F        2.9775    4.7145   13.4283 H         1 RES1    0.0000
     55 H10F       3.7651    3.7805   14.5123 H         1 RES1    0.0000
     56 H16F       5.9654    0.7261   16.0404 H         2 RES2    0.0000
     57 C22F       3.9164    6.7515   19.3109 C.3       2 RES2    0.0000
     58 H18F       3.9309    7.6388   18.8335 H         2 RES2    0.0000
     59 H19F       3.9032    6.8716   20.2184 H         2 RES2    0.0000
     60 H20F       3.1019    6.2378   19.0293 H         2 RES2    0.0000
@<TRIPOS>BOND
     1    1    2 1
     2    2    3 2
     3    4    2 1
     4    5    4 1
     5    6    5 ar
     6    7    6 1
     7    8    6 ar
     8    9    8 1
     9   10    8 ar
    10   11   10 1
    11   12   10 ar
    12   13   12 1
    13   14    1 1
    14   15    1 1
    15   16   15 1
    16   17   15 1
    17   18    4 2
    18   19   18 1
    19   20   18 1
    20   21   20 1
    21   22   20 1
    22   23   22 1
    23   24   22 1
    24   25   22 1
    25   26   27 1
    26   27   28 2
    27   29   27 1
    28   30   29 1
    29   31   30 ar
    30   32   31 1
    31   33   31 ar
    32   34   33 1
    33   35   33 ar
    34   36   35 1
    35   37   35 ar
    36   38   37 1
    37   39   26 1
    38   40   26 1
    39   41   40 1
    40   42   40 1
    41   43   29 2
    42   44   43 1
    43   45   43 1
    44   46   45 1
    45   47   45 1
    46   48   47 1
    47   49   47 1
    48   50   47 1
    49   51   15 1
    50   52   20 1
    51   53   52 1
    52   54   52 1
    53   55   52 1
    54   56   40 1
    55   57   45 1
    56   58   57 1
    57   59   57 1
    58   60   57 1
    59    5   14 ar
    60   12   14 ar
    61   30   39 ar
    62   37   39 ar
@<TRIPOS>SUBSTRUCTURE
     1 RES1 1
     2 RES2 26

@<TRIPOS>CRYSIN
   6.9084   11.1191   29.2174  90.0000  90.0000  90.0000  62 3

