# MOL2 file generated by ConQuest
# Please check atom types

@<TRIPOS>MOLECULE
AHORUM
    28    29     1
SMALL
NO_CHARGES
****
Generated from CSD

@<TRIPOS>ATOM
      1 C1         0.4830    2.2166   13.7215 C.ar      1 RES1    0.0000
      2 N1         1.0552   -1.3403   17.2903 N.pl3     1 RES1    0.0000
      3 C2         1.1453    3.4705   11.7576 C.ar      1 RES1    0.0000
      4 H1         1.7095    3.5939   11.0033 H         1 RES1    0.0000
      5 O1        -1.7923    1.7883   16.4210 O.2       1 RES1    0.0000
      6 C3         0.1311    4.3647   12.0291 C.ar      1 RES1    0.0000
      7 O2        -1.0779    6.2084   11.3174 O.2       1 RES1    0.0000
      8 N2         1.9645   -0.7250   15.2014 N.2       1 RES1    0.0000
      9 O3        -0.4685    0.9317   18.0358 O.3       1 RES1    0.0000
     10 C4         1.3251    2.3959   12.5986 C.ar      1 RES1    0.0000
     11 H2         2.0191    1.7704   12.4243 H         1 RES1    0.0000
     12 O4         0.0513   -2.0224   17.4093 O.2       1 RES1    0.0000
     13 C5         1.0907   -0.4444   16.1229 C.2       1 RES1    0.0000
     14 O5         2.0291   -1.3368   18.0302 O.2       1 RES1    0.0000
     15 N3        -0.0653    5.5335   11.1625 N.pl3     1 RES1    0.0000
     16 C6         0.2553    0.6600   15.8522 C.2       1 RES1    0.0000
     17 C7        -0.5420    3.1393   13.9603 C.ar      1 RES1    0.0000
     18 H3        -1.1147    3.0279   14.7102 H         1 RES1    0.0000
     19 C8        -0.7952    1.2063   16.7625 C.2       1 RES1    0.0000
     20 C9        -0.7240    4.2122   13.1089 C.ar      1 RES1    0.0000
     21 H4        -1.4243    4.8359   13.2614 H         1 RES1    0.0000
     22 O6         0.8118    5.7968   10.3330 O.2       1 RES1    0.0000
     23 C10       -1.4060    1.4309   19.0333 C.3       1 RES1    0.0000
     24 H5        -1.0909    1.1866   19.9289 H         1 RES1    0.0000
     25 H6        -1.4681    2.4066   18.9640 H         1 RES1    0.0000
     26 H7        -2.2889    1.0353   18.8789 H         1 RES1    0.0000
     27 C11        0.7326    1.1003   14.6290 C.2       1 RES1    0.0000
     28 O7         1.7320    0.2639   14.2322 O.3       1 RES1    0.0000
@<TRIPOS>BOND
     1    1   10 ar
     2    2   12 2
     3    3    4 1
     4    5   19 2
     5    6    3 ar
     6    7   15 2
     7    8   13 2
     8    9   19 1
     9   10    3 ar
    10   11   10 1
    11   13    2 1
    12   14    2 2
    13   15    6 1
    14   16   13 1
    15   17    1 ar
    16   18   17 1
    17   19   16 1
    18   20    6 ar
    19   21   20 1
    20   22   15 2
    21   23    9 1
    22   24   23 1
    23   25   23 1
    24   26   23 1
    25   27    1 1
    26   28    8 1
    27   16   27 2
    28   17   20 ar
    29   27   28 1
@<TRIPOS>SUBSTRUCTURE
     1 RES1 1

@<TRIPOS>CRYSIN
   5.0040    5.9570   39.8270  90.0000  91.9630  90.0000  14 1

