# MOL2 file generated by ConQuest
# Please check atom types

@<TRIPOS>MOLECULE
AHOVOI
    60    61     1
SMALL
NO_CHARGES
****
Generated from CSD

@<TRIPOS>ATOM
      1 N1         0.5621    2.4293    3.4308 N.pl3     1 RES1    0.0000
      2 N2         8.0015    7.8655    7.9089 N.am      1 RES1    0.0000
      3 C1         1.6723    2.6934    4.3628 C.ar      1 RES1    0.0000
      4 C2         1.4378    2.5666    5.7247 C.ar      1 RES1    0.0000
      5 H1         0.5816    2.3184    6.0547 H         1 RES1    0.0000
      6 C3         2.4919    2.8144    6.5857 C.ar      1 RES1    0.0000
      7 H2         2.3645    2.7234    7.5227 H         1 RES1    0.0000
      8 C4         3.7362    3.1947    6.0954 C.ar      1 RES1    0.0000
      9 C5         3.9303    3.3108    4.7200 C.ar      1 RES1    0.0000
     10 H3         4.7816    3.5652    4.3826 H         1 RES1    0.0000
     11 C6         2.8892    3.0580    3.8455 C.ar      1 RES1    0.0000
     12 H4         3.0137    3.1344    2.9070 H         1 RES1    0.0000
     13 C7         4.8373    3.4468    7.0815 C.2       1 RES1    0.0000
     14 C8         7.2237    3.7462    7.2891 C.3       1 RES1    0.0000
     15 H5         6.9498    3.9899    8.2195 H         1 RES1    0.0000
     16 C9         7.9400    2.3924    7.3144 C.3       1 RES1    0.0000
     17 H6         8.1214    2.1160    6.3710 H         1 RES1    0.0000
     18 C10        7.0661    1.3535    7.9487 C.2       1 RES1    0.0000
     19 H7         6.8472    1.4614    8.8672 H         1 RES1    0.0000
     20 C11        6.5842    0.3122    7.3304 C.2       1 RES1    0.0000
     21 H8         6.7811    0.1720    6.4113 H         1 RES1    0.0000
     22 H9         6.0353   -0.3060    7.7987 H         1 RES1    0.0000
     23 C12        9.2822    2.5034    8.0495 C.3       1 RES1    0.0000
     24 H10        9.7323    1.6334    8.0419 H         1 RES1    0.0000
     25 H11        9.1248    2.7827    8.9756 H         1 RES1    0.0000
     26 H12        9.8470    3.1664    7.5996 H         1 RES1    0.0000
     27 C13        8.0241    4.8916    6.6870 C.3       1 RES1    0.0000
     28 H13        8.7903    5.0875    7.2984 H         1 RES1    0.0000
     29 C14        8.5946    4.5497    5.3073 C.3       1 RES1    0.0000
     30 H14        9.1396    3.7372    5.3717 H         1 RES1    0.0000
     31 H15        9.1496    5.2930    4.9899 H         1 RES1    0.0000
     32 H16        7.8593    4.4009    4.6774 H         1 RES1    0.0000
     33 C15        7.1912    6.1727    6.5458 C.3       1 RES1    0.0000
     34 H17        6.6686    6.1120    5.6956 H         1 RES1    0.0000
     35 C16        6.8225    7.2951    8.5988 C.3       1 RES1    0.0000
     36 C17        8.0346    7.4490    6.4971 C.3       1 RES1    0.0000
     37 H18        8.9725    7.2294    6.2261 H         1 RES1    0.0000
     38 C18        7.2235    6.5049    9.8332 C.3       1 RES1    0.0000
     39 H19        7.8964    5.8365    9.5880 H         1 RES1    0.0000
     40 H20        6.4352    6.0557   10.2029 H         1 RES1    0.0000
     41 H21        7.5976    7.1137   10.5041 H         1 RES1    0.0000
     42 C19        5.7729    8.3341    8.9069 C.3       1 RES1    0.0000
     43 H22        5.5533    8.8293    8.0897 H         1 RES1    0.0000
     44 H23        6.1163    8.9556    9.5829 H         1 RES1    0.0000
     45 H24        4.9674    7.8931    9.2478 H         1 RES1    0.0000
     46 C20        7.4475    8.4979    5.5495 C.3       1 RES1    0.0000
     47 H25        8.0263    9.2890    5.5381 H         1 RES1    0.0000
     48 H26        6.5530    8.7516    5.8581 H         1 RES1    0.0000
     49 H27        7.3873    8.1245    4.6459 H         1 RES1    0.0000
     50 C21        8.8608    8.7273    8.5033 C.2       1 RES1    0.0000
     51 C22       10.0779    9.1293    7.7068 C.3       1 RES1    0.0000
     52 H28       10.6212    9.7533    8.2321 H         1 RES1    0.0000
     53 H29        9.7954    9.5630    6.8750 H         1 RES1    0.0000
     54 H30       10.6086    8.3330    7.4962 H         1 RES1    0.0000
     55 O1        -0.5723    2.3547    3.8909 O.2       1 RES1    0.0000
     56 O2         0.8076    2.3293    2.2365 O.2       1 RES1    0.0000
     57 O3         4.6662    3.5029    8.2687 O.2       1 RES1    0.0000
     58 O4         6.0196    3.5894    6.4565 O.3       1 RES1    0.0000
     59 O5         6.2723    6.4026    7.6172 O.3       1 RES1    0.0000
     60 O6         8.6827    9.1491    9.6443 O.2       1 RES1    0.0000
@<TRIPOS>BOND
     1    1    3 1
     2    2   35 1
     3    3    4 ar
     4    4    5 1
     5    6    4 ar
     6    7    6 1
     7    8    6 ar
     8    9    8 ar
     9   10    9 1
    10   11    3 ar
    11   12   11 1
    12   13    8 1
    13   14   15 1
    14   16   14 1
    15   17   16 1
    16   18   16 1
    17   19   18 1
    18   20   18 2
    19   21   20 1
    20   22   20 1
    21   23   16 1
    22   24   23 1
    23   25   23 1
    24   26   23 1
    25   27   14 1
    26   28   27 1
    27   29   27 1
    28   30   29 1
    29   31   29 1
    30   32   29 1
    31   33   27 1
    32   34   33 1
    33   35   38 1
    34   36    2 1
    35   37   36 1
    36   38   39 1
    37   40   38 1
    38   41   38 1
    39   42   35 1
    40   43   42 1
    41   44   42 1
    42   45   42 1
    43   46   36 1
    44   47   46 1
    45   48   46 1
    46   49   46 1
    47   50    2 1
    48   51   50 1
    49   52   51 1
    50   53   51 1
    51   54   51 1
    52   55    1 2
    53   56    1 2
    54   57   13 2
    55   58   13 1
    56   59   33 1
    57   60   50 2
    58    9   11 ar
    59   14   58 1
    60   33   36 1
    61   35   59 1
@<TRIPOS>SUBSTRUCTURE
     1 RES1 1

@<TRIPOS>CRYSIN
  11.7459   15.2229   12.6890  90.0000  96.7580  90.0000  14 1

