# MOL2 file generated by ConQuest
# Please check atom types

@<TRIPOS>MOLECULE
AHUHEQ
    72    72     1
SMALL
NO_CHARGES
****
Generated from CSD

@<TRIPOS>ATOM
      1 N1         7.5053    3.7122    8.7764 N.3       1 RES1    0.0000
      2 H1         7.9191    2.9805    8.5947 H         1 RES1    0.0000
      3 C1         7.4507    4.6330    7.8122 C.ar      1 RES1    0.0000
      4 C2         8.0476    4.5017    6.5402 C.ar      1 RES1    0.0000
      5 C3         7.9622    5.4889    5.5694 C.ar      1 RES1    0.0000
      6 H2         8.3617    5.3717    4.7377 H         1 RES1    0.0000
      7 C4         7.2820    6.6312    5.8559 C.ar      1 RES1    0.0000
      8 C5         6.6890    6.8253    7.0820 C.ar      1 RES1    0.0000
      9 H3         6.2306    7.6162    7.2539 H         1 RES1    0.0000
     10 C6         6.7667    5.8685    8.0430 C.ar      1 RES1    0.0000
     11 H4         6.3688    6.0195    8.8681 H         1 RES1    0.0000
     12 N2         8.7940    3.3248    6.1669 N.pl3     1 RES1    0.0000
     13 O1         8.8827    2.3870    6.9707 O.2       1 RES1    0.0000
     14 O2         9.3419    3.2846    5.0733 O.2       1 RES1    0.0000
     15 N3         7.1705    7.6713    4.8327 N.pl3     1 RES1    0.0000
     16 O3         7.8019    7.5266    3.7866 O.2       1 RES1    0.0000
     17 O4         6.4661    8.6401    5.0717 O.2       1 RES1    0.0000
     18 C7         6.9248    3.8321   10.1155 C.3       1 RES1    0.0000
     19 H5         7.0739    4.7346   10.4381 H         1 RES1    0.0000
     20 H6         7.3946    3.2274   10.7114 H         1 RES1    0.0000
     21 C8         5.4383    3.5287   10.1827 C.3       1 RES1    0.0000
     22 H7         5.1306    3.6571   11.0929 H         1 RES1    0.0000
     23 H8         4.9638    4.1581    9.6179 H         1 RES1    0.0000
     24 C9         5.0955    2.1140    9.7407 C.3       1 RES1    0.0000
     25 H9         5.2657    2.0300    8.7895 H         1 RES1    0.0000
     26 H10        5.6799    1.4895   10.2007 H         1 RES1    0.0000
     27 C10        3.6566    1.7435   10.0206 C.3       1 RES1    0.0000
     28 H11        3.4748    1.8938   10.9619 H         1 RES1    0.0000
     29 H12        3.0782    2.3341    9.5131 H         1 RES1    0.0000
     30 C11        3.3038    0.3147    9.6834 C.3       1 RES1    0.0000
     31 H13        3.4680    0.1679    8.7388 H         1 RES1    0.0000
     32 H14        3.8928   -0.2766   10.1794 H         1 RES1    0.0000
     33 C12        1.8749   -0.0550    9.9895 C.3       1 RES1    0.0000
     34 H15        1.2899    0.4713    9.4231 H         1 RES1    0.0000
     35 H16        1.6819    0.1806   10.9095 H         1 RES1    0.0000
     36 C13        1.5612   -1.5185    9.7865 C.3       1 RES1    0.0000
     37 H17        1.7759   -1.7569    8.8714 H         1 RES1    0.0000
     38 H18        2.1344   -2.0413   10.3693 H         1 RES1    0.0000
     39 C14        0.1312   -1.8952   10.0550 C.3       1 RES1    0.0000
     40 H19       -0.4416   -1.4034    9.4443 H         1 RES1    0.0000
     41 H20       -0.0996   -1.6186   10.9570 H         1 RES1    0.0000
     42 C15       -0.1676   -3.3699    9.9125 C.3       1 RES1    0.0000
     43 H21        0.4017   -3.8625   10.5248 H         1 RES1    0.0000
     44 H22        0.0598   -3.6472    9.0122 H         1 RES1    0.0000
     45 C16       -1.6119   -3.7425   10.1859 C.3       1 RES1    0.0000
     46 H23       -2.1817   -3.2698    9.5573 H         1 RES1    0.0000
     47 H24       -1.8504   -3.4426   11.0782 H         1 RES1    0.0000
     48 C17       -1.8964   -5.2271   10.0795 C.3       1 RES1    0.0000
     49 H25       -1.3458   -5.6984   10.7245 H         1 RES1    0.0000
     50 H26       -1.6397   -5.5326    9.1939 H         1 RES1    0.0000
     51 C18       -3.3561   -5.5862   10.3202 C.3       1 RES1    0.0000
     52 H27       -3.6112   -5.2793   11.2042 H         1 RES1    0.0000
     53 H28       -3.9050   -5.1149    9.6735 H         1 RES1    0.0000
     54 C19       -3.6406   -7.0666   10.2154 C.3       1 RES1    0.0000
     55 H29       -3.0977   -7.5365   10.8686 H         1 RES1    0.0000
     56 H30       -3.3776   -7.3756    9.3347 H         1 RES1    0.0000
     57 C20       -5.0960   -7.4194   10.4413 C.3       1 RES1    0.0000
     58 H31       -5.6391   -6.9368    9.7980 H         1 RES1    0.0000
     59 H32       -5.3580   -7.1230   11.3270 H         1 RES1    0.0000
     60 C21       -5.3925   -8.9026   10.3153 C.3       1 RES1    0.0000
     61 H33       -5.1142   -9.1968    9.4329 H         1 RES1    0.0000
     62 H34       -4.8514   -9.3795   10.9652 H         1 RES1    0.0000
     63 C22       -6.8181   -9.2913   10.5117 C.3       1 RES1    0.0000
     64 H35       -7.3632   -8.8482    9.8438 H         1 RES1    0.0000
     65 H36       -7.1112   -8.9865   11.3843 H         1 RES1    0.0000
     66 C23       -7.0337  -10.8041   10.4119 C.3       1 RES1    0.0000
     67 H37       -6.8419  -11.0553    9.4935 H         1 RES1    0.0000
     68 H38       -6.3536  -11.2226   10.9619 H         1 RES1    0.0000
     69 C24       -8.1218  -11.3333   10.7131 C.3       1 RES1    0.0000
     70 H39       -8.0599  -12.2845   10.6001 H         1 RES1    0.0000
     71 H40       -8.8146  -10.9890   10.1434 H         1 RES1    0.0000
     72 H41       -8.3347  -11.1330   11.6282 H         1 RES1    0.0000
@<TRIPOS>BOND
     1    1    2 1
     2    3    1 1
     3    4    3 ar
     4    5    4 ar
     5    6    5 1
     6    7    5 ar
     7    8    7 ar
     8    9    8 1
     9   10    3 ar
    10   11   10 1
    11   12    4 1
    12   13   12 2
    13   14   12 2
    14   15    7 1
    15   16   15 2
    16   17   15 2
    17   18    1 1
    18   19   18 1
    19   20   18 1
    20   21   18 1
    21   22   21 1
    22   23   21 1
    23   24   21 1
    24   25   24 1
    25   26   24 1
    26   27   24 1
    27   28   27 1
    28   29   27 1
    29   30   27 1
    30   31   30 1
    31   32   30 1
    32   33   30 1
    33   34   33 1
    34   35   33 1
    35   36   33 1
    36   37   36 1
    37   38   36 1
    38   39   36 1
    39   40   39 1
    40   41   39 1
    41   42   39 1
    42   43   42 1
    43   44   42 1
    44   45   42 1
    45   46   45 1
    46   47   45 1
    47   48   45 1
    48   49   48 1
    49   50   48 1
    50   51   48 1
    51   52   51 1
    52   53   51 1
    53   54   51 1
    54   55   54 1
    55   56   54 1
    56   57   54 1
    57   58   57 1
    58   59   57 1
    59   60   57 1
    60   61   60 1
    61   62   60 1
    62   63   60 1
    63   64   63 1
    64   65   63 1
    65   66   63 1
    66   67   66 1
    67   68   66 1
    68   69   66 1
    69   70   69 1
    70   71   69 1
    71   72   69 1
    72    8   10 ar
@<TRIPOS>SUBSTRUCTURE
     1 RES1 1

@<TRIPOS>CRYSIN
  43.8180    7.0560   16.8260  90.0000 103.3570  90.0000  15 1

