# MOL2 file generated by ConQuest
# Please check atom types

@<TRIPOS>MOLECULE
AJAPUY
    43    47     1
SMALL
NO_CHARGES
****
Generated from CSD

@<TRIPOS>ATOM
      1 O1         1.7945    6.3324   14.8633 O.2       1 RES1    0.0000
      2 O2        -0.3196    5.9354   14.7017 O.2       1 RES1    0.0000
      3 N1         1.5933    5.9179    8.6948 N.3       1 RES1    0.0000
      4 N2         0.8079    5.9821   14.2209 N.pl3     1 RES1    0.0000
      5 C1         2.7315    6.7644    8.6402 C.ar      1 RES1    0.0000
      6 C2         3.3994    7.2533    7.5408 C.ar      1 RES1    0.0000
      7 H1         3.1425    7.0314    6.6750 H         1 RES1    0.0000
      8 C3         4.4773    8.0953    7.7909 C.ar      1 RES1    0.0000
      9 H2         4.9430    8.4544    7.0703 H         1 RES1    0.0000
     10 C4         4.8774    8.4164    9.0623 C.ar      1 RES1    0.0000
     11 H3         5.6029    8.9856    9.1797 H         1 RES1    0.0000
     12 C5         4.2158    7.9042   10.1957 C.ar      1 RES1    0.0000
     13 H4         4.4982    8.1041   11.0594 H         1 RES1    0.0000
     14 C6         3.1145    7.0796    9.9569 C.ar      1 RES1    0.0000
     15 C7         2.1685    6.4024   10.8216 C.ar      1 RES1    0.0000
     16 C8         2.0322    6.4433   12.2176 C.ar      1 RES1    0.0000
     17 H5         2.6487    6.8943   12.7477 H         1 RES1    0.0000
     18 C9         0.9583    5.7953   12.7776 C.ar      1 RES1    0.0000
     19 C10        0.0346    5.0014   12.0240 C.ar      1 RES1    0.0000
     20 C11       -1.0250    4.2410   12.5995 C.ar      1 RES1    0.0000
     21 H6        -1.1683    4.2717   13.5178 H         1 RES1    0.0000
     22 C12       -1.8390    3.4617   11.8089 C.ar      1 RES1    0.0000
     23 H7        -2.5460    3.0005   12.2011 H         1 RES1    0.0000
     24 C13       -1.6337    3.3464   10.4593 C.ar      1 RES1    0.0000
     25 H8        -2.1736    2.7846    9.9517 H         1 RES1    0.0000
     26 C14       -0.6310    4.0601    9.8612 C.ar      1 RES1    0.0000
     27 H9        -0.5031    3.9813    8.9439 H         1 RES1    0.0000
     28 C15        0.2060    4.9065   10.5972 C.ar      1 RES1    0.0000
     29 C16        1.2537    5.7019   10.0145 C.ar      1 RES1    0.0000
     30 C17        0.8773    5.5253    7.4790 C.3       1 RES1    0.0000
     31 H10        1.0536    6.1850    6.7893 H         1 RES1    0.0000
     32 H11       -0.0751    5.5414    7.6612 H         1 RES1    0.0000
     33 C18        1.2416    4.1710    6.9529 C.ar      1 RES1    0.0000
     34 C19        2.4569    3.5770    7.2175 C.ar      1 RES1    0.0000
     35 H12        3.0807    4.0090    7.7549 H         1 RES1    0.0000
     36 C20        2.7486    2.3102    6.6709 C.ar      1 RES1    0.0000
     37 H13        3.5657    1.9089    6.8685 H         1 RES1    0.0000
     38 C21        1.8746    1.6681    5.8648 C.ar      1 RES1    0.0000
     39 H14        2.0785    0.8333    5.5076 H         1 RES1    0.0000
     40 C22        0.6540    2.2869    5.5838 C.ar      1 RES1    0.0000
     41 H15        0.0411    1.8622    5.0299 H         1 RES1    0.0000
     42 C23        0.3500    3.5201    6.1160 C.ar      1 RES1    0.0000
     43 H16       -0.4648    3.9185    5.9122 H         1 RES1    0.0000
@<TRIPOS>BOND
     1    1    4 2
     2    2    4 2
     3    3    5 1
     4    4   18 1
     5    5    6 ar
     6    6    7 1
     7    8    6 ar
     8    9    8 1
     9   10    8 ar
    10   11   10 1
    11   12   10 ar
    12   13   12 1
    13   14    5 ar
    14   15   14 1
    15   16   15 ar
    16   17   16 1
    17   18   16 ar
    18   19   18 ar
    19   20   19 ar
    20   21   20 1
    21   22   20 ar
    22   23   22 1
    23   24   22 ar
    24   25   24 1
    25   26   24 ar
    26   27   26 1
    27   28   19 ar
    28   29    3 1
    29   30    3 1
    30   31   30 1
    31   32   30 1
    32   33   30 1
    33   34   33 ar
    34   35   34 1
    35   36   34 ar
    36   37   36 1
    37   38   36 ar
    38   39   38 1
    39   40   38 ar
    40   41   40 1
    41   42   33 ar
    42   43   42 1
    43   12   14 ar
    44   15   29 ar
    45   26   28 ar
    46   28   29 ar
    47   40   42 ar
@<TRIPOS>SUBSTRUCTURE
     1 RES1 1

@<TRIPOS>CRYSIN
   5.7929   14.5941   10.6740  90.0000 105.3230  90.0000   4 1

