# MOL2 file generated by ConQuest
# Please check atom types

@<TRIPOS>MOLECULE
AJAWEN
   109   111     1
SMALL
NO_CHARGES
****
Generated from CSD

@<TRIPOS>ATOM
      1 O1         3.9795    2.4436    7.2094 O.2       1 RES1    0.0000
      2 O2         4.9050    0.6790    3.0864 O.2       1 RES1    0.0000
      3 O3         7.7572    2.6404    1.4020 O.2       1 RES1    0.0000
      4 O4         9.3331   -0.4248    1.2048 O.3       1 RES1    0.0000
      5 O5         1.6921    2.0484    2.7848 O.2       1 RES1    0.0000
      6 O6         3.7923    5.7466    1.2338 O.2       1 RES1    0.0000
      7 O7         7.6156    6.1598    1.9377 O.2       1 RES1    0.0000
      8 O8         8.2045    6.2960   -1.4523 O.3       1 RES1    0.0000
      9 O9         2.4896    6.7322    4.6026 O.2       1 RES1    0.0000
     10 O10        6.1251    5.1496    6.5732 O.2       1 RES1    0.0000
     11 O11        8.6755    3.2652    5.0532 O.2       1 RES1    0.0000
     12 O12       10.5703    5.6760    6.6293 O.3       1 RES1    0.0000
     13 N1         4.7120    3.8064    3.8503 N.3       1 RES1    0.0000
     14 N2         3.5620    1.9942    5.0609 N.am      1 RES1    0.0000
     15 H1         3.0149    1.6597    4.4885 H         1 RES1    0.0000
     16 N3         6.8507    1.6023    3.7091 N.am      1 RES1    0.0000
     17 H2         7.2253    2.1910    4.2119 H         1 RES1    0.0000
     18 N4         8.8490    0.8020    0.7697 N.am      1 RES1    0.0000
     19 N5         2.4714    4.1541    2.8505 N.am      1 RES1    0.0000
     20 H3         2.2748    4.9758    3.0110 H         1 RES1    0.0000
     21 N6         5.6386    4.4592    1.1642 N.am      1 RES1    0.0000
     22 H4         6.0219    3.7654    1.4987 H         1 RES1    0.0000
     23 N7         8.1986    6.7420   -0.1083 N.am      1 RES1    0.0000
     24 N8         3.6466    5.1070    5.6449 N.am      1 RES1    0.0000
     25 H5         3.6531    4.5461    6.2966 H         1 RES1    0.0000
     26 N9         7.0746    5.4432    4.5813 N.am      1 RES1    0.0000
     27 H6         6.9606    5.4825    3.7304 H         1 RES1    0.0000
     28 N10       10.2516    4.4477    6.0781 N.am      1 RES1    0.0000
     29 C1         4.8088    2.5453    4.5890 C.3       1 RES1    0.0000
     30 H7         5.3704    2.7093    5.3761 H         1 RES1    0.0000
     31 C2         3.2232    1.9877    6.3624 C.2       1 RES1    0.0000
     32 C3         1.8794    1.4580    6.7453 C.ar      1 RES1    0.0000
     33 C4         1.5141    1.5547    8.0700 C.ar      1 RES1    0.0000
     34 H8         2.1171    1.8942    8.6907 H         1 RES1    0.0000
     35 C5         0.2691    1.1578    8.4780 C.ar      1 RES1    0.0000
     36 H9         0.0275    1.2513    9.3715 H         1 RES1    0.0000
     37 C6        -0.6211    0.6281    7.5942 C.ar      1 RES1    0.0000
     38 H10       -1.4607    0.3510    7.8824 H         1 RES1    0.0000
     39 C7        -0.2725    0.5068    6.2812 C.ar      1 RES1    0.0000
     40 H11       -0.8704    0.1345    5.6739 H         1 RES1    0.0000
     41 C8         0.9607    0.9348    5.8576 C.ar      1 RES1    0.0000
     42 H12        1.1806    0.8708    4.9565 H         1 RES1    0.0000
     43 C9         5.5266    1.5104    3.7246 C.2       1 RES1    0.0000
     44 C10        7.6940    0.7642    2.8950 C.3       1 RES1    0.0000
     45 H13        7.2191   -0.0508    2.6668 H         1 RES1    0.0000
     46 H14        8.4885    0.5199    3.3939 H         1 RES1    0.0000
     47 C11        8.0988    1.4924    1.6186 C.2       1 RES1    0.0000
     48 C12        9.5040    1.3842   -0.3848 C.3       1 RES1    0.0000
     49 H15        9.3860    0.8085   -1.1429 H         1 RES1    0.0000
     50 H16       10.4409    1.4858   -0.2031 H         1 RES1    0.0000
     51 H17        9.1193    2.2435   -0.5705 H         1 RES1    0.0000
     52 C13        8.7130   -1.4875    0.4641 C.3       1 RES1    0.0000
     53 H18        7.7642   -1.4678    0.6111 H         1 RES1    0.0000
     54 H19        9.0646   -2.3304    0.7600 H         1 RES1    0.0000
     55 H20        8.8957   -1.3743   -0.4699 H         1 RES1    0.0000
     56 C14        3.8589    3.8081    2.6649 C.3       1 RES1    0.0000
     57 H21        3.8900    2.9094    2.2781 H         1 RES1    0.0000
     58 C15        1.4700    3.2603    2.7828 C.2       1 RES1    0.0000
     59 C16        0.0757    3.7786    2.6765 C.ar      1 RES1    0.0000
     60 C17       -0.9737    2.9143    2.8602 C.ar      1 RES1    0.0000
     61 H22       -0.7965    2.0352    3.1077 H         1 RES1    0.0000
     62 C18       -2.2735    3.3046    2.6881 C.ar      1 RES1    0.0000
     63 H23       -2.9642    2.6962    2.8196 H         1 RES1    0.0000
     64 C19       -2.5551    4.5904    2.3245 C.ar      1 RES1    0.0000
     65 H24       -3.4347    4.8593    2.1891 H         1 RES1    0.0000
     66 C20       -1.5390    5.4727    2.1601 C.ar      1 RES1    0.0000
     67 H25       -1.7262    6.3534    1.9300 H         1 RES1    0.0000
     68 C21       -0.2257    5.0758    2.3361 C.ar      1 RES1    0.0000
     69 H26        0.4604    5.6924    2.2220 H         1 RES1    0.0000
     70 C22        4.4427    4.7872    1.6206 C.2       1 RES1    0.0000
     71 C23        6.3403    5.1857    0.1450 C.3       1 RES1    0.0000
     72 H27        5.7144    5.7466   -0.3404 H         1 RES1    0.0000
     73 H28        6.7327    4.5608   -0.4854 H         1 RES1    0.0000
     74 C24        7.4292    6.0483    0.7445 C.2       1 RES1    0.0000
     75 C25        9.3677    7.5260    0.2514 C.3       1 RES1    0.0000
     76 H29        9.4400    8.2804   -0.3365 H         1 RES1    0.0000
     77 H30       10.1538    6.9815    0.1721 H         1 RES1    0.0000
     78 H31        9.2812    7.8326    1.1584 H         1 RES1    0.0000
     79 C26        7.6771    7.2783   -2.2936 C.3       1 RES1    0.0000
     80 H32        7.4085    6.8782   -3.1251 H         1 RES1    0.0000
     81 H33        8.3457    7.9474   -2.4637 H         1 RES1    0.0000
     82 H34        6.9171    7.6850   -1.8739 H         1 RES1    0.0000
     83 C27        4.6913    5.0266    4.6451 C.3       1 RES1    0.0000
     84 H35        4.5748    5.7826    4.0302 H         1 RES1    0.0000
     85 C28        2.6640    6.0286    5.5869 C.2       1 RES1    0.0000
     86 C29        1.7439    6.0975    6.7646 C.ar      1 RES1    0.0000
     87 C30        1.5515    5.0430    7.6059 C.ar      1 RES1    0.0000
     88 H36        2.0162    4.2509    7.4647 H         1 RES1    0.0000
     89 C31        0.6757    5.1381    8.6598 C.ar      1 RES1    0.0000
     90 H37        0.5538    4.4050    9.2187 H         1 RES1    0.0000
     91 C32       -0.0071    6.2697    8.8977 C.ar      1 RES1    0.0000
     92 H38       -0.6074    6.3189    9.6055 H         1 RES1    0.0000
     93 C33        0.1970    7.3488    8.0777 C.ar      1 RES1    0.0000
     94 H39       -0.2547    8.1442    8.2421 H         1 RES1    0.0000
     95 C34        1.0733    7.2619    7.0044 C.ar      1 RES1    0.0000
     96 H40        1.2020    7.9966    6.4475 H         1 RES1    0.0000
     97 C35        6.0402    5.2054    5.3568 C.2       1 RES1    0.0000
     98 C36        8.3927    5.6383    5.1266 C.3       1 RES1    0.0000
     99 H41        8.3237    6.1582    5.9408 H         1 RES1    0.0000
    100 H42        8.9229    6.1484    4.4923 H         1 RES1    0.0000
    101 C37        9.0906    4.3493    5.4245 C.2       1 RES1    0.0000
    102 C38       11.0214    3.3292    6.5848 C.3       1 RES1    0.0000
    103 H43       10.9784    3.3194    7.5440 H         1 RES1    0.0000
    104 H44       11.9356    3.4178    6.3063 H         1 RES1    0.0000
    105 H45       10.6602    2.5092    6.2386 H         1 RES1    0.0000
    106 C39       11.4870    6.3419    5.8190 C.3       1 RES1    0.0000
    107 H46       11.7560    7.1586    6.2444 H         1 RES1    0.0000
    108 H47       11.0811    6.5403    4.9739 H         1 RES1    0.0000
    109 H48       12.2570    5.7843    5.6817 H         1 RES1    0.0000
@<TRIPOS>BOND
     1    1   31 2
     2    2   43 2
     3    3   47 2
     4    4   18 1
     5    5   58 2
     6    6   70 2
     7    7   74 2
     8    8   23 1
     9    9   85 2
    10   10   97 2
    11   11  101 2
    12   12   28 1
    13   13   29 1
    14   14   15 1
    15   16   17 1
    16   18   47 1
    17   19   20 1
    18   21   22 1
    19   23   74 1
    20   24   25 1
    21   26   27 1
    22   28  101 1
    23   29   14 1
    24   30   29 1
    25   31   14 1
    26   32   31 1
    27   33   32 ar
    28   34   33 1
    29   35   33 ar
    30   36   35 1
    31   37   35 ar
    32   38   37 1
    33   39   37 ar
    34   40   39 1
    35   41   32 ar
    36   42   41 1
    37   43   16 1
    38   44   16 1
    39   45   44 1
    40   46   44 1
    41   47   44 1
    42   48   18 1
    43   49   48 1
    44   50   48 1
    45   51   48 1
    46   52    4 1
    47   53   52 1
    48   54   52 1
    49   55   52 1
    50   56   13 1
    51   57   56 1
    52   58   19 1
    53   59   58 1
    54   60   59 ar
    55   61   60 1
    56   62   60 ar
    57   63   62 1
    58   64   62 ar
    59   65   64 1
    60   66   64 ar
    61   67   66 1
    62   68   59 ar
    63   69   68 1
    64   70   21 1
    65   71   21 1
    66   72   71 1
    67   73   71 1
    68   74   71 1
    69   75   23 1
    70   76   75 1
    71   77   75 1
    72   78   75 1
    73   79    8 1
    74   80   79 1
    75   81   79 1
    76   82   79 1
    77   83   13 1
    78   84   83 1
    79   85   24 1
    80   86   85 1
    81   87   86 ar
    82   88   87 1
    83   89   87 ar
    84   90   89 1
    85   91   89 ar
    86   92   91 1
    87   93   91 ar
    88   94   93 1
    89   95   86 ar
    90   96   95 1
    91   97   26 1
    92   98   26 1
    93   99   98 1
    94  100   98 1
    95  101   98 1
    96  102   28 1
    97  103  102 1
    98  104  102 1
    99  105  102 1
   100  106   12 1
   101  107  106 1
   102  108  106 1
   103  109  106 1
   104   19   56 1
   105   24   83 1
   106   29   43 1
   107   39   41 ar
   108   56   70 1
   109   66   68 ar
   110   83   97 1
   111   93   95 ar
@<TRIPOS>SUBSTRUCTURE
     1 RES1 1

@<TRIPOS>CRYSIN
  13.6320   16.4000   19.3460  90.0000  91.5900  90.0000  14 1

