# MOL2 file generated by ConQuest
# Please check atom types

@<TRIPOS>MOLECULE
AJAWUD
    46    46     2
SMALL
NO_CHARGES
****
Generated from CSD

@<TRIPOS>ATOM
      1 O1        -7.1587   -1.9555    1.6466 O.2       1 RES1    0.0000
      2 N1        -6.7852   -0.7386    1.8661 N.pl3     1 RES1    0.0000
      3 N2        -2.7417    2.1758    0.1386 N.2       1 RES1    0.0000
      4 N3        -3.0526    2.4951    1.2863 N.2       1 RES1    0.0000
      5 N4        -3.2740    2.1706    0.8280 Du        2 SUP2    0.0000
      6 N5        -2.1585    2.6921    0.5950 Du        2 SUP2    0.0000
      7 C1        -6.5373   -0.4105    3.2720 C.ar      1 RES1    0.0000
      8 C2        -5.6953    0.6054    3.6298 C.ar      1 RES1    0.0000
      9 H1        -5.2995    1.1403    2.9795 H         1 RES1    0.0000
     10 C3        -5.4385    0.8293    4.9740 C.ar      1 RES1    0.0000
     11 H2        -4.8727    1.5248    5.2228 H         1 RES1    0.0000
     12 C4        -5.9991    0.0472    5.9334 C.ar      1 RES1    0.0000
     13 H3        -5.8096    0.1938    6.8321 H         1 RES1    0.0000
     14 C5        -6.8296   -0.9381    5.5654 C.ar      1 RES1    0.0000
     15 H4        -7.2328   -1.4658    6.2170 H         1 RES1    0.0000
     16 C6        -7.0964   -1.1817    4.2292 C.ar      1 RES1    0.0000
     17 H5        -7.6639   -1.8783    3.9899 H         1 RES1    0.0000
     18 C7        -6.6021    0.1441    0.9314 C.2       1 RES1    0.0000
     19 H6        -6.3755    1.0019    1.2095 H         1 RES1    0.0000
     20 C8        -6.7133   -0.0648   -0.5030 C.ar      1 RES1    0.0000
     21 C9        -7.5509   -1.0319   -1.0695 C.ar      1 RES1    0.0000
     22 H7        -8.0500   -1.5891   -0.5172 H         1 RES1    0.0000
     23 C10       -7.6438   -1.1662   -2.4371 C.ar      1 RES1    0.0000
     24 H8        -8.2089   -1.8083   -2.8016 H         1 RES1    0.0000
     25 C11       -6.9093   -0.3597   -3.2614 C.ar      1 RES1    0.0000
     26 H9        -6.9764   -0.4556   -4.1842 H         1 RES1    0.0000
     27 C12       -6.0711    0.5950   -2.7280 C.ar      1 RES1    0.0000
     28 H10       -5.5722    1.1351   -3.2974 H         1 RES1    0.0000
     29 C13       -5.9587    0.7645   -1.3516 C.ar      1 RES1    0.0000
     30 C14       -4.9983    1.7964   -0.8066 C.3       1 RES1    0.0000
     31 H11       -5.4364    2.2966   -0.1005 H         1 RES1    0.0000
     32 H12       -4.7672    2.4194   -1.5133 H         1 RES1    0.0000
     33 C15       -3.7217    1.1698   -0.2567 C.3       1 RES1    0.0000
     34 H13       -3.9420    0.6199    0.5114 H         1 RES1    0.0000
     35 H14       -3.3320    0.5940   -0.9332 H         1 RES1    0.0000
     36 C16       -2.0919    3.5835    1.7600 C.ar      1 RES1    0.0000
     37 C17       -2.6172    4.1822    2.8268 C.ar      1 RES1    0.0000
     38 H15       -3.4448    3.9007    3.1445 H         1 RES1    0.0000
     39 C18       -1.9669    5.2011    3.4653 C.ar      1 RES1    0.0000
     40 H16       -2.3657    5.6096    4.1996 H         1 RES1    0.0000
     41 C19       -0.7487    5.6251    3.0444 C.ar      1 RES1    0.0000
     42 H17       -0.3160    6.3207    3.4834 H         1 RES1    0.0000
     43 C20       -0.1700    5.0182    1.9699 C.ar      1 RES1    0.0000
     44 H18        0.6690    5.2882    1.6734 H         1 RES1    0.0000
     45 C21       -0.8561    3.9790    1.3152 C.ar      1 RES1    0.0000
     46 H19       -0.4715    3.5592    0.5815 H         1 RES1    0.0000
@<TRIPOS>BOND
     1    1    2 1
     2    2    7 1
     3    3    4 2
     4    4   36 1
     5    7    8 ar
     6    8    9 1
     7   10    8 ar
     8   11   10 1
     9   12   10 ar
    10   13   12 1
    11   14   12 ar
    12   15   14 1
    13   16    7 ar
    14   17   16 1
    15   18    2 2
    16   19   18 1
    17   20   18 1
    18   21   20 ar
    19   22   21 1
    20   23   21 ar
    21   24   23 1
    22   25   23 ar
    23   26   25 1
    24   27   25 ar
    25   28   27 1
    26   29   20 ar
    27   30   29 1
    28   31   30 1
    29   32   30 1
    30   33    3 1
    31   34   33 1
    32   35   33 1
    33   36   37 ar
    34   37   38 1
    35   39   37 ar
    36   40   39 1
    37   41   39 ar
    38   42   41 1
    39   43   41 ar
    40   44   43 1
    41   45   36 ar
    42   46   45 1
    43   14   16 ar
    44   27   29 ar
    45   30   33 1
    46   43   45 ar
@<TRIPOS>SUBSTRUCTURE
     1 RES1 1
     2 SUP2 5

@<TRIPOS>CRYSIN
  17.4480    5.1830   20.5300  90.0000 110.2900  90.0000  14 1

