# MOL2 file generated by ConQuest
# Please check atom types

@<TRIPOS>MOLECULE
AJERUE
    50    47     2
SMALL
NO_CHARGES
****
Generated from CSD

@<TRIPOS>ATOM
      1 O1         8.1626    6.6431    2.5498 O.2       1 RES1    0.0000
      2 N1         8.1789    5.5390    1.9181 N.pl3     1 RES1    0.0000
      3 C1         7.9253    4.2184    2.5822 C.3       1 RES1    0.0000
      4 C2         6.3883    4.1358    2.8137 C.3       1 RES1    0.0000
      5 H1         5.9465    4.9193    2.4503 H         1 RES1    0.0000
      6 H2         6.0219    3.3455    2.3859 H         1 RES1    0.0000
      7 C3         6.1998    4.0676    4.2662 C.3       1 RES1    0.0000
      8 H3         6.0416    3.1504    4.5382 H         1 RES1    0.0000
      9 H4         5.4332    4.6005    4.5268 H         1 RES1    0.0000
     10 C4         7.4274    4.5874    4.9193 C.3       1 RES1    0.0000
     11 H5         7.5433    4.2016    5.8018 H         1 RES1    0.0000
     12 H6         7.3979    5.5540    4.9992 H         1 RES1    0.0000
     13 C5         8.5411    4.1487    3.9786 C.3       1 RES1    0.0000
     14 H7         9.3049    4.7431    4.0482 H         1 RES1    0.0000
     15 H8         8.8281    3.2451    4.1842 H         1 RES1    0.0000
     16 C6         8.4964    3.2606    1.5304 C.3       1 RES1    0.0000
     17 C7        10.0054    2.9551    1.6456 C.3       1 RES1    0.0000
     18 H9        10.2677    2.8287    2.5707 H         1 RES1    0.0000
     19 H10       10.5375    3.6673    1.2573 H         1 RES1    0.0000
     20 C8         9.0703    0.8546    0.9116 C.3       1 RES1    0.0000
     21 H11        9.1964    0.1427    1.5584 H         1 RES1    0.0000
     22 H12        8.8644    0.4600    0.0478 H         1 RES1    0.0000
     23 C9        10.1520    1.6393    0.8368 C.3       1 RES1    0.0000
     24 H13       10.3206    1.8577   -0.0934 H         1 RES1    0.0000
     25 H14       10.9197    1.1487    1.1691 H         1 RES1    0.0000
     26 C10        7.8421    1.8830    1.3975 C.3       1 RES1    0.0000
     27 H15        7.1301    1.9042    0.7382 H         1 RES1    0.0000
     28 H16        7.4712    1.5971    2.2468 H         1 RES1    0.0000
     29 N2         8.3115    4.0860    0.2846 N.pl3     1 RES1    0.0000
     30 O2         8.3257    3.5838   -0.8911 O.2       1 RES1    0.0000
     31 C11        8.2594    5.3991    0.5828 C.2       1 RES1    0.0000
     32 C12        8.2170    6.5091   -0.3540 C.ar      1 RES1    0.0000
     33 C13        7.1563    7.4032   -0.2409 C.ar      1 RES1    0.0000
     34 H17        6.5304    7.2486    0.4298 H         1 RES1    0.0000
     35 N3         6.9732    8.4570   -1.0196 N.ar      1 RES1    0.0000
     36 C14        7.9200    8.6652   -1.9457 C.ar      1 RES1    0.0000
     37 H18        7.8343    9.4076   -2.4991 H         1 RES1    0.0000
     38 C15        8.9955    7.8586   -2.1253 C.ar      1 RES1    0.0000
     39 H19        9.6132    8.0624   -2.7898 H         1 RES1    0.0000
     40 C16        9.1911    6.7317   -1.3352 C.ar      1 RES1    0.0000
     41 C17       10.3794    5.8260   -1.4941 C.3       1 RES1    0.0000
     42 H20       10.1102    5.0197   -1.9395 H         1 RES1    0.0000
     43 H21       10.7359    5.6108   -0.6292 H         1 RES1    0.0000
     44 H22       11.0533    6.2688   -2.0163 H         1 RES1    0.0000
     45 C18        8.8282    0.9594    1.2168 Du        2 SUP2    0.0000
     46 H23        8.8893    0.7163    0.2793 Du        2 SUP2    0.0000
     47 H24        8.6317    0.1572    1.7266 Du        2 SUP2    0.0000
     48 C19       10.1733    1.5840    1.6975 Du        2 SUP2    0.0000
     49 H25       10.3737    1.3001    2.6039 Du        2 SUP2    0.0000
     50 H26       10.9013    1.3088    1.1182 Du        2 SUP2    0.0000
@<TRIPOS>BOND
     1    1    2 1
     2    2    3 1
     3    3    4 1
     4    4    5 1
     5    6    4 1
     6    7    4 1
     7    8    7 1
     8    9    7 1
     9   10    7 1
    10   11   10 1
    11   12   10 1
    12   13    3 1
    13   14   13 1
    14   15   13 1
    15   16    3 1
    16   17   16 1
    17   18   17 1
    18   19   17 1
    19   20   21 1
    20   22   20 1
    21   23   17 1
    22   24   23 1
    23   25   23 1
    24   26   16 1
    25   27   26 1
    26   28   26 1
    27   29   16 1
    28   30   29 1
    29   31    2 2
    30   32   31 1
    31   33   32 ar
    32   34   33 1
    33   35   33 ar
    34   36   35 ar
    35   37   36 1
    36   38   36 ar
    37   39   38 1
    38   40   32 ar
    39   41   40 1
    40   42   41 1
    41   43   41 1
    42   44   41 1
    43   10   13 1
    44   20   23 1
    45   20   26 1
    46   29   31 1
    47   38   40 ar
@<TRIPOS>SUBSTRUCTURE
     1 RES1 1
     2 SUP2 45

@<TRIPOS>CRYSIN
  10.5487   14.5584   10.8474  90.0000 106.8340  90.0000 231 1

