# MOL2 file generated by ConQuest
# Please check atom types

@<TRIPOS>MOLECULE
AJEREM
    20    20     1
SMALL
NO_CHARGES
****
Generated from CSD

@<TRIPOS>ATOM
      1 O1         0.6948    6.9526    4.2881 O.3       1 RES1    0.0000
      2 N1         1.2044    6.7013    5.6148 N.3       1 RES1    0.0000
      3 C1         2.5732    7.3069    5.7394 C.3       1 RES1    0.0000
      4 O2         4.1286    8.1177    7.3021 O.2       1 RES1    0.0000
      5 N2         2.0799    7.6123    8.0739 N.am      1 RES1    0.0000
      6 O3         3.7537    7.7702    3.7102 O.2       1 RES1    0.0000
      7 N3         2.6654    9.4642    4.7032 N.am      1 RES1    0.0000
      8 C2         2.3931    5.8529    5.4669 C.3       1 RES1    0.0000
      9 C3         3.0478    8.2020    4.6156 C.2       1 RES1    0.0000
     10 C4         2.9890    7.7349    7.1223 C.2       1 RES1    0.0000
     11 C5        -0.5624    7.5777    4.4064 C.3       1 RES1    0.0000
     12 H1         2.4697    5.1902    6.1631 H         1 RES1    0.0000
     13 H2         2.1276    9.6582    5.3209 H         1 RES1    0.0000
     14 H3         2.9086    9.9817    4.1578 H         1 RES1    0.0000
     15 H4         2.2615    7.8831    8.7834 H         1 RES1    0.0000
     16 H5         2.5218    5.5813    4.6257 H         1 RES1    0.0000
     17 H6        -0.5654    8.2592    4.9599 H         1 RES1    0.0000
     18 H7         1.3241    7.3415    7.8476 H         1 RES1    0.0000
     19 H8        -0.7960    7.8379    3.6364 H         1 RES1    0.0000
     20 H9        -1.2646    7.2362    4.8663 H         1 RES1    0.0000
@<TRIPOS>BOND
     1    1    2 1
     2    2    3 1
     3    3    8 1
     4    4   10 2
     5    5   10 1
     6    6    9 2
     7    7    9 1
     8    8    2 1
     9    9    3 1
    10   10    3 1
    11   11    1 1
    12   12    8 1
    13   13    7 1
    14   14    7 1
    15   15    5 1
    16   16    8 1
    17   17   11 1
    18   18    5 1
    19   19   11 1
    20   20   11 1
@<TRIPOS>SUBSTRUCTURE
     1 RES1 1

@<TRIPOS>CRYSIN
   7.4390    7.5220   13.3690  90.0000  90.0000  90.0000  19 1

