# MOL2 file generated by ConQuest
# Please check atom types

@<TRIPOS>MOLECULE
AJIMAJ
    59    60     1
SMALL
NO_CHARGES
****
Generated from CSD

@<TRIPOS>ATOM
      1 O1         7.4804    8.6243    0.6617 O.2       1 RES1    0.0000
      2 O2         7.4719    5.6499    1.8400 O.3       1 RES1    0.0000
      3 O3         9.8058    5.8666    8.3008 O.3       1 RES1    0.0000
      4 O4         9.2173    7.3439    0.0126 O.3       1 RES1    0.0000
      5 O5         9.0534    4.1144    2.4427 O.2       1 RES1    0.0000
      6 O6        10.3741    9.7251    2.4075 O.2       1 RES1    0.0000
      7 C1         8.6865    5.2574    2.2704 C.2       1 RES1    0.0000
      8 O7         5.8400   11.0473    3.6332 O.2       1 RES1    0.0000
      9 O8         5.5041    8.9974    4.2119 O.2       1 RES1    0.0000
     10 C2        10.3157    8.5238    2.4984 C.2       1 RES1    0.0000
     11 N1         9.4583    6.3510    2.4855 N.am      1 RES1    0.0000
     12 N2         6.2200    9.8987    3.7973 N.pl3     1 RES1    0.0000
     13 C3         8.9994    7.7241    2.3321 C.3       1 RES1    0.0000
     14 C4         8.3748    7.5647    4.7751 C.ar      1 RES1    0.0000
     15 C5         8.4467    7.9615    0.9103 C.2       1 RES1    0.0000
     16 C6         7.8721    6.3415    5.2041 C.ar      1 RES1    0.0000
     17 H1         7.2042    5.9106    4.6840 H         1 RES1    0.0000
     18 C7        10.8163    6.2165    3.0313 C.3       1 RES1    0.0000
     19 H2        11.3156    5.4984    2.5669 H         1 RES1    0.0000
     20 H3        10.7901    6.0159    4.0009 H         1 RES1    0.0000
     21 C8        11.4517    7.5763    2.7735 C.3       1 RES1    0.0000
     22 H4        11.9678    7.8739    3.5642 H         1 RES1    0.0000
     23 H5        12.0621    7.5313    1.9947 H         1 RES1    0.0000
     24 C9         8.3163    5.7263    6.3733 C.ar      1 RES1    0.0000
     25 H6         7.9570    4.8904    6.6455 H         1 RES1    0.0000
     26 C10        7.9447    8.1193    3.4246 C.3       1 RES1    0.0000
     27 H7         7.0901    7.6604    3.1822 H         1 RES1    0.0000
     28 C11        9.3474    8.1805    5.5584 C.ar      1 RES1    0.0000
     29 H8         9.6996    9.0216    5.2910 H         1 RES1    0.0000
     30 C12        9.8106    7.5847    6.7229 C.ar      1 RES1    0.0000
     31 H9        10.4811    8.0148    7.2409 H         1 RES1    0.0000
     32 C13        9.1902    8.6580   -2.0595 C.3       1 RES1    0.0000
     33 H10        8.7106    9.4175   -1.6672 H         1 RES1    0.0000
     34 H11        8.9837    8.6005   -3.0151 H         1 RES1    0.0000
     35 H12       10.1551    8.7843   -1.9401 H         1 RES1    0.0000
     36 C14        9.2930    6.3569    7.1325 C.ar      1 RES1    0.0000
     37 C15        9.2681    4.6337    8.7847 C.3       1 RES1    0.0000
     38 H13        8.3028    4.7303    8.9214 H         1 RES1    0.0000
     39 H14        9.6969    4.4011    9.6342 H         1 RES1    0.0000
     40 H15        9.4364    3.9251    8.1291 H         1 RES1    0.0000
     41 C16        8.7622    7.3868   -1.3761 C.3       1 RES1    0.0000
     42 H16        7.7746    7.3193   -1.3992 H         1 RES1    0.0000
     43 H17        9.1328    6.6105   -1.8656 H         1 RES1    0.0000
     44 C17        7.6532    9.6217    3.4375 C.3       1 RES1    0.0000
     45 H18        8.2480   10.0655    4.0935 H         1 RES1    0.0000
     46 H19        7.8465   10.0018    2.5438 H         1 RES1    0.0000
     47 C18        6.3988    4.6944    1.4995 C.3       1 RES1    0.0000
     48 C19        5.2918    5.6342    1.0808 C.3       1 RES1    0.0000
     49 H20        5.1391    6.2947    1.7879 H         1 RES1    0.0000
     50 H21        4.4698    5.1232    0.9279 H         1 RES1    0.0000
     51 H22        5.5496    6.0945    0.2547 H         1 RES1    0.0000
     52 C20        5.9944    3.9107    2.7373 C.3       1 RES1    0.0000
     53 H23        6.7739    3.4343    3.0912 H         1 RES1    0.0000
     54 H24        5.2963    3.2652    2.5008 H         1 RES1    0.0000
     55 H25        5.6520    4.5271    3.4170 H         1 RES1    0.0000
     56 C21        6.8593    3.7763    0.3870 C.3       1 RES1    0.0000
     57 H26        7.1288    4.3121   -0.3887 H         1 RES1    0.0000
     58 H27        6.1254    3.1792    0.1323 H         1 RES1    0.0000
     59 H28        7.6210    3.2445    0.6963 H         1 RES1    0.0000
@<TRIPOS>BOND
     1    1   15 2
     2    2    7 1
     3    3   36 1
     4    4   15 1
     5    5    7 2
     6    6   10 2
     7    7   11 1
     8    8   12 2
     9    9   12 2
    10   10   13 1
    11   11   13 1
    12   12   44 1
    13   13   15 1
    14   14   16 ar
    15   16   17 1
    16   18   11 1
    17   19   18 1
    18   20   18 1
    19   21   10 1
    20   22   21 1
    21   23   21 1
    22   24   16 ar
    23   25   24 1
    24   26   13 1
    25   27   26 1
    26   28   14 ar
    27   29   28 1
    28   30   28 ar
    29   31   30 1
    30   32   33 1
    31   34   32 1
    32   35   32 1
    33   36   24 ar
    34   37    3 1
    35   38   37 1
    36   39   37 1
    37   40   37 1
    38   41    4 1
    39   42   41 1
    40   43   41 1
    41   44   26 1
    42   45   44 1
    43   46   44 1
    44   47    2 1
    45   48   47 1
    46   49   48 1
    47   50   48 1
    48   51   48 1
    49   52   47 1
    50   53   52 1
    51   54   52 1
    52   55   52 1
    53   56   47 1
    54   57   56 1
    55   58   56 1
    56   59   56 1
    57   14   26 1
    58   18   21 1
    59   30   36 ar
    60   32   41 1
@<TRIPOS>SUBSTRUCTURE
     1 RES1 1

@<TRIPOS>CRYSIN
   8.9828   14.8284   16.5394  90.0000  90.0000  90.0000  19 1

