# MOL2 file generated by ConQuest
# Please check atom types

@<TRIPOS>MOLECULE
AJITOC
    34    35     1
SMALL
NO_CHARGES
****
Generated from CSD

@<TRIPOS>ATOM
      1 O1         1.5603   11.2879    5.1524 O.2       1 RES1    0.0000
      2 N1         0.7692   10.2851    5.2654 N.pl3     1 RES1    0.0000
      3 C1         0.6432    9.2638    4.1747 C.3       1 RES1    0.0000
      4 C2        -0.3170    9.8757    3.1538 C.3       1 RES1    0.0000
      5 H1        -1.2777    9.9809    3.5761 H         1 RES1    0.0000
      6 H2        -0.3636    9.2895    2.3556 H         1 RES1    0.0000
      7 H3         0.0466   10.6924    2.8462 H         1 RES1    0.0000
      8 C3         1.9860    8.9548    3.5724 C.3       1 RES1    0.0000
      9 H4         1.9026    8.1872    2.9903 H         1 RES1    0.0000
     10 H5         2.3428    9.7103    3.0684 H         1 RES1    0.0000
     11 H6         2.6718    8.7383    4.2840 H         1 RES1    0.0000
     12 C4         0.0013    8.1016    4.9732 C.3       1 RES1    0.0000
     13 C5        -0.9712    7.2552    4.1792 C.3       1 RES1    0.0000
     14 H7        -1.2825    6.5137    4.7234 H         1 RES1    0.0000
     15 H8        -0.5151    6.8844    3.3393 H         1 RES1    0.0000
     16 H9        -1.7680    7.7763    3.8593 H         1 RES1    0.0000
     17 C6         1.0160    7.2281    5.7057 C.3       1 RES1    0.0000
     18 H10        1.6888    7.7262    6.1721 H         1 RES1    0.0000
     19 H11        0.5300    6.6539    6.3467 H         1 RES1    0.0000
     20 H12        1.5025    6.6339    5.0529 H         1 RES1    0.0000
     21 N2        -0.7084    8.8798    6.0379 N.pl3     1 RES1    0.0000
     22 O2        -1.6672    8.3804    6.7185 O.2       1 RES1    0.0000
     23 C7        -0.1026   10.0629    6.2625 C.2       1 RES1    0.0000
     24 C8        -0.3029   10.8803    7.4349 C.2       1 RES1    0.0000
     25 N3        -0.4762   10.2781    8.6735 N.2       1 RES1    0.0000
     26 C9        -0.5448   11.2830    9.5031 C.2       1 RES1    0.0000
     27 H13       -0.6910   11.2335   10.4732 H         1 RES1    0.0000
     28 N4        -0.4418   12.4736    8.8877 N.pl3     1 RES1    0.0000
     29 H14       -0.5573   13.2077    9.2515 H         1 RES1    0.0000
     30 C10       -0.2952   12.2442    7.5485 C.2       1 RES1    0.0000
     31 C11       -0.2353   13.3410    6.5493 C.3       1 RES1    0.0000
     32 H15        0.5348   13.7588    6.5664 H         1 RES1    0.0000
     33 H16       -0.7574   14.0294    6.7495 H         1 RES1    0.0000
     34 H17       -0.2458   13.0574    5.6632 H         1 RES1    0.0000
@<TRIPOS>BOND
     1    1    2 1
     2    2    3 1
     3    3    4 1
     4    4    5 1
     5    6    4 1
     6    7    4 1
     7    8    3 1
     8    9    8 1
     9   10    8 1
    10   11    8 1
    11   12    3 1
    12   13   12 1
    13   14   13 1
    14   15   13 1
    15   16   13 1
    16   17   12 1
    17   18   17 1
    18   19   17 1
    19   20   17 1
    20   21   12 1
    21   22   21 1
    22   23    2 1
    23   24   23 1
    24   25   24 1
    25   26   25 2
    26   27   26 1
    27   28   26 1
    28   29   28 1
    29   30   24 2
    30   31   30 1
    31   32   31 1
    32   33   31 1
    33   34   31 1
    34   21   23 2
    35   28   30 1
@<TRIPOS>SUBSTRUCTURE
     1 RES1 1

@<TRIPOS>CRYSIN
  10.0100   10.0210   13.0920  90.0000 111.2100  90.0000 231 1

