# MOL2 file generated by ConQuest
# Please check atom types

@<TRIPOS>MOLECULE
AJIYAT
    33    34     1
SMALL
NO_CHARGES
****
Generated from CSD

@<TRIPOS>ATOM
      1 O1         6.2300    0.9108    4.3382 O.2       1 RES1    0.0000
      2 N1         4.7229    5.5714    2.5902 N.ar      1 RES1    0.0000
      3 N2         5.4367    0.5163    3.4176 N.pl3     1 RES1    0.0000
      4 C1         4.3953    4.8654    1.5046 C.ar      1 RES1    0.0000
      5 H1         4.1712    5.3400    0.7242 H         1 RES1    0.0000
      6 C2         4.3640    3.4839    1.4501 C.ar      1 RES1    0.0000
      7 H2         4.1067    3.0399    0.6620 H         1 RES1    0.0000
      8 C3         4.7229    2.7628    2.5902 C.ar      1 RES1    0.0000
      9 C4         4.7229    1.2994    2.5902 C.2       1 RES1    0.0000
     10 C5         5.2990   -0.9479    3.1119 C.3       1 RES1    0.0000
     11 C6         6.6522   -1.4093    2.5806 C.3       1 RES1    0.0000
     12 H3         6.8479   -0.9475    1.7499 H         1 RES1    0.0000
     13 H4         6.6278   -2.3656    2.4213 H         1 RES1    0.0000
     14 H5         7.3417   -1.2083    3.2325 H         1 RES1    0.0000
     15 C7         4.9887   -1.6688    4.4153 C.3       1 RES1    0.0000
     16 H6         4.1280   -1.3734    4.7514 H         1 RES1    0.0000
     17 H7         5.6767   -1.4669    5.0684 H         1 RES1    0.0000
     18 H8         4.9628   -2.6253    4.2572 H         1 RES1    0.0000
     19 N2F        4.0091    0.5163    1.7628 N.3       1 RES1    0.0000
     20 O1F        3.2157    0.9108    0.8421 O.2       1 RES1    0.0000
     21 C5F        4.1467   -0.9479    2.0684 C.3       1 RES1    0.0000
     22 C6F        2.7936   -1.4093    2.5997 C.3       1 RES1    0.0000
     23 H3F        2.5979   -0.9475    3.4304 H         1 RES1    0.0000
     24 H4F        2.8179   -2.3656    2.7590 H         1 RES1    0.0000
     25 H5F        2.1041   -1.2083    1.9478 H         1 RES1    0.0000
     26 C7F        4.4571   -1.6688    0.7650 C.3       1 RES1    0.0000
     27 H6F        5.3177   -1.3734    0.4289 H         1 RES1    0.0000
     28 H7F        3.7691   -1.4669    0.1119 H         1 RES1    0.0000
     29 H8F        4.4829   -2.6253    0.9231 H         1 RES1    0.0000
     30 C1F        5.0505    4.8654    3.6758 C.ar      1 RES1    0.0000
     31 H1F        5.2745    5.3400    4.4561 H         1 RES1    0.0000
     32 C2F        5.0817    3.4839    3.7303 C.ar      1 RES1    0.0000
     33 H2F        5.3391    3.0399    4.5183 H         1 RES1    0.0000
@<TRIPOS>BOND
     1    1    3 1
     2    2    4 ar
     3    3    9 2
     4    4    5 1
     5    6    4 ar
     6    7    6 1
     7    8    6 ar
     8    9    8 1
     9   10    3 1
    10   11   10 1
    11   12   11 1
    12   13   11 1
    13   14   11 1
    14   15   10 1
    15   16   15 1
    16   17   15 1
    17   18   15 1
    18   19    9 1
    19   20   19 1
    20   21   10 1
    21   22   21 1
    22   23   22 1
    23   24   22 1
    24   25   22 1
    25   26   21 1
    26   27   26 1
    27   28   26 1
    28   29   26 1
    29   30    2 ar
    30   31   30 1
    31   32    8 ar
    32   33   32 1
    33   19   21 1
    34   30   32 ar
@<TRIPOS>SUBSTRUCTURE
     1 RES1 1

@<TRIPOS>CRYSIN
  11.0922   10.3891   10.8714  90.0000 107.6320  90.0000  15 1

