# MOL2 file generated by ConQuest
# Please check atom types

@<TRIPOS>MOLECULE
AJIYAT01
    33    34     1
SMALL
NO_CHARGES
****
Generated from CSD

@<TRIPOS>ATOM
      1 O1         0.6452    0.9020    4.3704 O.2       1 RES1    0.0000
      2 N1        -0.8545    5.5835    2.6220 N.ar      1 RES1    0.0000
      3 N2        -0.1478    0.5121    3.4516 N.pl3     1 RES1    0.0000
      4 C1        -0.5345    4.8644    3.7065 C.ar      1 RES1    0.0000
      5 H1        -0.3239    5.3295    4.4836 H         1 RES1    0.0000
      6 C2        -0.4938    3.4889    3.7568 C.ar      1 RES1    0.0000
      7 H2        -0.2309    3.0520    4.5350 H         1 RES1    0.0000
      8 C3        -0.8545    2.7614    2.6220 C.ar      1 RES1    0.0000
      9 C4        -0.8545    1.2866    2.6220 C.2       1 RES1    0.0000
     10 C5        -0.2828   -0.9626    3.1506 C.3       1 RES1    0.0000
     11 C6         1.0704   -1.4236    2.6325 C.3       1 RES1    0.0000
     12 H3         1.2891   -0.9386    1.8344 H         1 RES1    0.0000
     13 H4         1.0343   -2.3632    2.4374 H         1 RES1    0.0000
     14 H5         1.7401   -1.2605    3.3006 H         1 RES1    0.0000
     15 C7        -0.6091   -1.6744    4.4543 C.3       1 RES1    0.0000
     16 H6         0.1192   -1.5647    5.0699 H         1 RES1    0.0000
     17 H7        -0.7438   -2.6099    4.2833 H         1 RES1    0.0000
     18 H8        -1.4078   -1.2992    4.8319 H         1 RES1    0.0000
     19 O1B       -2.3543    0.9020    0.8737 O.2       1 RES1    0.0000
     20 N2B       -1.5612    0.5121    1.7924 N.pl3     1 RES1    0.0000
     21 C1B       -1.1745    4.8644    1.5376 C.ar      1 RES1    0.0000
     22 H1B       -1.3851    5.3295    0.7604 H         1 RES1    0.0000
     23 C2B       -1.2153    3.4889    1.4872 C.ar      1 RES1    0.0000
     24 H2B       -1.4782    3.0520    0.7090 H         1 RES1    0.0000
     25 C5B       -1.4263   -0.9626    2.0934 C.3       1 RES1    0.0000
     26 C6B       -2.7795   -1.4236    2.6115 C.3       1 RES1    0.0000
     27 H3B       -2.9981   -0.9386    3.4097 H         1 RES1    0.0000
     28 H4B       -2.7433   -2.3632    2.8066 H         1 RES1    0.0000
     29 H5B       -3.4492   -1.2605    1.9434 H         1 RES1    0.0000
     30 C7B       -1.1000   -1.6744    0.7898 C.3       1 RES1    0.0000
     31 H6B       -1.8283   -1.5647    0.1741 H         1 RES1    0.0000
     32 H7B       -0.9652   -2.6099    0.9607 H         1 RES1    0.0000
     33 H8B       -0.3013   -1.2992    0.4122 H         1 RES1    0.0000
@<TRIPOS>BOND
     1    1    3 1
     2    2    4 ar
     3    3    9 2
     4    4    5 1
     5    6    4 ar
     6    7    6 1
     7    8    6 ar
     8    9    8 1
     9   10    3 1
    10   11   10 1
    11   12   11 1
    12   13   11 1
    13   14   11 1
    14   15   10 1
    15   16   15 1
    16   17   15 1
    17   18   15 1
    18   19   20 2
    19   20    9 1
    20   21    2 ar
    21   22   21 1
    22   23    8 ar
    23   24   23 1
    24   25   10 1
    25   26   25 1
    26   27   26 1
    27   28   26 1
    28   29   26 1
    29   30   25 1
    30   31   30 1
    31   32   30 1
    32   33   30 1
    33   20   25 1
    34   21   23 ar
@<TRIPOS>SUBSTRUCTURE
     1 RES1 1

@<TRIPOS>CRYSIN
  11.2050   10.4520   11.0310  90.0000 108.0510  90.0000  15 1

