# MOL2 file generated by ConQuest
# Please check atom types

@<TRIPOS>MOLECULE
AJOZOQ
   102   105     1
SMALL
NO_CHARGES
****
Generated from CSD

@<TRIPOS>ATOM
      1 O1       -11.6273   16.9400    1.9473 O.2       1 RES1    0.0000
      2 N1       -11.0414   15.8156    2.0385 N.3       1 RES1    0.0000
      3 C1       -10.3402   15.3731    3.2549 C.3       1 RES1    0.0000
      4 O2        -6.2162   10.5418    5.2156 O.3       1 RES1    0.0000
      5 N2       -10.3377   13.6814    1.5960 N.2       1 RES1    0.0000
      6 C2        -9.9341   13.9915    2.7812 C.2       1 RES1    0.0000
      7 O3        -5.5665   11.6607    7.0544 O.2       1 RES1    0.0000
      8 C3       -11.1115   14.7474    1.0101 C.3       1 RES1    0.0000
      9 O4        -1.3108    6.9405    6.5969 O.3       1 RES1    0.0000
     10 C4       -10.5249   15.2225   -0.3166 C.3       1 RES1    0.0000
     11 H1       -11.0040   16.0348   -0.6173 H         1 RES1    0.0000
     12 H2        -9.5721   15.4583   -0.1885 H         1 RES1    0.0000
     13 C5       -10.6412   14.1455   -1.3800 C.3       1 RES1    0.0000
     14 H3       -10.2943   14.4961   -2.2371 H         1 RES1    0.0000
     15 H4       -10.0841   13.3699   -1.1199 H         1 RES1    0.0000
     16 C6       -12.0704   13.6917   -1.5690 C.3       1 RES1    0.0000
     17 H5       -12.0961   12.9480   -2.2235 H         1 RES1    0.0000
     18 H6       -12.6079   14.4385   -1.9339 H         1 RES1    0.0000
     19 C7       -12.6728   13.2296   -0.2518 C.3       1 RES1    0.0000
     20 H7       -12.2036   12.4154    0.0601 H         1 RES1    0.0000
     21 H8       -13.6268   13.0023   -0.3879 H         1 RES1    0.0000
     22 C8       -12.5545   14.3185    0.8039 C.3       1 RES1    0.0000
     23 H9       -13.0922   15.1020    0.5272 H         1 RES1    0.0000
     24 H10      -12.9216   13.9837    1.6608 H         1 RES1    0.0000
     25 C9        -9.1811   16.3204    3.5354 C.3       1 RES1    0.0000
     26 H11       -8.5345   16.2719    2.7998 H         1 RES1    0.0000
     27 H12       -8.7433   16.0614    4.3732 H         1 RES1    0.0000
     28 H13       -9.5200   17.2368    3.6138 H         1 RES1    0.0000
     29 C10      -11.3453   15.3466    4.4133 C.3       1 RES1    0.0000
     30 H14      -11.8381   16.1924    4.4360 H         1 RES1    0.0000
     31 H15      -10.8655   15.2237    5.2582 H         1 RES1    0.0000
     32 H16      -11.9734   14.6053    4.2830 H         1 RES1    0.0000
     33 C11       -9.0689   13.0601    3.5373 C.ar      1 RES1    0.0000
     34 C12       -8.7119   13.2399    4.8577 C.ar      1 RES1    0.0000
     35 H17       -9.1162   13.9442    5.3510 H         1 RES1    0.0000
     36 C13       -7.7851   12.4291    5.4901 C.ar      1 RES1    0.0000
     37 H18       -7.5597   12.5700    6.4027 H         1 RES1    0.0000
     38 C14       -7.2006   11.4191    4.7709 C.ar      1 RES1    0.0000
     39 C15       -7.5925   11.1745    3.4739 C.ar      1 RES1    0.0000
     40 H19       -7.2217   10.4409    2.9965 H         1 RES1    0.0000
     41 C16       -8.5079   11.9786    2.8727 C.ar      1 RES1    0.0000
     42 H20       -8.7700   11.7959    1.9776 H         1 RES1    0.0000
     43 C17       -5.4107   10.7521    6.2737 C.2       1 RES1    0.0000
     44 C18       -4.3436    9.7531    6.3434 C.ar      1 RES1    0.0000
     45 C19       -3.4879    9.7656    7.4273 C.ar      1 RES1    0.0000
     46 H21       -3.6085   10.4220    8.1044 H         1 RES1    0.0000
     47 C20       -2.4662    8.8528    7.5546 C.ar      1 RES1    0.0000
     48 H22       -1.8954    8.8758    8.3147 H         1 RES1    0.0000
     49 C21       -2.2776    7.9023    6.5687 C.ar      1 RES1    0.0000
     50 C22       -3.1006    7.9039    5.4598 C.ar      1 RES1    0.0000
     51 H23       -2.9506    7.2760    4.7638 H         1 RES1    0.0000
     52 C23       -4.1305    8.7997    5.3508 C.ar      1 RES1    0.0000
     53 H24       -4.7032    8.7707    4.5944 H         1 RES1    0.0000
     54 C24       -0.4490    6.8488    7.7441 C.3       1 RES1    0.0000
     55 H25       -0.9860    6.7330    8.5688 H         1 RES1    0.0000
     56 H26        0.0906    7.6741    7.8340 H         1 RES1    0.0000
     57 C25        0.4478    5.6605    7.5365 C.3       1 RES1    0.0000
     58 H27        0.9690    5.7926    6.7059 H         1 RES1    0.0000
     59 H28       -0.1112    4.8520    7.4161 H         1 RES1    0.0000
     60 C26        1.4085    5.4280    8.6876 C.3       1 RES1    0.0000
     61 H29        1.9551    6.2422    8.8228 H         1 RES1    0.0000
     62 H30        0.8895    5.2690    9.5166 H         1 RES1    0.0000
     63 C27        2.3287    4.2479    8.4450 C.3       1 RES1    0.0000
     64 H31        1.7709    3.4522    8.2546 H         1 RES1    0.0000
     65 H32        2.8653    4.4338    7.6346 H         1 RES1    0.0000
     66 C28        3.2751    3.9095    9.5775 C.3       1 RES1    0.0000
     67 H33        2.7479    3.7386   10.3989 H         1 RES1    0.0000
     68 H34        3.8616    4.6871    9.7515 H         1 RES1    0.0000
     69 C29        4.1375    2.6968    9.2833 C.3       1 RES1    0.0000
     70 H35        4.6353    2.8623    8.4431 H         1 RES1    0.0000
     71 H36        3.5441    1.9190    9.1287 H         1 RES1    0.0000
     72 C30        5.1392    2.3319   10.3757 C.3       1 RES1    0.0000
     73 H37        5.7635    3.0888   10.5081 H         1 RES1    0.0000
     74 H38        4.6527    2.1861   11.2265 H         1 RES1    0.0000
     75 C31        5.9349    1.0862   10.0391 C.3       1 RES1    0.0000
     76 H39        5.3010    0.3370    9.9099 H         1 RES1    0.0000
     77 H40        6.3983    1.2362    9.1779 H         1 RES1    0.0000
     78 C32        6.9639    0.6671   11.0684 C.3       1 RES1    0.0000
     79 H41        6.5068    0.5091   11.9313 H         1 RES1    0.0000
     80 H42        7.6061    1.4094   11.1992 H         1 RES1    0.0000
     81 C33        7.7339   -0.5876   10.6824 C.3       1 RES1    0.0000
     82 H43        7.0886   -1.3246   10.5409 H         1 RES1    0.0000
     83 H44        8.1953   -0.4242    9.8225 H         1 RES1    0.0000
     84 C34        8.7554   -1.0286   11.7024 C.3       1 RES1    0.0000
     85 H45        8.2914   -1.1975   12.5595 H         1 RES1    0.0000
     86 H46        9.3947   -0.2875   11.8493 H         1 RES1    0.0000
     87 C35        9.5449   -2.2856   11.3175 C.3       1 RES1    0.0000
     88 H47        8.9083   -3.0253   11.1500 H         1 RES1    0.0000
     89 H48       10.0333   -2.1110   10.4754 H         1 RES1    0.0000
     90 C36       10.5342   -2.7247   12.3738 C.3       1 RES1    0.0000
     91 H49       11.1442   -1.9686   12.5650 H         1 RES1    0.0000
     92 H50       10.0360   -2.9212   13.2069 H         1 RES1    0.0000
     93 C37       11.3694   -3.9323   12.0241 C.3       1 RES1    0.0000
     94 H51       10.7680   -4.7003   11.8575 H         1 RES1    0.0000
     95 H52       11.8619   -3.7489   11.1856 H         1 RES1    0.0000
     96 C38       12.3584   -4.3093   13.0962 C.3       1 RES1    0.0000
     97 H53       11.8603   -4.4947   13.9307 H         1 RES1    0.0000
     98 H54       12.9482   -3.5326   13.2670 H         1 RES1    0.0000
     99 C39       13.2229   -5.5067   12.7788 C.3       1 RES1    0.0000
    100 H55       12.6538   -6.2909   12.6333 H         1 RES1    0.0000
    101 H56       13.8300   -5.6794   13.5292 H         1 RES1    0.0000
    102 H57       13.7457   -5.3266   11.9695 H         1 RES1    0.0000
@<TRIPOS>BOND
     1    1    2 1
     2    2    3 1
     3    3    6 1
     4    4   38 1
     5    5    6 2
     6    6   33 1
     7    7   43 2
     8    8    2 1
     9    9   49 1
    10   10    8 1
    11   11   10 1
    12   12   10 1
    13   13   10 1
    14   14   13 1
    15   15   13 1
    16   16   13 1
    17   17   16 1
    18   18   16 1
    19   19   16 1
    20   20   19 1
    21   21   19 1
    22   22    8 1
    23   23   22 1
    24   24   22 1
    25   25    3 1
    26   26   25 1
    27   27   25 1
    28   28   25 1
    29   29    3 1
    30   30   29 1
    31   31   29 1
    32   32   29 1
    33   33   34 ar
    34   34   35 1
    35   36   34 ar
    36   37   36 1
    37   38   36 ar
    38   39   38 ar
    39   40   39 1
    40   41   33 ar
    41   42   41 1
    42   43    4 1
    43   44   43 1
    44   45   44 ar
    45   46   45 1
    46   47   45 ar
    47   48   47 1
    48   49   47 ar
    49   50   49 ar
    50   51   50 1
    51   52   44 ar
    52   53   52 1
    53   54    9 1
    54   55   54 1
    55   56   54 1
    56   57   54 1
    57   58   57 1
    58   59   57 1
    59   60   57 1
    60   61   60 1
    61   62   60 1
    62   63   60 1
    63   64   63 1
    64   65   63 1
    65   66   63 1
    66   67   66 1
    67   68   66 1
    68   69   66 1
    69   70   69 1
    70   71   69 1
    71   72   69 1
    72   73   72 1
    73   74   72 1
    74   75   72 1
    75   76   75 1
    76   77   75 1
    77   78   75 1
    78   79   78 1
    79   80   78 1
    80   81   78 1
    81   82   81 1
    82   83   81 1
    83   84   81 1
    84   85   84 1
    85   86   84 1
    86   87   84 1
    87   88   87 1
    88   89   87 1
    89   90   87 1
    90   91   90 1
    91   92   90 1
    92   93   90 1
    93   94   93 1
    94   95   93 1
    95   96   93 1
    96   97   96 1
    97   98   96 1
    98   99   96 1
    99  100   99 1
   100  101   99 1
   101  102   99 1
   102    5    8 1
   103   19   22 1
   104   39   41 ar
   105   50   52 ar
@<TRIPOS>SUBSTRUCTURE
     1 RES1 1

@<TRIPOS>CRYSIN
   5.7726   11.5670   27.4620  92.9760  94.3410 102.6900   2 1

