# MOL2 file generated by ConQuest
# Please check atom types

@<TRIPOS>MOLECULE
AKAWAK
   120   124     4
SMALL
NO_CHARGES
****
Generated from CSD

@<TRIPOS>ATOM
      1 O1         3.6824    0.1752    7.4891 O.2       1 RES1    0.0000
      2 N1         4.2448    1.2509    7.8915 N.pl3     1 RES1    0.0000
      3 C1         3.7636    2.0269    9.0428 C.3       1 RES1    0.0000
      4 C2         3.9437    1.1663   10.2875 C.3       1 RES1    0.0000
      5 H1         4.7091    0.8270   10.4744 H         1 RES1    0.0000
      6 H2         3.4759    0.2458    9.9942 H         1 RES1    0.0000
      7 H3         3.5694    1.6364   11.1234 H         1 RES1    0.0000
      8 C3         2.3116    2.3444    8.8611 C.3       1 RES1    0.0000
      9 H4         2.0141    2.9104    9.5010 H         1 RES1    0.0000
     10 H5         1.8128    1.4929    8.7482 H         1 RES1    0.0000
     11 H6         1.9892    2.9273    7.9694 H         1 RES1    0.0000
     12 C4         4.7542    3.2413    8.9467 C.3       1 RES1    0.0000
     13 C5         4.1016    4.5400    8.4678 C.3       1 RES1    0.0000
     14 H7         3.6257    4.3739    7.5930 H         1 RES1    0.0000
     15 H8         4.8469    5.1093    8.4756 H         1 RES1    0.0000
     16 H9         3.5573    4.7966    9.1765 H         1 RES1    0.0000
     17 C6         5.5156    3.5073   10.2667 C.3       1 RES1    0.0000
     18 H10        6.0785    4.2797   10.0331 H         1 RES1    0.0000
     19 H11        6.1400    2.6011   10.4355 H         1 RES1    0.0000
     20 H12        4.7663    3.9312   10.9417 H         1 RES1    0.0000
     21 N2         5.7512    2.8548    7.9110 N.2       1 RES1    0.0000
     22 C7         5.3985    1.7722    7.3412 C.2       1 RES1    0.0000
     23 C8         6.0848    1.1506    6.2418 C.2       1 RES1    0.0000
     24 C9         5.8060    0.0706    5.4929 C.2       1 RES1    0.0000
     25 H13        5.0976   -0.3607    5.4773 H         1 RES1    0.0000
     26 N3         6.7582   -0.0291    4.5233 N.pl3     1 RES1    0.0000
     27 H14        6.9058   -0.7008    3.8030 H         1 RES1    0.0000
     28 C10        7.5976    0.9650    4.7661 C.2       1 RES1    0.0000
     29 H15        8.3699    1.1083    4.2689 H         1 RES1    0.0000
     30 N4         7.2439    1.7273    5.7720 N.2       1 RES1    0.0000
     31 O2        12.7999   -1.8718    4.5921 O.2       2 RES2    0.0000
     32 N5        11.7494   -1.9930    5.3242 N.pl3     2 RES2    0.0000
     33 C11       10.8394   -3.1756    5.2554 C.3       2 RES2    0.0000
     34 C12       11.6545   -4.4410    5.3527 C.3       2 RES2    0.0000
     35 H16       12.2102   -4.5900    6.2172 H         2 RES2    0.0000
     36 H17       12.3350   -4.5311    4.4649 H         2 RES2    0.0000
     37 H18       11.0354   -5.2572    5.1399 H         2 RES2    0.0000
     38 C13       10.1759   -3.0783    3.8886 C.3       2 RES2    0.0000
     39 H19        9.6262   -3.8522    3.7433 H         2 RES2    0.0000
     40 H20       10.8498   -3.0319    3.2072 H         2 RES2    0.0000
     41 H21        9.6302   -2.2883    3.8536 H         2 RES2    0.0000
     42 C14        9.9189   -2.8369    6.4274 C.3       2 RES2    0.0000
     43 C15        8.4241   -3.0457    6.1276 C.3       2 RES2    0.0000
     44 H22        7.9376   -2.8439    6.9310 H         2 RES2    0.0000
     45 H23        8.2427   -4.1103    5.9186 H         2 RES2    0.0000
     46 H24        8.1401   -2.5696    5.3475 H         2 RES2    0.0000
     47 C16       10.2485   -3.6040    7.7085 C.3       2 RES2    0.0000
     48 H25       11.3310   -3.5839    7.9824 H         2 RES2    0.0000
     49 H26       10.0933   -4.5763    7.6319 H         2 RES2    0.0000
     50 H27        9.6339   -3.1016    8.3198 H         2 RES2    0.0000
     51 N6        10.1107   -1.3825    6.7324 N.2       2 RES2    0.0000
     52 C17       11.1853   -1.0048    6.1107 C.2       2 RES2    0.0000
     53 C18       11.7613    0.3233    6.1990 C.2       2 RES2    0.0000
     54 C19       12.9058    0.8098    5.6058 C.2       2 RES2    0.0000
     55 H28       13.5745    0.3370    5.0750 H         2 RES2    0.0000
     56 N7        12.9889    2.1250    6.0147 N.pl3     2 RES2    0.0000
     57 H29       13.6894    2.8431    5.6850 H         2 RES2    0.0000
     58 C20       11.9611    2.3402    6.8064 C.2       2 RES2    0.0000
     59 H30       11.7590    3.0445    7.1387 H         2 RES2    0.0000
     60 N8        11.1696    1.3008    6.9544 N.2       2 RES2    0.0000
     61 O3        15.7336   -3.6480   -0.4050 O.2       3 RES3    0.0000
     62 N9        14.9174   -4.5601   -0.0558 N.pl3     3 RES3    0.0000
     63 C21       14.3405   -4.6222    1.2889 C.3       3 RES3    0.0000
     64 C22       15.4928   -4.8135    2.2675 C.3       3 RES3    0.0000
     65 H31       15.9162   -5.6593    2.1027 H         3 RES3    0.0000
     66 H32       15.1565   -4.7948    3.1670 H         3 RES3    0.0000
     67 H33       16.1334   -4.1066    2.1507 H         3 RES3    0.0000
     68 C23       13.6562   -3.3268    1.5757 C.3       3 RES3    0.0000
     69 H34       14.4264   -2.6296    1.5965 H         3 RES3    0.0000
     70 H35       12.9447   -3.1019    2.4142 H         3 RES3    0.0000
     71 H36       13.3444   -3.1245    0.8307 H         3 RES3    0.0000
     72 C24       13.3939   -5.8608    1.0981 C.3       3 RES3    0.0000
     73 C25       11.9200   -5.5046    1.1357 C.3       3 RES3    0.0000
     74 H37       11.6844   -4.5313    0.8307 H         3 RES3    0.0000
     75 H38       11.7507   -5.3650    2.1027 H         3 RES3    0.0000
     76 H39       11.4485   -6.2096    0.8047 H         3 RES3    0.0000
     77 C26       13.6718   -6.9895    2.0884 C.3       3 RES3    0.0000
     78 H40       13.0360   -7.8151    1.8041 H         3 RES3    0.0000
     79 H41       13.3179   -6.8216    3.1410 H         3 RES3    0.0000
     80 H42       14.5790   -7.3560    1.8690 H         3 RES3    0.0000
     81 N10       13.6631   -6.3417   -0.2687 N.2       3 RES3    0.0000
     82 C27       14.5158   -5.5945   -0.8670 C.2       3 RES3    0.0000
     83 C28       14.9831   -5.7699   -2.2143 C.2       3 RES3    0.0000
     84 C29       15.9447   -5.0946   -2.9178 C.2       3 RES3    0.0000
     85 H43       16.4710   -4.3545   -2.6089 H         3 RES3    0.0000
     86 N11       16.0093   -5.6947   -4.1391 N.pl3     3 RES3    0.0000
     87 H44       16.7739   -5.5494   -4.9452 H         3 RES3    0.0000
     88 C30       15.0975   -6.6702   -4.1210 C.2       3 RES3    0.0000
     89 H45       14.9771   -7.2583   -4.8543 H         3 RES3    0.0000
     90 N12       14.4554   -6.7823   -2.9749 N.2       3 RES3    0.0000
     91 O4         9.5821  -10.8277    0.6178 O.2       4 RES4    0.0000
     92 N13        9.7732  -11.7860   -0.1960 N.pl3     4 RES4    0.0000
     93 C31        9.0370  -13.0582   -0.0792 C.3       4 RES4    0.0000
     94 C32        9.4884  -13.6797    1.2292 C.3       4 RES4    0.0000
     95 H46        9.1156  -13.1839    1.9638 H         4 RES4    0.0000
     96 H47       10.4458  -13.6570    1.2811 H         4 RES4    0.0000
     97 H48        9.1861  -14.5897    1.2720 H         4 RES4    0.0000
     98 C33        7.5815  -12.7838   -0.0727 C.3       4 RES4    0.0000
     99 H49        7.3778  -12.2296    0.4153 H         4 RES4    0.0000
    100 H50        7.1491  -13.5048   -0.3115 H         4 RES4    0.0000
    101 H51        7.3675  -12.0571   -1.0643 H         4 RES4    0.0000
    102 C34        9.5973  -13.7822   -1.3434 C.3       4 RES4    0.0000
    103 C35        8.5742  -13.9290   -2.4531 C.3       4 RES4    0.0000
    104 H52        8.8732  -14.3089   -3.2968 H         4 RES4    0.0000
    105 H53        7.9899  -12.9706   -2.6738 H         4 RES4    0.0000
    106 H54        7.8286  -14.4918   -2.0897 H         4 RES4    0.0000
    107 C36       10.3109  -15.0983   -1.0423 C.3       4 RES4    0.0000
    108 H55       10.2739  -15.4808   -2.2065 H         4 RES4    0.0000
    109 H56        9.5496  -15.5637   -0.7788 H         4 RES4    0.0000
    110 H57       10.9829  -14.9238   -0.2596 H         4 RES4    0.0000
    111 N14       10.6380  -12.8856   -1.9171 N.2       4 RES4    0.0000
    112 C37       10.6657  -11.7833   -1.2305 C.2       4 RES4    0.0000
    113 C38       11.5835  -10.6945   -1.4913 C.2       4 RES4    0.0000
    114 C39       11.6807   -9.5144   -0.8294 C.2       4 RES4    0.0000
    115 H58       11.1347   -9.1755    0.0779 H         4 RES4    0.0000
    116 N15       12.6493   -8.8188   -1.5160 N.pl3     4 RES4    0.0000
    117 H59       12.8434   -7.8717   -1.2590 H         4 RES4    0.0000
    118 C40       13.0867   -9.5895   -2.5232 C.2       4 RES4    0.0000
    119 H60       13.7676   -9.1588   -3.2708 H         4 RES4    0.0000
    120 N16       12.4428  -10.7459   -2.5634 N.2       4 RES4    0.0000
@<TRIPOS>BOND
     1    1    2 1
     2    2    3 1
     3    3    4 1
     4    4    5 1
     5    6    4 1
     6    7    4 1
     7    8    3 1
     8    9    8 1
     9   10    8 1
    10   11    8 1
    11   12    3 1
    12   13   12 1
    13   14   13 1
    14   15   13 1
    15   16   13 1
    16   17   12 1
    17   18   17 1
    18   19   17 1
    19   20   17 1
    20   21   12 1
    21   22    2 1
    22   23   22 1
    23   24   23 2
    24   25   24 1
    25   26   24 1
    26   27   26 1
    27   28   26 1
    28   29   28 1
    29   30   23 1
    30   31   32 1
    31   32   33 1
    32   33   34 1
    33   34   35 1
    34   36   34 1
    35   37   34 1
    36   38   33 1
    37   39   38 1
    38   40   38 1
    39   41   38 1
    40   42   33 1
    41   43   42 1
    42   44   43 1
    43   45   43 1
    44   46   43 1
    45   47   42 1
    46   48   47 1
    47   49   47 1
    48   50   47 1
    49   51   42 1
    50   52   32 1
    51   53   52 1
    52   54   53 2
    53   55   54 1
    54   56   54 1
    55   57   56 1
    56   58   56 1
    57   59   58 1
    58   60   53 1
    59   61   62 1
    60   62   63 1
    61   63   64 1
    62   64   65 1
    63   66   64 1
    64   67   64 1
    65   68   63 1
    66   69   68 1
    67   70   68 1
    68   71   68 1
    69   72   63 1
    70   73   72 1
    71   74   73 1
    72   75   73 1
    73   76   73 1
    74   77   72 1
    75   78   77 1
    76   79   77 1
    77   80   77 1
    78   81   72 1
    79   82   62 1
    80   83   82 1
    81   84   83 2
    82   85   84 1
    83   86   84 1
    84   87   86 1
    85   88   86 1
    86   89   88 1
    87   90   83 1
    88   91   92 1
    89   92   93 1
    90   93   94 1
    91   94   95 1
    92   96   94 1
    93   97   94 1
    94   98   93 1
    95   99   98 1
    96  100   98 1
    97  101   98 1
    98  102   93 1
    99  103  102 1
   100  104  103 1
   101  105  103 1
   102  106  103 1
   103  107  102 1
   104  108  107 1
   105  109  107 1
   106  110  107 1
   107  111  102 1
   108  112   92 1
   109  113  112 1
   110  114  113 2
   111  115  114 1
   112  116  114 1
   113  117  116 1
   114  118  116 1
   115  119  118 1
   116  120  113 1
   117   21   22 2
   118   28   30 2
   119   51   52 2
   120   58   60 2
   121   81   82 2
   122   88   90 2
   123  111  112 2
   124  118  120 2
@<TRIPOS>SUBSTRUCTURE
     1 RES1 1
     2 RES2 31
     3 RES3 61
     4 RES4 91

@<TRIPOS>CRYSIN
  13.9720   14.0440   14.4840 111.0360  95.6440 113.2170   2 1

