# MOL2 file generated by ConQuest
# Please check atom types

@<TRIPOS>MOLECULE
AKEDUR
    30    31     1
SMALL
NO_CHARGES
****
Generated from CSD

@<TRIPOS>ATOM
      1 O1         2.4378   -0.7782   12.5325 O.2       1 RES1    0.0000
      2 N1         0.1934    3.0285   11.1381 N.am      1 RES1    0.0000
      3 O2        -0.9206    3.1288    9.1591 O.2       1 RES1    0.0000
      4 O3         3.2962   -0.8813   14.9874 O.3       1 RES1    0.0000
      5 H1         2.8354   -1.1386   14.3597 H         1 RES1    0.0000
      6 C1         1.6230    1.2147   11.6761 C.2       1 RES1    0.0000
      7 C2         1.3040    0.6364   10.4405 C.2       1 RES1    0.0000
      8 H2         1.6344   -0.2048   10.2199 H         1 RES1    0.0000
      9 N2         0.2555    0.7153    8.2702 N.pl3     1 RES1    0.0000
     10 C3         1.0314    2.4045   11.9853 C.2       1 RES1    0.0000
     11 H3         1.2123    2.7974   12.8090 H         1 RES1    0.0000
     12 C4         0.5213    1.2977    9.5747 C.2       1 RES1    0.0000
     13 C5         3.2832    1.1082   13.6328 C.ar      1 RES1    0.0000
     14 O4         0.3942    1.4126    7.2983 O.2       1 RES1    0.0000
     15 C6         2.4560    0.4524   12.6200 C.2       1 RES1    0.0000
     16 C7        -0.1210    2.5415    9.8687 C.2       1 RES1    0.0000
     17 O5        -0.0702   -0.4538    8.2375 O.2       1 RES1    0.0000
     18 C8         3.7748    2.3948   13.4624 C.ar      1 RES1    0.0000
     19 H4         3.5366    2.8777   12.7040 H         1 RES1    0.0000
     20 C9         3.6717    0.3957   14.7762 C.ar      1 RES1    0.0000
     21 C10       -0.4696    4.2709   11.5407 C.3       1 RES1    0.0000
     22 H5        -1.0278    4.5822   10.8243 H         1 RES1    0.0000
     23 H6         0.1924    4.9363   11.7414 H         1 RES1    0.0000
     24 H7        -1.0078    4.1090   12.3190 H         1 RES1    0.0000
     25 C11        4.4549    0.9947   15.7237 C.ar      1 RES1    0.0000
     26 H8         4.6667    0.5368   16.5043 H         1 RES1    0.0000
     27 C12        4.6063    2.9662   14.3900 C.ar      1 RES1    0.0000
     28 H9         4.9492    3.8198   14.2535 H         1 RES1    0.0000
     29 C13        4.9269    2.2565   15.5300 C.ar      1 RES1    0.0000
     30 H10        5.4723    2.6466   16.1752 H         1 RES1    0.0000
@<TRIPOS>BOND
     1    1   15 2
     2    2   10 1
     3    3   16 2
     4    4    5 1
     5    6    7 1
     6    7    8 1
     7    9   12 1
     8   10    6 2
     9   11   10 1
    10   12    7 2
    11   13   15 1
    12   14    9 2
    13   15    6 1
    14   16    2 1
    15   17    9 2
    16   18   13 ar
    17   19   18 1
    18   20    4 1
    19   21    2 1
    20   22   21 1
    21   23   21 1
    22   24   21 1
    23   25   20 ar
    24   26   25 1
    25   27   18 ar
    26   28   27 1
    27   29   25 ar
    28   30   29 1
    29   12   16 1
    30   13   20 ar
    31   27   29 ar
@<TRIPOS>SUBSTRUCTURE
     1 RES1 1

@<TRIPOS>CRYSIN
   7.4998   13.8350   12.2324  90.0000 107.4740  90.0000 231 1

