# MOL2 file generated by ConQuest
# Please check atom types

@<TRIPOS>MOLECULE
AKEFIH
    23    24     1
SMALL
NO_CHARGES
****
Generated from CSD

@<TRIPOS>ATOM
      1 O1         5.2828   10.9351    2.2471 O.2       1 RES1    0.0000
      2 O2         5.0375   11.9378    4.1441 O.2       1 RES1    0.0000
      3 N1         5.3888    6.1402    6.1965 N.3       1 RES1    0.0000
      4 N2         5.3334    6.5554    7.5010 N.2       1 RES1    0.0000
      5 N3         5.1821   10.9183    3.4751 N.pl3     1 RES1    0.0000
      6 C1         5.2496    7.8695    7.4687 C.2       1 RES1    0.0000
      7 H1         5.1956    8.4230    8.2396 H         1 RES1    0.0000
      8 C2         5.2503    8.3524    6.1331 C.ar      1 RES1    0.0000
      9 C3         5.2057    9.6121    5.5271 C.ar      1 RES1    0.0000
     10 H2         5.1571   10.4120    6.0363 H         1 RES1    0.0000
     11 C4         5.2355    9.6273    4.1509 C.ar      1 RES1    0.0000
     12 C5         5.3050    8.4644    3.3531 C.ar      1 RES1    0.0000
     13 H3         5.3172    8.5421    2.4063 H         1 RES1    0.0000
     14 C6         5.3544    7.2273    3.9334 C.ar      1 RES1    0.0000
     15 H4         5.4017    6.4341    3.4129 H         1 RES1    0.0000
     16 C7         5.3314    7.1863    5.3398 C.ar      1 RES1    0.0000
     17 C8         5.5557    4.7258    5.8746 C.3       1 RES1    0.0000
     18 H5         5.9287    4.2587    6.6639 H         1 RES1    0.0000
     19 H6         6.2097    4.6394    5.1364 H         1 RES1    0.0000
     20 C9         4.2707    4.0498    5.4696 C.3       1 RES1    0.0000
     21 H7         3.6261    4.1071    6.2052 H         1 RES1    0.0000
     22 H8         4.4483    3.1087    5.2631 H         1 RES1    0.0000
     23 H9         3.9031    4.4945    4.6777 H         1 RES1    0.0000
@<TRIPOS>BOND
     1    1    5 2
     2    2    5 2
     3    3    4 1
     4    4    6 2
     5    5   11 1
     6    6    7 1
     7    8    6 1
     8    9    8 ar
     9   10    9 1
    10   11    9 ar
    11   12   11 ar
    12   13   12 1
    13   14   12 ar
    14   15   14 1
    15   16    3 1
    16   17    3 1
    17   18   17 1
    18   19   17 1
    19   20   17 1
    20   21   20 1
    21   22   20 1
    22   23   20 1
    23    8   16 ar
    24   14   16 ar
@<TRIPOS>SUBSTRUCTURE
     1 RES1 1

@<TRIPOS>CRYSIN
   6.7563   11.2307   11.7323  90.0000  90.0000  90.0000  19 1

