# MOL2 file generated by ConQuest
# Please check atom types

@<TRIPOS>MOLECULE
AKEQIS
    42    43     1
SMALL
NO_CHARGES
****
Generated from CSD

@<TRIPOS>ATOM
      1 O1         4.7524    2.6170    9.2413 O.2       1 RES1    0.0000
      2 O2         5.5828    1.4495   10.8508 O.2       1 RES1    0.0000
      3 O3         4.2510   -2.9070   11.8216 O.2       1 RES1    0.0000
      4 O4         2.4061   -3.7012   11.0152 O.2       1 RES1    0.0000
      5 O5        -2.0582    2.3722    3.0078 O.3       1 RES1    0.0000
      6 O6        -0.6745    1.9170    0.8725 O.3       1 RES1    0.0000
      7 N1         2.8188    1.6327    7.7208 N.3       1 RES1    0.0000
      8 N2         4.7802    1.5948    9.9358 N.pl3     1 RES1    0.0000
      9 N3         3.2699   -2.8339   11.0857 N.pl3     1 RES1    0.0000
     10 C1         2.9433    0.5826    8.5464 C.ar      1 RES1    0.0000
     11 C2         3.8547    0.5201    9.6403 C.ar      1 RES1    0.0000
     12 C3         3.9539   -0.5954   10.4613 C.ar      1 RES1    0.0000
     13 C4         3.1357   -1.6675   10.2252 C.ar      1 RES1    0.0000
     14 C5         2.2230   -1.6682    9.1751 C.ar      1 RES1    0.0000
     15 C6         2.1414   -0.5847    8.3502 C.ar      1 RES1    0.0000
     16 C7         2.0633    1.5723    6.4743 C.3       1 RES1    0.0000
     17 C8         2.0287    2.9125    5.7663 C.3       1 RES1    0.0000
     18 C9         1.3488    2.7316    4.4278 C.ar      1 RES1    0.0000
     19 C10       -0.0535    2.6915    4.3585 C.ar      1 RES1    0.0000
     20 C11       -0.7015    2.4282    3.1654 C.ar      1 RES1    0.0000
     21 C12        0.0577    2.1933    2.0048 C.ar      1 RES1    0.0000
     22 C13        1.4355    2.2493    2.0684 C.ar      1 RES1    0.0000
     23 C14        2.0785    2.5218    3.2771 C.ar      1 RES1    0.0000
     24 C15       -2.8480    2.5160    4.1919 C.3       1 RES1    0.0000
     25 C16        0.0557    1.7727   -0.3435 C.3       1 RES1    0.0000
     26 H1         3.3820    2.2565    7.7896 H         1 RES1    0.0000
     27 H2         4.5801   -0.6142   11.1759 H         1 RES1    0.0000
     28 H3         1.6597   -2.4194    9.0334 H         1 RES1    0.0000
     29 H4         1.5320   -0.6063    7.6212 H         1 RES1    0.0000
     30 H5         1.1368    1.2825    6.6692 H         1 RES1    0.0000
     31 H6         2.4736    0.8983    5.8772 H         1 RES1    0.0000
     32 H7         1.5307    3.5707    6.3124 H         1 RES1    0.0000
     33 H8         2.9499    3.2499    5.6355 H         1 RES1    0.0000
     34 H9        -0.5644    2.8476    5.1436 H         1 RES1    0.0000
     35 H10        1.9498    2.1008    1.2838 H         1 RES1    0.0000
     36 H11        3.0275    2.5636    3.3063 H         1 RES1    0.0000
     37 H12       -3.7974    2.4201    3.9665 H         1 RES1    0.0000
     38 H13       -2.6936    3.4013    4.5817 H         1 RES1    0.0000
     39 H14       -2.5956    1.8254    4.8402 H         1 RES1    0.0000
     40 H15        0.6783    1.0201   -0.2634 H         1 RES1    0.0000
     41 H16        0.5583    2.5946   -0.5219 H         1 RES1    0.0000
     42 H17       -0.5673    1.6048   -1.0804 H         1 RES1    0.0000
@<TRIPOS>BOND
     1    1    8 2
     2    2    8 2
     3    3    9 2
     4    4    9 2
     5    5   20 1
     6    6   21 1
     7    7   10 1
     8    8   11 1
     9    9   13 1
    10   10   11 ar
    11   11   12 ar
    12   12   13 ar
    13   13   14 ar
    14   14   15 ar
    15   15   10 ar
    16   16    7 1
    17   17   16 1
    18   18   17 1
    19   19   18 ar
    20   20   19 ar
    21   21   20 ar
    22   22   21 ar
    23   23   18 ar
    24   24    5 1
    25   25    6 1
    26   26    7 1
    27   27   12 1
    28   28   14 1
    29   29   15 1
    30   30   16 1
    31   31   16 1
    32   32   17 1
    33   33   17 1
    34   34   19 1
    35   35   22 1
    36   36   23 1
    37   37   24 1
    38   38   24 1
    39   39   24 1
    40   40   25 1
    41   41   25 1
    42   42   25 1
    43   22   23 ar
@<TRIPOS>SUBSTRUCTURE
     1 RES1 1

@<TRIPOS>CRYSIN
  13.0087    7.2092   17.0024  90.0000 101.2970  90.0000  14 1

