# MOL2 file generated by ConQuest
# Please check atom types

@<TRIPOS>MOLECULE
AKOGEO
    96   102     2
SMALL
NO_CHARGES
****
Generated from CSD

@<TRIPOS>ATOM
      1 C1         4.0136    2.9749    1.3665 C.ar      1 RES1    0.0000
      2 C2         2.8754    3.6441    1.7924 C.ar      1 RES1    0.0000
      3 H1         2.2570    4.0149    1.1739 H         1 RES1    0.0000
      4 C3         2.6881    3.7438    3.1187 C.ar      1 RES1    0.0000
      5 H2         1.9315    4.2058    3.4600 H         1 RES1    0.0000
      6 C4         3.6117    3.1654    3.9915 C.ar      1 RES1    0.0000
      7 H3         3.4662    3.2533    4.9258 H         1 RES1    0.0000
      8 C5         4.7227    2.4740    3.5650 C.ar      1 RES1    0.0000
      9 H4         5.3194    2.0819    4.1929 H         1 RES1    0.0000
     10 C6         4.9507    2.3612    2.2226 C.ar      1 RES1    0.0000
     11 C7         5.9531    1.7370    1.4170 C.2       1 RES1    0.0000
     12 C8         5.6038    2.0105    0.1519 C.2       1 RES1    0.0000
     13 C9         7.2136    0.9831    1.7662 C.3       1 RES1    0.0000
     14 H5         7.7945    1.0144    0.9523 H         1 RES1    0.0000
     15 C10        7.9942    1.6304    2.8636 C.3       1 RES1    0.0000
     16 H6         8.8090    1.0967    3.0424 H         1 RES1    0.0000
     17 H7         7.4493    1.6384    3.6901 H         1 RES1    0.0000
     18 C11        7.0047   -0.4985    2.0881 C.ar      1 RES1    0.0000
     19 C12        7.8617   -1.4363    1.5451 C.ar      1 RES1    0.0000
     20 H8         8.5657   -1.1492    0.9758 H         1 RES1    0.0000
     21 C13        7.7142   -2.7960    1.8165 C.ar      1 RES1    0.0000
     22 H9         8.3140   -3.4248    1.4317 H         1 RES1    0.0000
     23 C14        6.7043   -3.2271    2.6380 C.ar      1 RES1    0.0000
     24 H10        6.6052   -4.1514    2.8315 H         1 RES1    0.0000
     25 C15        5.8341   -2.3033    3.1798 C.ar      1 RES1    0.0000
     26 H11        5.1283   -2.5948    3.7455 H         1 RES1    0.0000
     27 C16        5.9839   -0.9453    2.9033 C.ar      1 RES1    0.0000
     28 H12        5.3762   -0.3197    3.2810 H         1 RES1    0.0000
     29 C17        6.2937    1.6304   -1.0533 C.ar      1 RES1    0.0000
     30 C18        6.8683    2.5925   -1.8653 C.ar      1 RES1    0.0000
     31 H13        6.7987    3.5098   -1.6277 H         1 RES1    0.0000
     32 C19        7.5288    2.2401   -2.9955 C.ar      1 RES1    0.0000
     33 H14        7.9111    2.9016   -3.5601 H         1 RES1    0.0000
     34 C20        7.6343    0.8954   -3.3098 C.ar      1 RES1    0.0000
     35 C21        7.0498   -0.0815   -2.5200 C.ar      1 RES1    0.0000
     36 H15        7.1109   -0.9977   -2.7633 H         1 RES1    0.0000
     37 C22        6.3924    0.2862   -1.3991 C.ar      1 RES1    0.0000
     38 H16        5.9957   -0.3753   -0.8437 H         1 RES1    0.0000
     39 C23        9.1133    1.3800   -5.0658 C.3       1 RES1    0.0000
     40 H17        9.6825    0.9150   -5.7141 H         1 RES1    0.0000
     41 H18        9.6762    1.8691   -4.4294 H         1 RES1    0.0000
     42 H19        8.5287    2.0098   -5.5372 H         1 RES1    0.0000
     43 N1         4.4414    2.7573    0.1178 N.pl3     1 RES1    0.0000
     44 H20        3.9442    2.9846   -0.5774 H         1 RES1    0.0000
     45 N2         8.3939    3.0469    2.5185 N.pl3     1 RES1    0.0000
     46 O1         8.7723    3.2912    1.4234 O.2       1 RES1    0.0000
     47 O2         8.3518    3.8591    3.3809 O.2       1 RES1    0.0000
     48 O3         8.3194    0.4300   -4.3627 O.3       1 RES1    0.0000
     49 C24        8.7018    0.5058   12.7870 C.ar      2 RES2    0.0000
     50 C25        9.8655    0.0149   13.3767 C.ar      2 RES2    0.0000
     51 H21       10.4986   -0.4914   12.8812 H         2 RES2    0.0000
     52 C26       10.0515    0.2913   14.6802 C.ar      2 RES2    0.0000
     53 H22       10.8232   -0.0318   15.1310 H         2 RES2    0.0000
     54 C27        9.1127    1.0492   15.3660 C.ar      2 RES2    0.0000
     55 H23        9.2644    1.2374   16.2836 H         2 RES2    0.0000
     56 C28        7.9682    1.5418   14.7714 C.ar      2 RES2    0.0000
     57 H24        7.3505    2.0610   15.2738 H         2 RES2    0.0000
     58 C29        7.7335    1.2716   13.4466 C.ar      2 RES2    0.0000
     59 C30        6.6994    1.6119   12.5154 C.2       2 RES2    0.0000
     60 C31        7.0698    1.0434   11.3566 C.2       2 RES2    0.0000
     61 C32        5.3864    2.3386   12.6709 C.3       2 RES2    0.0000
     62 H25        4.7972    2.0156   11.9310 H         2 RES2    0.0000
     63 C33        4.6770    2.0146   13.9403 C.3       2 RES2    0.0000
     64 H26        3.8112    2.4936   13.9571 H         2 RES2    0.0000
     65 H27        5.2172    2.3413   14.7028 H         2 RES2    0.0000
     66 C34        5.4518    3.8625   12.5339 C.ar      2 RES2    0.0000
     67 C35        6.4734    4.6190   13.0942 C.ar      2 RES2    0.0000
     68 H28        7.1870    4.1879   13.5502 H         2 RES2    0.0000
     69 C36        6.4558    6.0106   12.9903 C.ar      2 RES2    0.0000
     70 H29        7.1593    6.5191   13.3755 H         2 RES2    0.0000
     71 C37        5.4242    6.6577   12.3328 C.ar      2 RES2    0.0000
     72 H30        5.4066    7.6061   12.2868 H         2 RES2    0.0000
     73 C38        4.4236    5.9133   11.7458 C.ar      2 RES2    0.0000
     74 H31        3.7234    6.3472   11.2726 H         2 RES2    0.0000
     75 C39        4.4384    4.5240   11.8479 C.ar      2 RES2    0.0000
     76 H32        3.7438    4.0189   11.4409 H         2 RES2    0.0000
     77 C40        6.3698    1.0510   10.0968 C.ar      2 RES2    0.0000
     78 C41        6.0613    2.2588    9.4698 C.ar      2 RES2    0.0000
     79 H33        6.3137    3.0787    9.8793 H         2 RES2    0.0000
     80 C42        5.4051    2.2751    8.2826 C.ar      2 RES2    0.0000
     81 H34        5.2146    3.0990    7.8489 H         2 RES2    0.0000
     82 C43        5.0164    1.0754    7.7108 C.ar      2 RES2    0.0000
     83 C44        5.3266   -0.1388    8.3103 C.ar      2 RES2    0.0000
     84 H35        5.0716   -0.9580    7.9021 H         2 RES2    0.0000
     85 C45        6.0021   -0.1375    9.4936 C.ar      2 RES2    0.0000
     86 H36        6.2228   -0.9624    9.9091 H         2 RES2    0.0000
     87 C46        3.7896    0.0037    6.0205 C.3       2 RES2    0.0000
     88 H37        3.2632    0.2178    5.2219 H         2 RES2    0.0000
     89 H38        3.2129   -0.4293    6.6856 H         2 RES2    0.0000
     90 H39        4.5200   -0.6016    5.7780 H         2 RES2    0.0000
     91 N3         8.2695    0.3743   11.5172 N.pl3     2 RES2    0.0000
     92 H40        8.7401    0.0515   10.8529 H         2 RES2    0.0000
     93 N4         4.4247    0.5368   14.1141 N.pl3     2 RES2    0.0000
     94 O4         4.0552   -0.0796   13.1624 O.2       2 RES2    0.0000
     95 O5         4.5727    0.0648   15.1920 O.2       2 RES2    0.0000
     96 O6         4.3285    1.2037    6.5693 O.3       2 RES2    0.0000
@<TRIPOS>BOND
     1    1    2 ar
     2    2    3 1
     3    4    2 ar
     4    5    4 1
     5    6    4 ar
     6    7    6 1
     7    8    6 ar
     8    9    8 1
     9   10    1 ar
    10   11   10 1
    11   12   11 2
    12   13   11 1
    13   14   13 1
    14   15   13 1
    15   16   15 1
    16   17   15 1
    17   18   13 1
    18   19   18 ar
    19   20   19 1
    20   21   19 ar
    21   22   21 1
    22   23   21 ar
    23   24   23 1
    24   25   23 ar
    25   26   25 1
    26   27   18 ar
    27   28   27 1
    28   29   12 1
    29   30   29 ar
    30   31   30 1
    31   32   30 ar
    32   33   32 1
    33   34   32 ar
    34   35   34 ar
    35   36   35 1
    36   37   29 ar
    37   38   37 1
    38   39   40 1
    39   41   39 1
    40   42   39 1
    41   43    1 1
    42   44   43 1
    43   45   15 1
    44   46   45 2
    45   47   45 2
    46   48   34 1
    47   49   50 ar
    48   50   51 1
    49   52   50 ar
    50   53   52 1
    51   54   52 ar
    52   55   54 1
    53   56   54 ar
    54   57   56 1
    55   58   49 ar
    56   59   58 1
    57   60   59 2
    58   61   59 1
    59   62   61 1
    60   63   61 1
    61   64   63 1
    62   65   63 1
    63   66   61 1
    64   67   66 ar
    65   68   67 1
    66   69   67 ar
    67   70   69 1
    68   71   69 ar
    69   72   71 1
    70   73   71 ar
    71   74   73 1
    72   75   66 ar
    73   76   75 1
    74   77   60 1
    75   78   77 ar
    76   79   78 1
    77   80   78 ar
    78   81   80 1
    79   82   80 ar
    80   83   82 ar
    81   84   83 1
    82   85   77 ar
    83   86   85 1
    84   87   88 1
    85   89   87 1
    86   90   87 1
    87   91   49 1
    88   92   91 1
    89   93   63 1
    90   94   93 2
    91   95   93 2
    92   96   82 1
    93    8   10 ar
    94   12   43 1
    95   25   27 ar
    96   35   37 ar
    97   39   48 1
    98   56   58 ar
    99   60   91 1
   100   73   75 ar
   101   83   85 ar
   102   87   96 1
@<TRIPOS>SUBSTRUCTURE
     1 RES1 1
     2 RES2 49

@<TRIPOS>CRYSIN
   9.2014    9.4543   21.6201  98.5630  93.4160  98.3540   2 1

