# MOL2 file generated by ConQuest
# Please check atom types

@<TRIPOS>MOLECULE
AKUFOD
    60    59     2
SMALL
NO_CHARGES
****
Generated from CSD

@<TRIPOS>ATOM
      1 O1         4.0250    9.0655    8.0307 O.2       1 RES1    0.0000
      2 O2        -0.1696    6.5403    3.2391 O.3       1 RES1    0.0000
      3 O3         0.4980   10.5404    1.4243 O.3       1 RES1    0.0000
      4 O4         6.9479   10.8802    4.6518 O.2       1 RES1    0.0000
      5 O5         5.8641    9.1810    5.4012 O.2       1 RES1    0.0000
      6 O6        -0.3645   11.2174   -0.5362 O.2       1 RES1    0.0000
      7 O7         5.2687    7.2959    7.9049 O.2       1 RES1    0.0000
      8 O8        -1.9960    5.2357    3.1295 O.2       1 RES1    0.0000
      9 C1         2.6570   11.1550    2.2472 C.ar      1 RES1    0.0000
     10 N1         5.9585   10.1660    4.6949 N.pl3     1 RES1    0.0000
     11 C2         2.6538    9.9801    2.9734 C.ar      1 RES1    0.0000
     12 H1         1.9224    9.3921    2.9174 H         1 RES1    0.0000
     13 N2         4.2736    7.9318    7.6088 N.pl3     1 RES1    0.0000
     14 C3         3.3152    7.3371    6.6624 C.ar      1 RES1    0.0000
     15 C4         3.6579    6.1994    5.9863 C.ar      1 RES1    0.0000
     16 H2         4.5019    5.8038    6.1099 H         1 RES1    0.0000
     17 C5         2.7321    5.6392    5.1110 C.ar      1 RES1    0.0000
     18 H3         2.9614    4.8666    4.6261 H         1 RES1    0.0000
     19 C6         1.4760    6.2034    4.9420 C.ar      1 RES1    0.0000
     20 C7         0.4762    5.5251    4.0468 C.3       1 RES1    0.0000
     21 H4         0.9288    4.8746    3.4699 H         1 RES1    0.0000
     22 H5        -0.1897    5.0498    4.5853 H         1 RES1    0.0000
     23 C8        -1.4032    6.2419    2.8067 C.2       1 RES1    0.0000
     24 C9        -1.9386    7.2654    1.8859 C.2       1 RES1    0.0000
     25 C10       -1.1730    8.4270    1.6015 C.2       1 RES1    0.0000
     26 H6        -0.4777    8.6075    2.2076 H         1 RES1    0.0000
     27 C11       -1.2998    9.3137    0.5793 C.2       1 RES1    0.0000
     28 C12       -0.3867   10.4594    0.4045 C.2       1 RES1    0.0000
     29 C13        1.5237   11.5453    1.3287 C.3       1 RES1    0.0000
     30 H7         1.1635   12.4188    1.5910 H         1 RES1    0.0000
     31 H8         1.8461   11.6090    0.4056 H         1 RES1    0.0000
     32 C14        3.7498   12.0112    2.3405 C.ar      1 RES1    0.0000
     33 H9         3.7480   12.8157    1.8544 H         1 RES1    0.0000
     34 C15        4.8380   11.7006    3.1307 C.ar      1 RES1    0.0000
     35 H10        5.5798   12.2767    3.1808 H         1 RES1    0.0000
     36 C16        4.8044   10.5284    3.8417 C.ar      1 RES1    0.0000
     37 C17        3.7376    9.6722    3.7846 C.ar      1 RES1    0.0000
     38 H11        3.7397    8.8796    4.2916 H         1 RES1    0.0000
     39 C18       -3.1688    6.8950    1.3322 C.2       1 RES1    0.0000
     40 H12       -3.5021    6.0494    1.5677 H         1 RES1    0.0000
     41 C19       -3.9832    7.6915    0.4266 C.ar      1 RES1    0.0000
     42 C20       -5.2847    7.2482    0.2774 C.ar      1 RES1    0.0000
     43 H13       -5.6097    6.5804    0.8544 H         1 RES1    0.0000
     44 C21       -6.1245    7.7619   -0.7028 C.ar      1 RES1    0.0000
     45 H14       -7.0009    7.4313   -0.7914 H         1 RES1    0.0000
     46 C22       -5.6783    8.7442   -1.5350 C.ar      1 RES1    0.0000
     47 H15       -6.2382    9.0934   -2.2052 H         1 RES1    0.0000
     48 C23       -4.3807    9.2235   -1.3789 C.ar      1 RES1    0.0000
     49 H16       -4.0778    9.9217   -1.9313 H         1 RES1    0.0000
     50 C24       -3.5324    8.6938   -0.4289 C.ar      1 RES1    0.0000
     51 N3        -2.0888    8.9354   -0.5222 N.pl3     1 RES1    0.0000
     52 H17       -1.9752    9.5872   -1.1527 H         1 RES1    0.0000
     53 C25        2.0728    7.9424    6.5202 C.ar      1 RES1    0.0000
     54 H18        1.8570    8.7243    6.9945 H         1 RES1    0.0000
     55 C26        1.1627    7.3530    5.6565 C.ar      1 RES1    0.0000
     56 H19        0.3125    7.7407    5.5516 H         1 RES1    0.0000
     57 N4        -3.2038    7.3331    1.6108 Du        2 SUP2    0.0000
     58 H20       -3.3885    6.3839    1.6225 Du        2 SUP2    0.0000
     59 C27       -2.4330    9.7200   -0.2226 Du        2 SUP2    0.0000
     60 H21       -2.4864   10.5788   -0.5979 Du        2 SUP2    0.0000
@<TRIPOS>BOND
     1    1   13 2
     2    2   20 1
     3    3   28 1
     4    4   10 2
     5    5   10 2
     6    6   28 2
     7    7   13 2
     8    8   23 2
     9    9   11 ar
    10   10   36 1
    11   11   12 1
    12   13   14 1
    13   14   15 ar
    14   15   16 1
    15   17   15 ar
    16   18   17 1
    17   19   17 ar
    18   20   19 1
    19   21   20 1
    20   22   20 1
    21   23    2 1
    22   24   23 1
    23   25   24 1
    24   26   25 1
    25   27   25 2
    26   28   27 1
    27   29    3 1
    28   30   29 1
    29   31   29 1
    30   32    9 ar
    31   33   32 1
    32   34   32 ar
    33   35   34 1
    34   36   34 ar
    35   37   11 ar
    36   38   37 1
    37   39   24 2
    38   40   39 1
    39   41   39 1
    40   42   41 ar
    41   43   42 1
    42   44   42 ar
    43   45   44 1
    44   46   44 ar
    45   47   46 1
    46   48   46 ar
    47   49   48 1
    48   50   41 ar
    49   51   27 1
    50   52   51 1
    51   53   14 ar
    52   54   53 1
    53   55   19 ar
    54   56   55 1
    55    9   29 1
    56   36   37 ar
    57   48   50 ar
    58   50   51 1
    59   53   55 ar
@<TRIPOS>SUBSTRUCTURE
     1 RES1 1
     2 SUP2 57

@<TRIPOS>CRYSIN
   7.5084   13.2750   11.7594  90.0000  97.6170  90.0000   4 1

