# MOL2 file generated by ConQuest
# Please check atom types

@<TRIPOS>MOLECULE
AKUJEX
    52    55     1
SMALL
NO_CHARGES
****
Generated from CSD

@<TRIPOS>ATOM
      1 O1        15.6933   -1.6082   -0.0064 O.2       1 RES1    0.0000
      2 O2        12.9565   -0.9455    2.1768 O.3       1 RES1    0.0000
      3 H1        13.4986   -1.6993    2.4539 H         1 RES1    0.0000
      4 O3        14.4383    3.5604    2.7524 O.2       1 RES1    0.0000
      5 O4        11.6240    4.0614   -0.7695 O.2       1 RES1    0.0000
      6 O5        10.9599    2.1119   -1.4399 O.2       1 RES1    0.0000
      7 N1        11.6938    2.8345   -0.7860 N.pl3     1 RES1    0.0000
      8 C1        13.2637   -0.0394   -2.7809 C.ar      1 RES1    0.0000
      9 H2        12.5978   -0.6757   -2.5477 H         1 RES1    0.0000
     10 C2        13.8204   -0.0612   -4.0553 C.ar      1 RES1    0.0000
     11 H3        13.5501   -0.7239   -4.6788 H         1 RES1    0.0000
     12 C3        14.7622    0.8748   -4.4129 C.ar      1 RES1    0.0000
     13 H4        15.1352    0.8619   -5.2862 H         1 RES1    0.0000
     14 C4        15.1689    1.8373   -3.5018 C.ar      1 RES1    0.0000
     15 H5        15.8082    2.4932   -3.7538 H         1 RES1    0.0000
     16 C5        14.6357    1.8387   -2.2188 C.ar      1 RES1    0.0000
     17 H6        14.9309    2.4851   -1.5879 H         1 RES1    0.0000
     18 C6        13.6724    0.9034   -1.8465 C.ar      1 RES1    0.0000
     19 C7        13.1349    0.8361   -0.4182 C.3       1 RES1    0.0000
     20 H7        12.3414    0.2284   -0.3939 H         1 RES1    0.0000
     21 C8        14.2414    0.2658    0.4991 C.3       1 RES1    0.0000
     22 H8        15.0507    0.8490    0.4252 H         1 RES1    0.0000
     23 C9        14.5949   -1.1229   -0.0043 C.2       1 RES1    0.0000
     24 H9        13.8849   -1.6531   -0.3471 H         1 RES1    0.0000
     25 C10       13.8383    0.1584    1.9972 C.3       1 RES1    0.0000
     26 C11       15.1131    0.0340    2.8514 C.3       1 RES1    0.0000
     27 H10       14.9100   -0.3840    3.7260 H         1 RES1    0.0000
     28 H11       15.7933   -0.5139    2.3863 H         1 RES1    0.0000
     29 C12       15.6137    1.4771    3.0416 C.3       1 RES1    0.0000
     30 H12       15.9298    1.6184    3.9690 H         1 RES1    0.0000
     31 H13       16.3576    1.6742    2.4175 H         1 RES1    0.0000
     32 C13       14.4223    2.3539    2.7450 C.2       1 RES1    0.0000
     33 C14       13.1834    1.4818    2.4852 C.3       1 RES1    0.0000
     34 C15       12.5744    1.3017    3.8939 C.3       1 RES1    0.0000
     35 H14       13.2394    0.8925    4.4862 H         1 RES1    0.0000
     36 H15       11.7871    0.7219    3.8371 H         1 RES1    0.0000
     37 H16       12.3129    2.1758    4.2501 H         1 RES1    0.0000
     38 C16       12.1725    2.1962    1.5557 C.3       1 RES1    0.0000
     39 H17       12.1767    3.1533    1.8448 H         1 RES1    0.0000
     40 C17       12.7356    2.1996    0.1116 C.3       1 RES1    0.0000
     41 H18       13.5474    2.7835    0.1007 H         1 RES1    0.0000
     42 C18       10.7100    1.7544    1.6310 C.ar      1 RES1    0.0000
     43 C19        9.7536    2.7631    1.6933 C.ar      1 RES1    0.0000
     44 H19       10.0309    3.6712    1.7146 H         1 RES1    0.0000
     45 C20        8.3958    2.4606    1.7244 C.ar      1 RES1    0.0000
     46 H20        7.7550    3.1607    1.7632 H         1 RES1    0.0000
     47 C21        7.9807    1.1589    1.6992 C.ar      1 RES1    0.0000
     48 H21        7.0531    0.9543    1.7233 H         1 RES1    0.0000
     49 C22        8.9123    0.1434    1.6398 C.ar      1 RES1    0.0000
     50 H22        8.6227   -0.7613    1.6296 H         1 RES1    0.0000
     51 C23       10.2714    0.4337    1.5954 C.ar      1 RES1    0.0000
     52 H23       10.9036   -0.2726    1.5411 H         1 RES1    0.0000
@<TRIPOS>BOND
     1    1   23 2
     2    2    3 1
     3    4   32 2
     4    5    7 2
     5    6    7 2
     6    7   40 1
     7    8    9 1
     8   10    8 ar
     9   11   10 1
    10   12   10 ar
    11   13   12 1
    12   14   12 ar
    13   15   14 1
    14   16   14 ar
    15   17   16 1
    16   18    8 ar
    17   19   18 1
    18   20   19 1
    19   21   19 1
    20   22   21 1
    21   23   21 1
    22   24   23 1
    23   25    2 1
    24   26   25 1
    25   27   26 1
    26   28   26 1
    27   29   26 1
    28   30   29 1
    29   31   29 1
    30   32   29 1
    31   33   25 1
    32   34   33 1
    33   35   34 1
    34   36   34 1
    35   37   34 1
    36   38   33 1
    37   39   38 1
    38   40   19 1
    39   41   40 1
    40   42   38 1
    41   43   42 ar
    42   44   43 1
    43   45   43 ar
    44   46   45 1
    45   47   45 ar
    46   48   47 1
    47   49   47 ar
    48   50   49 1
    49   51   42 ar
    50   52   51 1
    51   16   18 ar
    52   21   25 1
    53   32   33 1
    54   38   40 1
    55   49   51 ar
@<TRIPOS>SUBSTRUCTURE
     1 RES1 1

@<TRIPOS>CRYSIN
  16.5186    6.7973   17.4934  90.0000  97.2220  90.0000 231 1

