# MOL2 file generated by ConQuest
# Please check atom types

@<TRIPOS>MOLECULE
AKUJAT
    45    47     1
SMALL
NO_CHARGES
****
Generated from CSD

@<TRIPOS>ATOM
      1 O1         0.3690    2.2909   17.6711 O.2       1 RES1    0.0000
      2 O2         5.0227    1.7738   17.3252 O.3       1 RES1    0.0000
      3 H1         5.7097    2.1617   17.6139 H         1 RES1    0.0000
      4 O3         4.5580    5.5262   16.4773 O.2       1 RES1    0.0000
      5 O4         5.7598    4.0137   15.5224 O.2       1 RES1    0.0000
      6 O5         0.9312    0.4956   13.5895 O.2       1 RES1    0.0000
      7 N1         4.7199    4.3943   16.0498 N.pl3     1 RES1    0.0000
      8 C1         1.6495    3.3955   19.3552 C.3       1 RES1    0.0000
      9 H2         1.7947    2.8802   20.1876 H         1 RES1    0.0000
     10 H3         0.8350    3.9448   19.4739 H         1 RES1    0.0000
     11 C2         1.4450    2.4397   18.2061 C.2       1 RES1    0.0000
     12 C3         2.6777    1.6297   17.7755 C.3       1 RES1    0.0000
     13 C4         3.8899    2.5938   17.5462 C.3       1 RES1    0.0000
     14 C5         4.0950    3.5194   18.7469 C.3       1 RES1    0.0000
     15 H4         4.3715    2.9777   19.5278 H         1 RES1    0.0000
     16 H5         4.8285    4.1526   18.5431 H         1 RES1    0.0000
     17 C6         2.8454    4.3112   19.1122 C.3       1 RES1    0.0000
     18 H6         2.6317    4.9414   18.3781 H         1 RES1    0.0000
     19 H7         3.0217    4.8424   19.9284 H         1 RES1    0.0000
     20 C7         2.9842    0.6415   18.9221 C.3       1 RES1    0.0000
     21 H8         2.1845    0.1088   19.1171 H         1 RES1    0.0000
     22 H9         3.2466    1.1417   19.7230 H         1 RES1    0.0000
     23 H10        3.7155    0.0476   18.6542 H         1 RES1    0.0000
     24 C8         2.3955    0.8107   16.5218 C.3       1 RES1    0.0000
     25 H11        1.5774    0.2735   16.6712 H         1 RES1    0.0000
     26 H12        3.1445    0.1798   16.3800 H         1 RES1    0.0000
     27 C9         2.2090    1.6494   15.2494 C.3       1 RES1    0.0000
     28 H13        1.4049    2.2349   15.3516 H         1 RES1    0.0000
     29 C10        3.4616    2.5296   15.0006 C.3       1 RES1    0.0000
     30 H14        4.2618    1.9320   14.9459 H         1 RES1    0.0000
     31 C11        3.5987    3.4068   16.2386 C.3       1 RES1    0.0000
     32 H15        2.7466    3.9146   16.3632 H         1 RES1    0.0000
     33 C12        1.9913    0.6936   14.1153 C.2       1 RES1    0.0000
     34 H16        2.7432    0.2116   13.7911 H         1 RES1    0.0000
     35 C13        3.3500    3.3041   13.6957 C.ar      1 RES1    0.0000
     36 C14        3.9626    2.8039   12.5501 C.ar      1 RES1    0.0000
     37 H17        4.4832    2.0113   12.6044 H         1 RES1    0.0000
     38 C15        3.8219    3.4484   11.3300 C.ar      1 RES1    0.0000
     39 H18        4.2385    3.0910   10.5559 H         1 RES1    0.0000
     40 C16        3.0774    4.6074   11.2379 C.ar      1 RES1    0.0000
     41 H19        2.9790    5.0464   10.4010 H         1 RES1    0.0000
     42 C17        2.4777    5.1257   12.3668 C.ar      1 RES1    0.0000
     43 H20        1.9671    5.9251   12.3082 H         1 RES1    0.0000
     44 C18        2.6189    4.4805   13.5910 C.ar      1 RES1    0.0000
     45 H21        2.2101    4.8492   14.3651 H         1 RES1    0.0000
@<TRIPOS>BOND
     1    1   11 2
     2    2    3 1
     3    4    7 2
     4    5    7 2
     5    6   33 2
     6    7   31 1
     7    8    9 1
     8   10    8 1
     9   11    8 1
    10   12   11 1
    11   13    2 1
    12   14   13 1
    13   15   14 1
    14   16   14 1
    15   17    8 1
    16   18   17 1
    17   19   17 1
    18   20   12 1
    19   21   20 1
    20   22   20 1
    21   23   20 1
    22   24   12 1
    23   25   24 1
    24   26   24 1
    25   27   24 1
    26   28   27 1
    27   29   27 1
    28   30   29 1
    29   31   13 1
    30   32   31 1
    31   33   27 1
    32   34   33 1
    33   35   29 1
    34   36   35 ar
    35   37   36 1
    36   38   36 ar
    37   39   38 1
    38   40   38 ar
    39   41   40 1
    40   42   40 ar
    41   43   42 1
    42   44   35 ar
    43   45   44 1
    44   12   13 1
    45   14   17 1
    46   29   31 1
    47   42   44 ar
@<TRIPOS>SUBSTRUCTURE
     1 RES1 1

@<TRIPOS>CRYSIN
  12.4616    7.5556   17.8282  90.0000 109.2360  90.0000 231 1

