# MOL2 file generated by ConQuest
# Please check atom types

@<TRIPOS>MOLECULE
AKUPIG
    28    29     1
SMALL
NO_CHARGES
****
Generated from CSD

@<TRIPOS>ATOM
      1 C1         0.2700    3.2159    7.6307 C.2       1 RES1    0.0000
      2 C2         1.4435    3.2447    8.4928 C.ar      1 RES1    0.0000
      3 C3         2.4054    2.2696    8.6585 C.ar      1 RES1    0.0000
      4 C4         3.4034    2.5157    9.5519 C.ar      1 RES1    0.0000
      5 C5         3.4255    3.6857   10.2608 C.ar      1 RES1    0.0000
      6 C6         2.4624    4.6638   10.1075 C.ar      1 RES1    0.0000
      7 C7         1.4604    4.4244    9.1923 C.ar      1 RES1    0.0000
      8 C8         0.2545    5.2204    8.7993 C.3       1 RES1    0.0000
      9 C9         0.5283    6.5644    8.1404 C.3       1 RES1    0.0000
     10 C10        1.0952    7.5469    9.1401 C.3       1 RES1    0.0000
     11 C11        1.3811    6.4523    6.8978 C.3       1 RES1    0.0000
     12 N1        -0.1368    2.4126    6.8593 N.2       1 RES1    0.0000
     13 N2        -0.8466    7.1076    7.7506 N.pl3     1 RES1    0.0000
     14 O1        -0.4194    4.3761    7.8391 O.3       1 RES1    0.0000
     15 O2        -1.7103    7.0934    8.6033 O.2       1 RES1    0.0000
     16 O3        -1.0154    7.5536    6.6539 O.2       1 RES1    0.0000
     17 H1         2.3739    1.4736    8.1790 H         1 RES1    0.0000
     18 H2         4.0745    1.8860    9.6801 H         1 RES1    0.0000
     19 H3         4.1149    3.8279   10.8685 H         1 RES1    0.0000
     20 H4         2.4895    5.4518   10.6006 H         1 RES1    0.0000
     21 H5        -0.3206    5.3511    9.5821 H         1 RES1    0.0000
     22 H6         0.5245    7.5839    9.9116 H         1 RES1    0.0000
     23 H7         1.1487    8.4166    8.7388 H         1 RES1    0.0000
     24 H8         1.9734    7.2627    9.4060 H         1 RES1    0.0000
     25 H9         0.9849    5.8210    6.2932 H         1 RES1    0.0000
     26 H10        2.2611    6.1551    7.1397 H         1 RES1    0.0000
     27 H11        1.4396    7.3106    6.4715 H         1 RES1    0.0000
     28 H12        0.4316    1.9851    6.6206 H         1 RES1    0.0000
@<TRIPOS>BOND
     1    1    2 1
     2    2    3 ar
     3    3    4 ar
     4    4    5 ar
     5    5    6 ar
     6    6    7 ar
     7    7    2 ar
     8    8    7 1
     9    9    8 1
    10   10    9 1
    11   11    9 1
    12   12    1 2
    13   13    9 1
    14   14    1 1
    15   15   13 2
    16   16   13 2
    17   17    3 1
    18   18    4 1
    19   19    5 1
    20   20    6 1
    21   21    8 1
    22   22   10 1
    23   23   10 1
    24   24   10 1
    25   25   11 1
    26   26   11 1
    27   27   11 1
    28   28   12 1
    29    8   14 1
@<TRIPOS>SUBSTRUCTURE
     1 RES1 1

@<TRIPOS>CRYSIN
   6.2542   15.9830   10.4370  90.0000  92.8120  90.0000  14 1

