# MOL2 file generated by ConQuest
# Please check atom types

@<TRIPOS>MOLECULE
AKUPOM
    35    24     2
SMALL
NO_CHARGES
****
Generated from CSD

@<TRIPOS>ATOM
      1 C1        10.0520    0.8409   -0.6321 C.ar      1 RES1    0.0000
      2 C2         9.8935   -0.2397    0.1919 C.ar      1 RES1    0.0000
      3 C3         9.0113   -0.1948    1.2523 C.ar      1 RES1    0.0000
      4 C4         8.2378    0.9265    1.4975 C.ar      1 RES1    0.0000
      5 C5         8.3949    2.0047    0.6615 C.ar      1 RES1    0.0000
      6 C6         9.2879    1.9656   -0.3772 C.ar      1 RES1    0.0000
      7 C7         9.2511    3.2650   -1.0828 C.2       1 RES1    0.0000
      8 C8         7.6848    3.3385    0.6707 C.3       1 RES1    0.0000
      9 C9         6.1716    3.2739    0.5539 C.3       1 RES1    0.0000
     10 C10        5.7043    4.7786    0.8751 C.3       1 RES1    0.0000
     11 C11        4.1890    4.8001    0.9566 C.3       1 RES1    0.0000
     12 C12        5.2904    4.4124    0.1685 Du        2 SUP2    0.0000
     13 C13        5.2069    5.2586    1.4132 Du        2 SUP2    0.0000
     14 N1         8.3538    4.0241   -0.4245 N.am      1 RES1    0.0000
     15 N2         5.8553    2.4370   -0.7066 N.pl3     1 RES1    0.0000
     16 O1         9.8983    3.6167   -2.0671 O.2       1 RES1    0.0000
     17 O2         5.4094    1.3693   -0.4675 O.2       1 RES1    0.0000
     18 O3         5.9904    2.8985   -1.7149 O.2       1 RES1    0.0000
     19 H1        10.6590    0.8185   -1.3442 H         1 RES1    0.0000
     20 H2        10.3890   -1.0216    0.0353 H         1 RES1    0.0000
     21 H3         8.9376   -0.9385    1.8160 H         1 RES1    0.0000
     22 H4         7.6301    0.9508    2.2074 H         1 RES1    0.0000
     23 H5         7.9143    3.8062    1.5062 H         1 RES1    0.0000
     24 H6         5.8660    2.7262    1.3143 H         1 RES1    0.0000
     25 H7         6.2853    5.4340    0.4376 Du        2 SUP2    0.0000
     26 H8         5.0293    4.5078    0.2223 Du        2 SUP2    0.0000
     27 H9         4.1943    4.2432    1.7464 Du        2 SUP2    0.0000
     28 H10        3.2705    4.9755    0.6957 Du        2 SUP2    0.0000
     29 H11        4.6349    5.6401    1.1463 Du        2 SUP2    0.0000
     30 H12        5.0737    4.8247   -0.6865 Du        2 SUP2    0.0000
     31 H13        4.4999    4.1324    0.6724 Du        2 SUP2    0.0000
     32 H14        5.1501    4.9755    2.3335 Du        2 SUP2    0.0000
     33 H15        5.1145    6.2247    1.3676 Du        2 SUP2    0.0000
     34 H16        6.0632    4.9940    1.0480 Du        2 SUP2    0.0000
     35 H17        8.0458    4.7786   -0.6245 H         1 RES1    0.0000
@<TRIPOS>BOND
     1    1    2 ar
     2    2    3 ar
     3    3    4 ar
     4    4    5 ar
     5    5    6 ar
     6    6    1 ar
     7    7    6 1
     8    8    5 1
     9    9    8 1
    10   10    9 1
    11   11   10 1
    12   14    7 1
    13   15    9 1
    14   16    7 2
    15   17   15 2
    16   18   15 2
    17   19    1 1
    18   20    2 1
    19   21    3 1
    20   22    4 1
    21   23    8 1
    22   24    9 1
    23   35   14 1
    24    8   14 1
@<TRIPOS>SUBSTRUCTURE
     1 RES1 1
     2 SUP2 12

@<TRIPOS>CRYSIN
  35.5300   35.5300    5.4355  90.0000  90.0000 120.0000 233 1

