# MOL2 file generated by ConQuest
# Please check atom types

@<TRIPOS>MOLECULE
AKUPUS
    26    27     1
SMALL
NO_CHARGES
****
Generated from CSD

@<TRIPOS>ATOM
      1 C1         6.0287    2.6878    6.9010 C.ar      1 RES1    0.0000
      2 C2         5.6510    2.5603    8.2302 C.ar      1 RES1    0.0000
      3 C3         6.1954    3.3429    9.2180 C.ar      1 RES1    0.0000
      4 C4         7.1396    4.2664    8.8563 C.ar      1 RES1    0.0000
      5 C5         7.5448    4.3630    7.5401 C.ar      1 RES1    0.0000
      6 C6         6.9975    3.5874    6.5471 C.ar      1 RES1    0.0000
      7 C7         4.6587    1.4836    8.3225 C.2       1 RES1    0.0000
      8 C8         5.1832    1.7719    6.0540 C.3       1 RES1    0.0000
      9 C9         4.2100    2.5539    5.1488 C.3       1 RES1    0.0000
     10 C10        3.3453    1.6857    4.2770 C.3       1 RES1    0.0000
     11 N1         4.4222    1.0615    7.0695 N.am      1 RES1    0.0000
     12 N2         5.0034    3.4628    4.2543 N.pl3     1 RES1    0.0000
     13 O1         4.1409    1.0236    9.3545 O.2       1 RES1    0.0000
     14 O2         2.4642    2.5533    3.5930 O.3       1 RES1    0.0000
     15 O3         5.7887    2.9632    3.4764 O.2       1 RES1    0.0000
     16 O4         4.8355    4.6641    4.3555 O.2       1 RES1    0.0000
     17 H1         5.9300    3.2491   10.1046 H         1 RES1    0.0000
     18 H2         7.5088    4.8288    9.4966 H         1 RES1    0.0000
     19 H3         8.2108    4.9733    7.3169 H         1 RES1    0.0000
     20 H4         7.2767    3.6713    5.6643 H         1 RES1    0.0000
     21 H5         5.6700    1.1413    5.5123 H         1 RES1    0.0000
     22 H6         3.6881    3.1327    5.7031 H         1 RES1    0.0000
     23 H7         2.8132    1.1063    4.8720 H         1 RES1    0.0000
     24 H8         3.9195    1.2111    3.6835 H         1 RES1    0.0000
     25 H9         3.8512    0.4134    6.9143 H         1 RES1    0.0000
     26 H10        2.1277    2.1370    2.9914 H         1 RES1    0.0000
@<TRIPOS>BOND
     1    1    2 ar
     2    2    3 ar
     3    3    4 ar
     4    4    5 ar
     5    5    6 ar
     6    6    1 ar
     7    7    2 1
     8    8    1 1
     9    9    8 1
    10   10    9 1
    11   11    7 1
    12   12    9 1
    13   13    7 2
    14   14   10 1
    15   15   12 2
    16   16   12 2
    17   17    3 1
    18   18    4 1
    19   19    5 1
    20   20    6 1
    21   21    8 1
    22   22    9 1
    23   23   10 1
    24   24   10 1
    25   25   11 1
    26   26   14 1
    27    8   11 1
@<TRIPOS>SUBSTRUCTURE
     1 RES1 1

@<TRIPOS>CRYSIN
  10.6260    5.8228   16.6730  90.0000 104.1100  90.0000 231 1

