# MOL2 file generated by ConQuest
# Please check atom types

@<TRIPOS>MOLECULE
AKUREE
    51    54     1
SMALL
NO_CHARGES
****
Generated from CSD

@<TRIPOS>ATOM
      1 O1         0.7367    2.2284   10.3662 O.2       1 RES1    0.0000
      2 O2         2.4317   -3.1880    5.9346 O.2       1 RES1    0.0000
      3 O3         1.3017   -4.0270    7.5566 O.2       1 RES1    0.0000
      4 O4         5.0964   10.2982    8.5439 O.2       1 RES1    0.0000
      5 O5         6.9180   14.9598   13.6094 O.2       1 RES1    0.0000
      6 O6         5.6219   16.0866   12.3680 O.2       1 RES1    0.0000
      7 N1         2.2709    3.0012    8.9256 N.am      1 RES1    0.0000
      8 H1         2.8982    2.7894    8.2338 H         1 RES1    0.0000
      9 N2         1.8317   -3.0913    6.9823 N.pl3     1 RES1    0.0000
     10 N3         4.4628    9.2670   10.4471 N.am      1 RES1    0.0000
     11 H2         4.3369    9.2555   11.3790 H         1 RES1    0.0000
     12 N4         6.1312   15.0356   12.7035 N.pl3     1 RES1    0.0000
     13 C1         3.3612    6.0326   10.0296 C.3       1 RES1    0.0000
     14 C2         4.7203    6.7068   10.2214 C.3       1 RES1    0.0000
     15 H3         5.0478    6.6840   11.1345 H         1 RES1    0.0000
     16 H4         5.4003    6.4115    9.5966 H         1 RES1    0.0000
     17 C3         4.0460    8.0188    9.8346 C.3       1 RES1    0.0000
     18 H5         4.0420    8.1136    8.8600 H         1 RES1    0.0000
     19 C4         2.7176    7.3964   10.3021 C.3       1 RES1    0.0000
     20 H6         2.5100    7.5585   11.2355 H         1 RES1    0.0000
     21 H7         1.9609    7.6003    9.7307 H         1 RES1    0.0000
     22 C5         3.0405    5.3888    8.6819 C.3       1 RES1    0.0000
     23 H8         2.5477    5.9667    8.0776 H         1 RES1    0.0000
     24 H9         3.8107    4.9984    8.2401 H         1 RES1    0.0000
     25 C6         2.1726    4.3784    9.4111 C.3       1 RES1    0.0000
     26 H10        1.2381    4.6740    9.4294 H         1 RES1    0.0000
     27 C7         2.8826    4.7399   10.7258 C.3       1 RES1    0.0000
     28 H11        3.5992    4.1328   10.9689 H         1 RES1    0.0000
     29 H12        2.2816    4.8907   11.4721 H         1 RES1    0.0000
     30 C8         1.4966    2.0491    9.4133 C.2       1 RES1    0.0000
     31 C9         1.5921    0.7067    8.7511 C.ar      1 RES1    0.0000
     32 C10        1.8442    0.5948    7.3984 C.ar      1 RES1    0.0000
     33 H13        1.9738    1.3573    6.8820 H         1 RES1    0.0000
     34 C11        1.9019   -0.6618    6.8164 C.ar      1 RES1    0.0000
     35 H14        2.0483   -0.7528    5.9024 H         1 RES1    0.0000
     36 C12        1.7413   -1.7615    7.6035 C.ar      1 RES1    0.0000
     37 C13        1.4773   -1.6723    8.9469 C.ar      1 RES1    0.0000
     38 H15        1.3533   -2.4358    9.4625 H         1 RES1    0.0000
     39 C14        1.4018   -0.4201    9.5081 C.ar      1 RES1    0.0000
     40 H16        1.2183   -0.3358   10.4152 H         1 RES1    0.0000
     41 C15        4.9342   10.3112    9.7606 C.2       1 RES1    0.0000
     42 C16        5.2369   11.5243   10.5597 C.ar      1 RES1    0.0000
     43 C17        5.8316   11.4574   11.7972 C.ar      1 RES1    0.0000
     44 H17        6.0258   10.6267   12.1661 H         1 RES1    0.0000
     45 C18        6.1447   12.6002   12.4992 C.ar      1 RES1    0.0000
     46 H18        6.5858   12.5468   13.3160 H         1 RES1    0.0000
     47 C19        5.7973   13.8112   11.9773 C.ar      1 RES1    0.0000
     48 C20        5.1761   13.9202   10.7582 C.ar      1 RES1    0.0000
     49 H19        4.9346   14.7532   10.4216 H         1 RES1    0.0000
     50 C21        4.9189   12.7759   10.0461 C.ar      1 RES1    0.0000
     51 H20        4.5255   12.8395    9.2054 H         1 RES1    0.0000
@<TRIPOS>BOND
     1    1   30 2
     2    2    9 2
     3    3    9 2
     4    4   41 2
     5    5   12 2
     6    6   12 2
     7    7    8 1
     8    9   36 1
     9   10   11 1
    10   12   47 1
    11   13   14 1
    12   14   15 1
    13   16   14 1
    14   17   10 1
    15   18   17 1
    16   19   13 1
    17   20   19 1
    18   21   19 1
    19   22   13 1
    20   23   22 1
    21   24   22 1
    22   25    7 1
    23   26   25 1
    24   27   13 1
    25   28   27 1
    26   29   27 1
    27   30    7 1
    28   31   30 1
    29   32   31 ar
    30   33   32 1
    31   34   32 ar
    32   35   34 1
    33   36   34 ar
    34   37   36 ar
    35   38   37 1
    36   39   31 ar
    37   40   39 1
    38   41   10 1
    39   42   41 1
    40   43   42 ar
    41   44   43 1
    42   45   43 ar
    43   46   45 1
    44   47   45 ar
    45   48   47 ar
    46   49   48 1
    47   50   42 ar
    48   51   50 1
    49   14   17 1
    50   17   19 1
    51   22   25 1
    52   25   27 1
    53   37   39 ar
    54   48   50 ar
@<TRIPOS>SUBSTRUCTURE
     1 RES1 1

@<TRIPOS>CRYSIN
   9.9288   12.6735   15.7735  90.0000  90.0000  90.0000 231 1

