# MOL2 file generated by ConQuest
# Please check atom types

@<TRIPOS>MOLECULE
AKUZAI
    62    62     1
SMALL
NO_CHARGES
****
Generated from CSD

@<TRIPOS>ATOM
      1 O1        -0.8526   13.8404   15.9310 O.2       1 RES1    0.0000
      2 O2        -1.1535    9.1156   16.2328 O.2       1 RES1    0.0000
      3 O3         0.4213    7.4844   15.9904 O.3       1 RES1    0.0000
      4 O4        -0.8650   11.7801   13.3351 O.2       1 RES1    0.0000
      5 O5        -0.3743    9.5603   13.1647 O.3       1 RES1    0.0000
      6 O6         2.8253   14.6993   12.3802 O.2       1 RES1    0.0000
      7 O7         2.5280   15.5213   14.3042 O.2       1 RES1    0.0000
      8 N1         0.4771   10.7413   14.8396 N.am      1 RES1    0.0000
      9 N2         0.9034    9.5216   15.3406 N.am      1 RES1    0.0000
     10 H1         1.7285    9.2799   15.3109 H         1 RES1    0.0000
     11 N3         2.3240   14.6827   13.4704 N.pl3     1 RES1    0.0000
     12 C1         4.0181   12.5249   16.1202 C.ar      1 RES1    0.0000
     13 H2         3.7913   13.1250   16.7926 H         1 RES1    0.0000
     14 C2         5.2553   11.9136   16.1494 C.ar      1 RES1    0.0000
     15 H3         5.8503   12.1022   16.8395 H         1 RES1    0.0000
     16 C3         5.6097   11.0301   15.1615 C.ar      1 RES1    0.0000
     17 H4         6.4400   10.6122   15.1823 H         1 RES1    0.0000
     18 C4         4.7255   10.7642   14.1401 C.ar      1 RES1    0.0000
     19 H5         4.9658   10.1705   13.4661 H         1 RES1    0.0000
     20 C5         3.4863   11.3720   14.1050 C.ar      1 RES1    0.0000
     21 H6         2.9019   11.1849   13.4070 H         1 RES1    0.0000
     22 C6         3.1034   12.2625   15.1055 C.ar      1 RES1    0.0000
     23 C7         1.7379   12.9211   15.1182 C.3       1 RES1    0.0000
     24 H7         1.7977   13.6582   15.7608 H         1 RES1    0.0000
     25 C8         0.6337   11.9595   15.6600 C.3       1 RES1    0.0000
     26 C9         0.9726   11.5764   17.1102 C.3       1 RES1    0.0000
     27 H8         1.8075   11.1018   17.1279 H         1 RES1    0.0000
     28 H9         0.2774   11.0174   17.4649 H         1 RES1    0.0000
     29 H10        1.0458   12.3723   17.6421 H         1 RES1    0.0000
     30 C10       -0.7214   12.6569   15.7835 C.2       1 RES1    0.0000
     31 H11       -1.4881   12.1331   15.7417 H         1 RES1    0.0000
     32 C11        1.3697   13.5551   13.7791 C.3       1 RES1    0.0000
     33 H12        1.4149   12.8872   13.0770 H         1 RES1    0.0000
     34 H13        0.4621   13.8945   13.8170 H         1 RES1    0.0000
     35 C12       -0.0761    8.7141   15.8921 C.2       1 RES1    0.0000
     36 C13       -0.3352    6.4070   16.6676 C.3       1 RES1    0.0000
     37 C14       -1.6315    6.1777   15.9397 C.3       1 RES1    0.0000
     38 H14       -1.4573    6.0778   14.9999 H         1 RES1    0.0000
     39 H15       -2.2136    6.9276   16.0787 H         1 RES1    0.0000
     40 H16       -2.0487    5.3800   16.2732 H         1 RES1    0.0000
     41 C15        0.5985    5.2309   16.4869 C.3       1 RES1    0.0000
     42 H17        1.4000    5.3786   16.9959 H         1 RES1    0.0000
     43 H18        0.8217    5.1394   15.5575 H         1 RES1    0.0000
     44 H19        0.1677    4.4303   16.7944 H         1 RES1    0.0000
     45 C16       -0.5079    6.7897   18.1250 C.3       1 RES1    0.0000
     46 H20       -1.0204    7.6001   18.1858 H         1 RES1    0.0000
     47 H21        0.3544    6.9276   18.5245 H         1 RES1    0.0000
     48 H22       -0.9662    6.0862   18.5888 H         1 RES1    0.0000
     49 C17       -0.3281   10.7618   13.7178 C.2       1 RES1    0.0000
     50 C18       -1.1016    9.3109   11.8988 C.3       1 RES1    0.0000
     51 C19       -0.5063   10.2113   10.8171 C.3       1 RES1    0.0000
     52 H23       -0.9039    9.9988    9.9693 H         1 RES1    0.0000
     53 H24        0.4416   10.0706   10.7701 H         1 RES1    0.0000
     54 H25       -0.6832   11.1300   11.0324 H         1 RES1    0.0000
     55 C20       -0.8282    7.8378   11.6786 C.3       1 RES1    0.0000
     56 H26       -1.1414    7.3384   12.4377 H         1 RES1    0.0000
     57 H27        0.1151    7.7000   11.5709 H         1 RES1    0.0000
     58 H28       -1.2880    7.5424   10.8899 H         1 RES1    0.0000
     59 C21       -2.5705    9.5585   12.0903 C.3       1 RES1    0.0000
     60 H29       -2.8930    9.0267   12.8216 H         1 RES1    0.0000
     61 H30       -3.0424    9.3207   11.2895 H         1 RES1    0.0000
     62 H31       -2.7161   10.4884   12.2831 H         1 RES1    0.0000
@<TRIPOS>BOND
     1    1   30 2
     2    2   35 2
     3    3   35 1
     4    4   49 2
     5    5   49 1
     6    6   11 2
     7    7   11 2
     8    8    9 1
     9    9   10 1
    10   11   32 1
    11   12   13 1
    12   14   12 ar
    13   15   14 1
    14   16   14 ar
    15   17   16 1
    16   18   16 ar
    17   19   18 1
    18   20   18 ar
    19   21   20 1
    20   22   12 ar
    21   23   22 1
    22   24   23 1
    23   25    8 1
    24   26   25 1
    25   27   26 1
    26   28   26 1
    27   29   26 1
    28   30   25 1
    29   31   30 1
    30   32   23 1
    31   33   32 1
    32   34   32 1
    33   35    9 1
    34   36    3 1
    35   37   36 1
    36   38   37 1
    37   39   37 1
    38   40   37 1
    39   41   36 1
    40   42   41 1
    41   43   41 1
    42   44   41 1
    43   45   36 1
    44   46   45 1
    45   47   45 1
    46   48   45 1
    47   49    8 1
    48   50    5 1
    49   51   50 1
    50   52   51 1
    51   53   51 1
    52   54   51 1
    53   55   50 1
    54   56   55 1
    55   57   55 1
    56   58   55 1
    57   59   50 1
    58   60   59 1
    59   61   59 1
    60   62   59 1
    61   20   22 ar
    62   23   25 1
@<TRIPOS>SUBSTRUCTURE
     1 RES1 1

@<TRIPOS>CRYSIN
  10.1580   14.0690   17.6370  90.0000  99.9620  90.0000  14 1

