# MOL2 file generated by ConQuest
# Please check atom types

@<TRIPOS>MOLECULE
ALADAT
   232   244     1
SMALL
NO_CHARGES
****
Generated from CSD

@<TRIPOS>ATOM
      1 O1        10.2924   22.1197    2.2833 O.3       1 RES1    0.0000
      2 O2        12.9929   18.1780    2.9138 O.3       1 RES1    0.0000
      3 O3         5.9081   23.7021    5.5468 O.3       1 RES1    0.0000
      4 O4         9.8688   25.6834    3.6672 O.3       1 RES1    0.0000
      5 O5         9.0351   16.2089    4.7827 O.3       1 RES1    0.0000
      6 O6         6.5741   20.3209    4.0042 O.3       1 RES1    0.0000
      7 O7        15.4395   16.7069    5.7086 O.3       1 RES1    0.0000
      8 O8        11.3755   14.7161    7.4622 O.3       1 RES1    0.0000
      9 C1        13.2074   19.9960    4.3557 C.ar      1 RES1    0.0000
     10 C2        12.8550   21.2941    4.7083 C.ar      1 RES1    0.0000
     11 H1        13.2915   21.6992    5.4482 H         1 RES1    0.0000
     12 C3        11.8840   22.0310    4.0208 C.ar      1 RES1    0.0000
     13 C4        11.2536   21.3968    2.9478 C.ar      1 RES1    0.0000
     14 C5        11.5842   20.1202    2.5613 C.ar      1 RES1    0.0000
     15 H2        11.1471   19.7081    1.8263 H         1 RES1    0.0000
     16 C6        12.5694   19.4445    3.2655 C.ar      1 RES1    0.0000
     17 C7        11.4777   23.4554    4.3880 C.3       1 RES1    0.0000
     18 H3        11.6352   24.0200    3.5779 H         1 RES1    0.0000
     19 C8         9.9889   23.5430    4.7062 C.ar      1 RES1    0.0000
     20 C9         9.3228   22.5069    5.3449 C.ar      1 RES1    0.0000
     21 H4         9.8229   21.7394    5.5935 H         1 RES1    0.0000
     22 C10        7.9679   22.5289    5.6403 C.ar      1 RES1    0.0000
     23 C11        7.2511   23.6815    5.2694 C.ar      1 RES1    0.0000
     24 C12        7.8853   24.7458    4.6580 C.ar      1 RES1    0.0000
     25 H5         7.3960   25.5307    4.4423 H         1 RES1    0.0000
     26 C13        9.2363   24.6681    4.3612 C.ar      1 RES1    0.0000
     27 C14        7.3078   21.3962    6.4106 C.3       1 RES1    0.0000
     28 H6         6.3299   21.4314    6.2054 H         1 RES1    0.0000
     29 C15        7.8131   20.0272    5.9599 C.ar      1 RES1    0.0000
     30 C16        9.0840   17.9601    6.3456 C.ar      1 RES1    0.0000
     31 C17        8.6221   17.4881    5.1104 C.ar      1 RES1    0.0000
     32 C18        7.7880   18.2530    4.3151 C.ar      1 RES1    0.0000
     33 H7         7.4860   17.9215    3.4785 H         1 RES1    0.0000
     34 C19        7.4000   19.5008    4.7494 C.ar      1 RES1    0.0000
     35 C20        9.9403   17.0461    7.2004 C.3       1 RES1    0.0000
     36 H8         9.5474   16.1289    7.1310 H         1 RES1    0.0000
     37 C21       11.3891   16.9469    6.7204 C.ar      1 RES1    0.0000
     38 C22       12.0842   18.0000    6.1504 C.ar      1 RES1    0.0000
     39 H9        11.6174   18.8131    6.0008 H         1 RES1    0.0000
     40 C23       13.4300   17.9383    5.7815 C.ar      1 RES1    0.0000
     41 C24       14.1019   16.7309    6.0287 C.ar      1 RES1    0.0000
     42 C25        8.6640   19.2275    6.7325 C.ar      1 RES1    0.0000
     43 H10        8.9701   19.5697    7.5651 H         1 RES1    0.0000
     44 C26       13.4322   15.6340    6.5617 C.ar      1 RES1    0.0000
     45 H11       13.8891   14.8103    6.6892 H         1 RES1    0.0000
     46 C27       12.0926   15.7498    6.9055 C.ar      1 RES1    0.0000
     47 C28       14.1768   19.1078    5.1259 C.3       1 RES1    0.0000
     48 H12       14.8089   18.7140    4.4576 H         1 RES1    0.0000
     49 C29       12.2816   24.0611    5.5094 C.3       1 RES1    0.0000
     50 H13       11.9727   24.9760    5.6776 H         1 RES1    0.0000
     51 H14       13.2293   24.0764    5.2608 H         1 RES1    0.0000
     52 H15       12.1649   23.5233    6.3221 H         1 RES1    0.0000
     53 C30        7.4627   21.6569    7.9026 C.3       1 RES1    0.0000
     54 H16        8.4147   21.7028    8.1292 H         1 RES1    0.0000
     55 H17        7.0400   20.9296    8.4065 H         1 RES1    0.0000
     56 H18        7.0313   22.5067    8.1311 H         1 RES1    0.0000
     57 C31        9.9262   17.4272    8.6909 C.3       1 RES1    0.0000
     58 H19       10.3504   18.3023    8.8081 H         1 RES1    0.0000
     59 H20       10.4186   16.7532    9.2058 H         1 RES1    0.0000
     60 H21        8.9995   17.4682    9.0089 H         1 RES1    0.0000
     61 C32       15.0205   19.8729    6.1435 C.3       1 RES1    0.0000
     62 H22       15.6207   19.2498    6.6032 H         1 RES1    0.0000
     63 H23       14.4310   20.3029    6.7983 H         1 RES1    0.0000
     64 H24       15.5496   20.5563    5.6815 H         1 RES1    0.0000
     65 O9        10.1349   24.8573   -0.5792 O.2       1 RES1    0.0000
     66 O10        9.5574   26.7746   -1.4075 O.2       1 RES1    0.0000
     67 N1         8.4399   23.4638    0.8273 N.pl3     1 RES1    0.0000
     68 H25        9.2866   23.7300    0.4972 H         1 RES1    0.0000
     69 N2         9.2961   25.7850   -0.7129 N.pl3     1 RES1    0.0000
     70 C33        9.2070   21.3811    1.7375 C.3       1 RES1    0.0000
     71 H26        8.9705   20.6277    2.3349 H         1 RES1    0.0000
     72 H27        9.4529   21.0134    0.8510 H         1 RES1    0.0000
     73 C34        8.0552   22.3196    1.6063 C.3       1 RES1    0.0000
     74 H28        7.2976   21.8571    1.1684 H         1 RES1    0.0000
     75 H29        7.7599   22.6124    2.5051 H         1 RES1    0.0000
     76 C35        7.6381   24.5284    0.6242 C.ar      1 RES1    0.0000
     77 C36        6.3222   24.5360    1.1034 C.ar      1 RES1    0.0000
     78 H30        5.9922   23.7582    1.5394 H         1 RES1    0.0000
     79 C37        5.4979   25.6037    0.9695 C.ar      1 RES1    0.0000
     80 H31        4.6130   25.5617    1.3138 H         1 RES1    0.0000
     81 C38        5.9401   26.7592    0.3308 C.ar      1 RES1    0.0000
     82 H32        5.3866   27.5297    0.2983 H         1 RES1    0.0000
     83 C39        7.1705   26.7746   -0.2429 C.ar      1 RES1    0.0000
     84 H33        7.4477   27.5339   -0.7439 H         1 RES1    0.0000
     85 C40        8.0340   25.6792   -0.1052 C.ar      1 RES1    0.0000
     86 O11       16.2569   16.7827    1.4534 O.2       1 RES1    0.0000
     87 O12       18.0711   15.7355    1.8148 O.2       1 RES1    0.0000
     88 N3        13.9574   15.7974    2.2674 N.pl3     1 RES1    0.0000
     89 H34       14.5208   16.4730    1.8358 H         1 RES1    0.0000
     90 N4        16.8651   15.7977    1.8697 N.pl3     1 RES1    0.0000
     91 C41       12.0727   17.3106    2.2948 C.3       1 RES1    0.0000
     92 H35       12.0558   17.4545    1.3157 H         1 RES1    0.0000
     93 H36       11.1614   17.4506    2.6562 H         1 RES1    0.0000
     94 C42       12.5675   15.9260    2.6218 C.3       1 RES1    0.0000
     95 H37       12.4531   15.7513    3.5894 H         1 RES1    0.0000
     96 H38       12.0342   15.2571    2.1227 H         1 RES1    0.0000
     97 C43       14.7318   14.7705    2.6669 C.ar      1 RES1    0.0000
     98 C44       14.1558   13.6439    3.3274 C.ar      1 RES1    0.0000
     99 H39       13.2167   13.6325    3.4708 H         1 RES1    0.0000
    100 C45       14.8860   12.5952    3.7577 C.ar      1 RES1    0.0000
    101 H40       14.4488   11.8747    4.1956 H         1 RES1    0.0000
    102 C46       16.2584   12.5478    3.5760 C.ar      1 RES1    0.0000
    103 H41       16.7596   11.8019    3.8858 H         1 RES1    0.0000
    104 C47       16.8968   13.6140    2.9277 C.ar      1 RES1    0.0000
    105 H42       17.8364   13.5974    2.7862 H         1 RES1    0.0000
    106 O13        1.7795   26.5772    8.0638 O.2       1 RES1    0.0000
    107 O14        0.7667   25.8226    9.7931 O.2       1 RES1    0.0000
    108 N5         3.2320   24.9763    6.5871 N.pl3     1 RES1    0.0000
    109 H43        2.7415   25.8358    6.7084 H         1 RES1    0.0000
    110 N6         1.5900   25.6841    8.8966 N.pl3     1 RES1    0.0000
    111 C48       16.1401   14.7034    2.4917 C.ar      1 RES1    0.0000
    112 C49        5.1441   24.7861    5.0146 C.3       1 RES1    0.0000
    113 H44        5.2977   24.8561    4.0388 H         1 RES1    0.0000
    114 H45        5.4297   25.6344    5.4348 H         1 RES1    0.0000
    115 C50        3.7042   24.5571    5.2782 C.3       1 RES1    0.0000
    116 H46        3.1800   25.0375    4.5895 H         1 RES1    0.0000
    117 H47        3.5167   23.5898    5.1728 H         1 RES1    0.0000
    118 C51        3.1095   24.1444    7.6618 C.ar      1 RES1    0.0000
    119 C52        3.7675   22.9107    7.6794 C.ar      1 RES1    0.0000
    120 H48        4.3132   22.6675    6.9398 H         1 RES1    0.0000
    121 C53        3.6470   22.0402    8.7308 C.ar      1 RES1    0.0000
    122 H49        4.1006   21.2053    8.7048 H         1 RES1    0.0000
    123 C54        2.8744   22.3664    9.8273 C.ar      1 RES1    0.0000
    124 H50        2.8129   21.7673   10.5617 H         1 RES1    0.0000
    125 C55        2.1938   23.5556    9.8467 C.ar      1 RES1    0.0000
    126 H51        1.6318   23.7680   10.5827 H         1 RES1    0.0000
    127 C56        2.3216   24.4456    8.7943 C.ar      1 RES1    0.0000
    128 O15       13.5699   26.4132    3.4230 O.2       1 RES1    0.0000
    129 O16       15.4360   26.9658    2.5531 O.2       1 RES1    0.0000
    130 N7        11.3963   27.7937    2.9239 N.pl3     1 RES1    0.0000
    131 H52       11.8536   27.1978    3.3274 H         1 RES1    0.0000
    132 N8        14.2440   27.1837    2.7335 N.pl3     1 RES1    0.0000
    133 C57        9.2392   26.9097    3.5512 C.3       1 RES1    0.0000
    134 H53        9.1316   27.3087    4.4519 H         1 RES1    0.0000
    135 H54        8.3368   26.7799    3.1649 H         1 RES1    0.0000
    136 C58       10.0002   27.8177    2.7078 C.3       1 RES1    0.0000
    137 H55        9.8238   27.5900    1.7612 H         1 RES1    0.0000
    138 H56        9.6730   28.7389    2.8608 H         1 RES1    0.0000
    139 C59       12.2767   28.6063    2.2858 C.ar      1 RES1    0.0000
    140 C60       11.8279   29.8031    1.6752 C.ar      1 RES1    0.0000
    141 H57       10.9059   30.0269    1.7211 H         1 RES1    0.0000
    142 C61       12.6744   30.6399    1.0288 C.ar      1 RES1    0.0000
    143 H58       12.3342   31.4387    0.6406 H         1 RES1    0.0000
    144 C62       14.0092   30.3584    0.9217 C.ar      1 RES1    0.0000
    145 H59       14.5909   30.9502    0.4570 H         1 RES1    0.0000
    146 C63       14.4899   29.2280    1.4859 C.ar      1 RES1    0.0000
    147 H60       15.4142   29.0209    1.4094 H         1 RES1    0.0000
    148 C64       13.6485   28.3677    2.1741 C.ar      1 RES1    0.0000
    149 O17        6.5867   12.5692    5.6409 O.2       1 RES1    0.0000
    150 O18        6.4357   10.5085    6.2609 O.2       1 RES1    0.0000
    151 N9         8.6482   13.3761    4.2509 N.pl3     1 RES1    0.0000
    152 H61        7.8242   13.5010    4.7616 H         1 RES1    0.0000
    153 N10        7.0781   11.4386    5.7754 N.pl3     1 RES1    0.0000
    154 C65        8.7008   15.6890    3.5207 C.3       1 RES1    0.0000
    155 H62        9.0356   16.2808    2.8015 H         1 RES1    0.0000
    156 H63        7.7178   15.6036    3.4288 H         1 RES1    0.0000
    157 C66        9.3601   14.3300    3.4402 C.3       1 RES1    0.0000
    158 H64        9.3705   14.0230    2.4994 H         1 RES1    0.0000
    159 H65       10.2973   14.3968    3.7519 H         1 RES1    0.0000
    160 C67        9.1599   12.1642    4.6287 C.ar      1 RES1    0.0000
    161 C68       10.4757   11.7865    4.2587 C.ar      1 RES1    0.0000
    162 H66       10.9914   12.3726    3.7175 H         1 RES1    0.0000
    163 C69       11.0179   10.5987    4.6584 C.ar      1 RES1    0.0000
    164 H67       11.9007   10.3789    4.3830 H         1 RES1    0.0000
    165 C70       10.3206    9.7125    5.4482 C.ar      1 RES1    0.0000
    166 H68       10.7370    8.9206    5.7656 H         1 RES1    0.0000
    167 C71        9.0062    9.9954    5.7733 C.ar      1 RES1    0.0000
    168 H69        8.4907    9.3695    6.2666 H         1 RES1    0.0000
    169 C72        8.4420   11.2057    5.3749 C.ar      1 RES1    0.0000
    170 O19        2.4209   18.9599    0.0950 O.2       1 RES1    0.0000
    171 O20        0.6536   19.7481   -0.8548 O.2       1 RES1    0.0000
    172 N11        3.7182   20.5202    1.7920 N.pl3     1 RES1    0.0000
    173 H70        3.7500   19.7268    1.4132 H         1 RES1    0.0000
    174 N12        1.6248   19.8804   -0.1111 N.pl3     1 RES1    0.0000
    175 C73        5.6058   19.7451    3.1396 C.3       1 RES1    0.0000
    176 H71        5.1288   19.0031    3.5875 H         1 RES1    0.0000
    177 H72        6.0288   19.4036    2.3120 H         1 RES1    0.0000
    178 C74        4.6715   20.8767    2.8340 C.3       1 RES1    0.0000
    179 H73        4.1782   21.1234    3.6563 H         1 RES1    0.0000
    180 H74        5.1949   21.6644    2.5434 H         1 RES1    0.0000
    181 C75        2.7921   21.4123    1.4159 C.ar      1 RES1    0.0000
    182 C76        2.7532   22.7687    1.9716 C.ar      1 RES1    0.0000
    183 H75        3.4134   23.0603    2.5893 H         1 RES1    0.0000
    184 C77        1.7665   23.5857    1.5891 C.ar      1 RES1    0.0000
    185 H76        1.7728   24.4556    1.9716 H         1 RES1    0.0000
    186 C78        0.7957   23.3325    0.7534 C.ar      1 RES1    0.0000
    187 H77        0.1166   23.9663    0.5488 H         1 RES1    0.0000
    188 C79        0.8290   22.1147    0.2065 C.ar      1 RES1    0.0000
    189 H78        0.1570   21.8922   -0.4264 H         1 RES1    0.0000
    190 C80        1.7982   21.1432    0.5092 C.ar      1 RES1    0.0000
    191 O21       17.6308   19.0289    8.3283 O.2       1 RES1    0.0000
    192 O22       17.4841   19.0551   10.4613 O.2       1 RES1    0.0000
    193 N13       18.0487   16.7663    7.0568 N.pl3     1 RES1    0.0000
    194 H79       18.0237   17.5969    7.0239 H         1 RES1    0.0000
    195 N14       17.7620   18.4783    9.4162 N.pl3     1 RES1    0.0000
    196 C81       16.1975   15.5439    6.0404 C.3       1 RES1    0.0000
    197 H80       16.0003   14.8104    5.4061 H         1 RES1    0.0000
    198 H81       15.9769   15.2373    6.9551 H         1 RES1    0.0000
    199 C82       17.6501   15.9368    5.9538 C.3       1 RES1    0.0000
    200 H82       18.2089   15.1198    5.9415 H         1 RES1    0.0000
    201 H83       17.8069   16.4244    5.1059 H         1 RES1    0.0000
    202 C83       18.2964   16.3071    8.3084 C.ar      1 RES1    0.0000
    203 C84       18.6142   14.9446    8.5346 C.ar      1 RES1    0.0000
    204 H84       18.6440   14.3491    7.7927 H         1 RES1    0.0000
    205 C85       18.8783   14.4563    9.7795 C.ar      1 RES1    0.0000
    206 H85       19.0756   13.5342    9.8905 H         1 RES1    0.0000
    207 C86       18.8639   15.2971   10.8963 C.ar      1 RES1    0.0000
    208 H86       19.0882   14.9564   11.7550 H         1 RES1    0.0000
    209 C87       18.5290   16.5931   10.7453 C.ar      1 RES1    0.0000
    210 H87       18.4972   17.1635   11.5044 H         1 RES1    0.0000
    211 C88       18.2270   17.1096    9.4774 C.ar      1 RES1    0.0000
    212 O23       10.5135   14.2023   11.5714 O.2       1 RES1    0.0000
    213 O24        9.2874   13.6452   13.2596 O.2       1 RES1    0.0000
    214 N15       10.5102   12.7731    9.3613 N.pl3     1 RES1    0.0000
    215 H88       10.7413   13.4811    9.7470 H         1 RES1    0.0000
    216 N16        9.6578   13.4825   12.0961 N.pl3     1 RES1    0.0000
    217 C89       11.9669   13.4342    7.5387 C.3       1 RES1    0.0000
    218 H89       12.7198   13.4402    8.1808 H         1 RES1    0.0000
    219 H90       12.3121   13.1614    6.6510 H         1 RES1    0.0000
    220 C90       10.8939   12.4841    7.9982 C.3       1 RES1    0.0000
    221 H91       10.1039   12.5666    7.4064 H         1 RES1    0.0000
    222 H92       11.2274   11.5532    7.9380 H         1 RES1    0.0000
    223 C91        9.5096   12.1198    9.9954 C.ar      1 RES1    0.0000
    224 C92        8.8657   11.0394    9.3741 C.ar      1 RES1    0.0000
    225 H93        9.1516   10.7715    8.5079 H         1 RES1    0.0000
    226 C93        7.8341   10.3530    9.9746 C.ar      1 RES1    0.0000
    227 H94        7.4227    9.6272    9.5195 H         1 RES1    0.0000
    228 C94        7.3926   10.7147   11.2386 C.ar      1 RES1    0.0000
    229 H95        6.6662   10.2507   11.6383 H         1 RES1    0.0000
    230 C95        7.9930   11.7243   11.9041 C.ar      1 RES1    0.0000
    231 H96        7.6970   11.9618   12.7761 H         1 RES1    0.0000
    232 C96        9.0554   12.4228   11.3105 C.ar      1 RES1    0.0000
@<TRIPOS>BOND
     1    1   13 1
     2    2   16 1
     3    3   23 1
     4    4   26 1
     5    5   31 1
     6    6   34 1
     7    7   41 1
     8    8   46 1
     9    9   10 ar
    10   10   11 1
    11   12   10 ar
    12   13   12 ar
    13   14   13 ar
    14   15   14 1
    15   16    9 ar
    16   17   12 1
    17   18   17 1
    18   19   17 1
    19   20   19 ar
    20   21   20 1
    21   22   20 ar
    22   23   22 ar
    23   24   23 ar
    24   25   24 1
    25   26   19 ar
    26   27   22 1
    27   28   27 1
    28   29   27 1
    29   30   31 ar
    30   31   32 ar
    31   32   33 1
    32   34   29 ar
    33   35   30 1
    34   36   35 1
    35   37   35 1
    36   38   37 ar
    37   39   38 1
    38   40   38 ar
    39   41   40 ar
    40   42   29 ar
    41   43   42 1
    42   44   41 ar
    43   45   44 1
    44   46   37 ar
    45   47    9 1
    46   48   47 1
    47   49   17 1
    48   50   49 1
    49   51   49 1
    50   52   49 1
    51   53   27 1
    52   54   53 1
    53   55   53 1
    54   56   53 1
    55   57   35 1
    56   58   57 1
    57   59   57 1
    58   60   57 1
    59   61   47 1
    60   62   61 1
    61   63   61 1
    62   64   61 1
    63   65   69 2
    64   66   69 2
    65   67   68 1
    66   69   85 1
    67   70    1 1
    68   71   70 1
    69   72   70 1
    70   73   67 1
    71   74   73 1
    72   75   73 1
    73   76   67 1
    74   77   76 ar
    75   78   77 1
    76   79   77 ar
    77   80   79 1
    78   81   79 ar
    79   82   81 1
    80   83   81 ar
    81   84   83 1
    82   85   76 ar
    83   86   90 2
    84   87   90 2
    85   88   89 1
    86   90  111 1
    87   91    2 1
    88   92   91 1
    89   93   91 1
    90   94   88 1
    91   95   94 1
    92   96   94 1
    93   97   88 1
    94   98   97 ar
    95   99   98 1
    96  100   98 ar
    97  101  100 1
    98  102  100 ar
    99  103  102 1
   100  104  102 ar
   101  105  104 1
   102  106  110 2
   103  107  110 2
   104  108  109 1
   105  110  127 1
   106  111   97 ar
   107  112    3 1
   108  113  112 1
   109  114  112 1
   110  115  108 1
   111  116  115 1
   112  117  115 1
   113  118  108 1
   114  119  118 ar
   115  120  119 1
   116  121  119 ar
   117  122  121 1
   118  123  121 ar
   119  124  123 1
   120  125  123 ar
   121  126  125 1
   122  127  118 ar
   123  128  132 2
   124  129  132 2
   125  130  131 1
   126  132  148 1
   127  133    4 1
   128  134  133 1
   129  135  133 1
   130  136  130 1
   131  137  136 1
   132  138  136 1
   133  139  130 1
   134  140  139 ar
   135  141  140 1
   136  142  140 ar
   137  143  142 1
   138  144  142 ar
   139  145  144 1
   140  146  144 ar
   141  147  146 1
   142  148  139 ar
   143  149  153 2
   144  150  153 2
   145  151  152 1
   146  153  169 1
   147  154    5 1
   148  155  154 1
   149  156  154 1
   150  157  151 1
   151  158  157 1
   152  159  157 1
   153  160  151 1
   154  161  160 ar
   155  162  161 1
   156  163  161 ar
   157  164  163 1
   158  165  163 ar
   159  166  165 1
   160  167  165 ar
   161  168  167 1
   162  169  160 ar
   163  170  174 2
   164  171  174 2
   165  172  173 1
   166  174  190 1
   167  175    6 1
   168  176  175 1
   169  177  175 1
   170  178  172 1
   171  179  178 1
   172  180  178 1
   173  181  172 1
   174  182  181 ar
   175  183  182 1
   176  184  182 ar
   177  185  184 1
   178  186  184 ar
   179  187  186 1
   180  188  186 ar
   181  189  188 1
   182  190  181 ar
   183  191  195 2
   184  192  195 2
   185  193  194 1
   186  195  211 1
   187  196    7 1
   188  197  196 1
   189  198  196 1
   190  199  193 1
   191  200  199 1
   192  201  199 1
   193  202  193 1
   194  203  202 ar
   195  204  203 1
   196  205  203 ar
   197  206  205 1
   198  207  205 ar
   199  208  207 1
   200  209  207 ar
   201  210  209 1
   202  211  202 ar
   203  212  216 2
   204  213  216 2
   205  214  215 1
   206  216  232 1
   207  217    8 1
   208  218  217 1
   209  219  217 1
   210  220  214 1
   211  221  220 1
   212  222  220 1
   213  223  214 1
   214  224  223 ar
   215  225  224 1
   216  226  224 ar
   217  227  226 1
   218  228  226 ar
   219  229  228 1
   220  230  228 ar
   221  231  230 1
   222  232  223 ar
   223   14   16 ar
   224   24   26 ar
   225   30   42 ar
   226   32   34 ar
   227   40   47 1
   228   44   46 ar
   229   70   73 1
   230   83   85 ar
   231   91   94 1
   232  104  111 ar
   233  112  115 1
   234  125  127 ar
   235  133  136 1
   236  146  148 ar
   237  154  157 1
   238  167  169 ar
   239  175  178 1
   240  188  190 ar
   241  196  199 1
   242  209  211 ar
   243  217  220 1
   244  230  232 ar
@<TRIPOS>SUBSTRUCTURE
     1 RES1 1

@<TRIPOS>CRYSIN
  12.2700   19.6334   20.4221  75.2300  72.6750  75.3640   2 1

