# MOL2 file generated by ConQuest
# Please check atom types

@<TRIPOS>MOLECULE
ALAJIG
    53    53     2
SMALL
NO_CHARGES
****
Generated from CSD

@<TRIPOS>ATOM
      1 O1         4.4438    1.4506    1.1896 O.3       1 RES1    0.0000
      2 O2         1.2258    2.1325    0.5355 O.3       1 RES1    0.0000
      3 O3         2.4037    1.5188    2.3526 O.3       1 RES1    0.0000
      4 O4         4.6663    4.2079    1.4954 O.3       1 RES1    0.0000
      5 H1         5.1184    3.6963    1.0404 H         1 RES1    0.0000
      6 O5         5.3284    3.9838    4.1924 O.3       1 RES1    0.0000
      7 O6         6.6714    2.5684    3.0201 O.3       1 RES1    0.0000
      8 O7         1.0541    5.3453    3.6813 O.3       1 RES1    0.0000
      9 N1         2.1244    4.4326    3.8387 N.2       1 RES1    0.0000
     10 N2         2.0474    5.1805    1.7274 N.2       1 RES1    0.0000
     11 C1         2.5566    2.5169    0.2530 C.3       1 RES1    0.0000
     12 H2         2.6051    3.4596    0.0298 H         1 RES1    0.0000
     13 H3         2.9174    1.9995    0.4848 Du        2 SUP2    0.0000
     14 C2         3.3113    2.2233    1.5446 C.3       1 RES1    0.0000
     15 C3         3.8076    3.4582    2.3369 C.3       1 RES1    0.0000
     16 C4         4.5081    2.9694    3.6229 C.3       1 RES1    0.0000
     17 H4         3.8360    2.6824    4.2755 H         1 RES1    0.0000
     18 C5         5.4926    1.8413    3.3727 C.3       1 RES1    0.0000
     19 H5         5.6493    1.3553    4.2103 H         1 RES1    0.0000
     20 C6         5.1277    0.8693    2.2992 C.3       1 RES1    0.0000
     21 H6         5.9370    0.4441    1.9765 H         1 RES1    0.0000
     22 H7         4.5648    0.1791    2.6832 H         1 RES1    0.0000
     23 C7         2.6525    4.3760    2.6593 C.2       1 RES1    0.0000
     24 C8         1.0917    5.7345    2.4001 C.2       1 RES1    0.0000
     25 C9         0.0876    6.6992    1.9332 C.ar      1 RES1    0.0000
     26 C10        0.6701    7.4523    2.8141 C.ar      1 RES1    0.0000
     27 H8         0.5598    7.3423    3.7311 H         1 RES1    0.0000
     28 C11        1.5866    8.3635    2.3362 C.ar      1 RES1    0.0000
     29 H9         2.0969    8.8641    2.9293 H         1 RES1    0.0000
     30 C12        1.7453    8.5300    0.9841 C.ar      1 RES1    0.0000
     31 H10        2.3577    9.1522    0.6638 H         1 RES1    0.0000
     32 C13        1.0041    7.7843    0.1031 C.ar      1 RES1    0.0000
     33 H11        1.1165    7.8995    0.8130 Du        2 SUP2    0.0000
     34 C14        0.0918    6.8636    0.5736 C.ar      1 RES1    0.0000
     35 H12        0.4041    6.3525    0.0261 H         1 RES1    0.0000
     36 C15        1.2721    1.1343    1.5446 C.3       1 RES1    0.0000
     37 C16        1.5061    0.2283    0.9383 C.3       1 RES1    0.0000
     38 H13        2.3463    0.2325    0.4736 H         1 RES1    0.0000
     39 H14        0.7979    0.4294    0.3207 H         1 RES1    0.0000
     40 H15        1.5206    0.8892    1.6334 Du        2 SUP2    0.0000
     41 C17        0.0351    1.2370    2.3736 C.3       1 RES1    0.0000
     42 H16        0.0887    0.6169    3.1046 H         1 RES1    0.0000
     43 H17        0.7299    1.0296    1.8329 Du        2 SUP2    0.0000
     44 H18        0.0474    2.1294    2.7167 H         1 RES1    0.0000
     45 C18        6.7091    3.6680    3.9134 C.3       1 RES1    0.0000
     46 C19        7.3967    3.2773    5.2009 C.3       1 RES1    0.0000
     47 H19        6.9318    2.5379    5.5994 H         1 RES1    0.0000
     48 H20        7.3905    4.0231    5.8064 H         1 RES1    0.0000
     49 H21        8.3039    3.0238    5.0158 H         1 RES1    0.0000
     50 C20        7.3720    4.8306    3.2431 C.3       1 RES1    0.0000
     51 H22        8.2678    4.5897    2.9964 H         1 RES1    0.0000
     52 H23        7.3946    5.5774    3.8467 H         1 RES1    0.0000
     53 H24        6.8782    5.0705    2.4557 H         1 RES1    0.0000
@<TRIPOS>BOND
     1    1   14 1
     2    2   11 1
     3    3   14 1
     4    4    5 1
     5    6   16 1
     6    7   18 1
     7    8    9 1
     8    9   23 2
     9   10   23 1
    10   11   12 1
    11   14   11 1
    12   15    4 1
    13   16   15 1
    14   17   16 1
    15   18   16 1
    16   19   18 1
    17   20    1 1
    18   21   20 1
    19   22   20 1
    20   23   15 1
    21   24    8 1
    22   25   24 1
    23   26   25 ar
    24   27   26 1
    25   28   26 ar
    26   29   28 1
    27   30   28 ar
    28   31   30 1
    29   32   30 ar
    30   34   25 ar
    31   35   34 1
    32   36    2 1
    33   37   36 1
    34   38   37 1
    35   39   37 1
    36   41   36 1
    37   42   41 1
    38   44   41 1
    39   45    6 1
    40   46   45 1
    41   47   46 1
    42   48   46 1
    43   49   46 1
    44   50   45 1
    45   51   50 1
    46   52   50 1
    47   53   50 1
    48    3   36 1
    49    7   45 1
    50   10   24 2
    51   14   15 1
    52   18   20 1
    53   32   34 ar
@<TRIPOS>SUBSTRUCTURE
     1 RES1 1
     2 SUP2 13

@<TRIPOS>CRYSIN
  10.3090   10.4740   18.6460  90.0000  90.0000  90.0000  19 1

