# MOL2 file generated by ConQuest
# Please check atom types

@<TRIPOS>MOLECULE
ALECAW
    49    53     1
SMALL
NO_CHARGES
****
Generated from CSD

@<TRIPOS>ATOM
      1 O1         2.4995    1.4603    4.9335 O.3       1 RES1    0.0000
      2 O2         2.7219    3.5867    4.0472 O.3       1 RES1    0.0000
      3 O3         1.4188   -0.4409    0.8631 O.2       1 RES1    0.0000
      4 O4         0.5547    0.7474    5.6783 O.2       1 RES1    0.0000
      5 O5         3.5084   -0.5661    0.3677 O.2       1 RES1    0.0000
      6 C1         1.3664    2.4525    2.4639 C.3       1 RES1    0.0000
      7 N1         2.6009   -0.3049    1.1347 N.pl3     1 RES1    0.0000
      8 C2         1.1672    1.2809    4.7863 C.2       1 RES1    0.0000
      9 C3         0.6257    2.6563    1.1405 C.3       1 RES1    0.0000
     10 C4         4.6721    2.0700    4.1729 C.3       1 RES1    0.0000
     11 C5         3.7915    2.3350    1.4731 C.3       1 RES1    0.0000
     12 C6        -0.5304    3.7063    1.1877 C.3       1 RES1    0.0000
     13 C7        -0.1062    4.9813    1.9587 C.3       1 RES1    0.0000
     14 C8         2.9042    0.2413    2.5215 C.3       1 RES1    0.0000
     15 C9         0.5045    1.7113    3.4962 C.3       1 RES1    0.0000
     16 C10        2.7721    1.7843    2.4915 C.3       1 RES1    0.0000
     17 C11        4.3081   -0.1450    3.0244 C.3       1 RES1    0.0000
     18 C12        1.7693    3.8452    2.9737 C.3       1 RES1    0.0000
     19 C13        3.1826    2.2646    3.9117 C.3       1 RES1    0.0000
     20 C14       -0.8296    4.0988   -0.2612 C.3       1 RES1    0.0000
     21 C15        0.5969    4.7363    3.3063 C.3       1 RES1    0.0000
     22 C16       -1.8355    3.1425    1.7815 C.3       1 RES1    0.0000
     23 C17        5.2154    1.1013    3.1187 C.3       1 RES1    0.0000
     24 C18        5.2172    1.7938    1.7539 C.3       1 RES1    0.0000
     25 H1         4.6562   -0.7875    2.4628 H         1 RES1    0.0000
     26 H2         5.8574    2.5250    1.8068 H         1 RES1    0.0000
     27 H3         5.0998    2.9625    4.1430 H         1 RES1    0.0000
     28 H4         6.1707    0.7625    3.3604 H         1 RES1    0.0000
     29 H5         2.2747   -0.1375    3.0037 H         1 RES1    0.0000
     30 H6         3.5091    2.0875    0.5984 H         1 RES1    0.0000
     31 H7         3.7780    3.3750    1.5191 H         1 RES1    0.0000
     32 H8         4.8470    1.6625    5.0751 H         1 RES1    0.0000
     33 H9         5.4984    1.0125    1.0588 H         1 RES1    0.0000
     34 H10        0.9925    5.5875    3.6942 H         1 RES1    0.0000
     35 H11       -1.1212    3.3125   -0.7250 H         1 RES1    0.0000
     36 H12        2.2236    4.3125    2.3017 H         1 RES1    0.0000
     37 H13        0.1634    0.9250    3.0842 H         1 RES1    0.0000
     38 H14        1.2811    3.0000    0.4603 H         1 RES1    0.0000
     39 H15        0.3073    1.7625    0.7941 H         1 RES1    0.0000
     40 H16        4.2546   -0.5375    3.8898 H         1 RES1    0.0000
     41 H17        0.0276    4.3000    4.0049 H         1 RES1    0.0000
     42 H18       -1.8126    3.0500    2.8195 H         1 RES1    0.0000
     43 H19       -0.9216    5.4875    2.1520 H         1 RES1    0.0000
     44 H20       -0.3116    2.1625    3.7517 H         1 RES1    0.0000
     45 H21       -1.9978    2.2125    1.3695 H         1 RES1    0.0000
     46 H22       -0.0263    4.5250   -0.6790 H         1 RES1    0.0000
     47 H23        0.5000    5.4625    1.3925 H         1 RES1    0.0000
     48 H24       -1.4521    4.7875   -0.3683 H         1 RES1    0.0000
     49 H25       -2.5713    3.7250    1.5421 H         1 RES1    0.0000
@<TRIPOS>BOND
     1    1    8 1
     2    2   18 1
     3    3    7 2
     4    4    8 2
     5    5    7 2
     6    6    9 1
     7    7   14 1
     8    8   15 1
     9    9   12 1
    10   10   19 1
    11   11   16 1
    12   12   13 1
    13   13   21 1
    14   14   16 1
    15   15    6 1
    16   16    6 1
    17   17   14 1
    18   18    6 1
    19   19    1 1
    20   20   12 1
    21   21   18 1
    22   22   12 1
    23   23   10 1
    24   24   11 1
    25   25   17 1
    26   26   24 1
    27   27   10 1
    28   28   23 1
    29   29   14 1
    30   30   11 1
    31   31   11 1
    32   32   10 1
    33   33   24 1
    34   34   21 1
    35   35   20 1
    36   36   18 1
    37   37   15 1
    38   38    9 1
    39   39    9 1
    40   40   17 1
    41   41   21 1
    42   42   22 1
    43   43   13 1
    44   44   15 1
    45   45   22 1
    46   46   20 1
    47   47   13 1
    48   48   20 1
    49   49   22 1
    50    2   19 1
    51   16   19 1
    52   17   23 1
    53   23   24 1
@<TRIPOS>SUBSTRUCTURE
     1 RES1 1

@<TRIPOS>CRYSIN
  11.2417   12.5001   12.3596  90.0000 111.3900  90.0000  14 1

