# MOL2 file generated by ConQuest
# Please check atom types

@<TRIPOS>MOLECULE
ALEDIF
    53    55     1
SMALL
NO_CHARGES
****
Generated from CSD

@<TRIPOS>ATOM
      1 O1         0.3967    3.5698    3.5893 O.3       1 RES1    0.0000
      2 O2        -0.1587    4.7955    5.3193 O.2       1 RES1    0.0000
      3 O3         4.8540    1.8708    2.9969 O.3       1 RES1    0.0000
      4 O4         4.1279    0.8969    0.5108 O.3       1 RES1    0.0000
      5 O5         1.5965    1.2037   -0.3896 O.3       1 RES1    0.0000
      6 O6         1.1159   -1.0173    9.1091 O.2       1 RES1    0.0000
      7 O7         3.0921   -0.6085    9.8368 O.2       1 RES1    0.0000
      8 N1         2.1866   -0.4428    9.0325 N.pl3     1 RES1    0.0000
      9 C1         0.7439    4.3364    4.6753 C.2       1 RES1    0.0000
     10 C2         2.2161    4.5827    4.9320 C.3       1 RES1    0.0000
     11 C3         3.0093    3.2609    4.7106 C.3       1 RES1    0.0000
     12 H1         3.9765    3.5114    4.7298 H         1 RES1    0.0000
     13 C4         2.6464    2.7033    3.3542 C.ar      1 RES1    0.0000
     14 C5         3.5568    2.0218    2.5443 C.ar      1 RES1    0.0000
     15 C6         3.1880    1.5226    1.3000 C.ar      1 RES1    0.0000
     16 C7         1.8781    1.7207    0.8406 C.ar      1 RES1    0.0000
     17 C8         0.9638    2.4204    1.6138 C.ar      1 RES1    0.0000
     18 H2         0.0803    2.5743    1.3104 H         1 RES1    0.0000
     19 C9         1.3770    2.8874    2.8532 C.ar      1 RES1    0.0000
     20 C10        2.7225    5.6269    3.8935 C.3       1 RES1    0.0000
     21 H3         3.6864    5.7569    4.0876 H         1 RES1    0.0000
     22 H4         2.6658    5.2162    3.0155 H         1 RES1    0.0000
     23 C11        1.9703    6.9195    3.8726 C.2       1 RES1    0.0000
     24 H5         0.9584    6.8431    3.7973 H         1 RES1    0.0000
     25 C12        2.5142    8.1081    3.8745 C.2       1 RES1    0.0000
     26 H6         1.9623    8.9359    3.8270 H         1 RES1    0.0000
     27 H7         3.5512    8.2229    3.9071 H         1 RES1    0.0000
     28 C13        2.3990    5.1120    6.3504 C.3       1 RES1    0.0000
     29 H8         3.3472    5.1921    6.4982 H         1 RES1    0.0000
     30 H9         1.9721    5.9820    6.4721 H         1 RES1    0.0000
     31 H10        2.0026    4.5050    7.0342 H         1 RES1    0.0000
     32 C14        2.7939    2.2541    5.8284 C.ar      1 RES1    0.0000
     33 C15        3.7629    2.0935    6.8153 C.ar      1 RES1    0.0000
     34 H11        4.5915    2.5835    6.7662 H         1 RES1    0.0000
     35 C16        3.5747    1.2182    7.8700 C.ar      1 RES1    0.0000
     36 H12        4.2532    1.1482    8.5513 H         1 RES1    0.0000
     37 C17        2.4027    0.4943    7.9162 C.ar      1 RES1    0.0000
     38 C18        1.4235    0.6042    6.9462 C.ar      1 RES1    0.0000
     39 H13        0.6484    0.0741    7.0063 H         1 RES1    0.0000
     40 C19        1.6315    1.4883    5.9027 C.ar      1 RES1    0.0000
     41 H14        0.9335    1.5853    5.2734 H         1 RES1    0.0000
     42 C20        5.7013    2.9123    2.4779 C.3       1 RES1    0.0000
     43 H15        6.5999    2.8428    2.9205 H         1 RES1    0.0000
     44 H16        5.3025    3.7873    2.6674 H         1 RES1    0.0000
     45 H17        5.8627    2.7595    1.5152 H         1 RES1    0.0000
     46 C21        4.0364   -0.5334    0.5452 C.3       1 RES1    0.0000
     47 H18        3.1895   -0.8334    0.1954 H         1 RES1    0.0000
     48 H19        4.7957   -0.8519    0.0651 H         1 RES1    0.0000
     49 H20        4.0919   -0.8797    1.4593 H         1 RES1    0.0000
     50 C22        0.2935    1.4788   -0.9277 C.3       1 RES1    0.0000
     51 H21       -0.3849    1.1482   -0.3555 H         1 RES1    0.0000
     52 H22        0.1547    2.4909   -1.0889 H         1 RES1    0.0000
     53 H23        0.2707    0.9908   -1.7274 H         1 RES1    0.0000
@<TRIPOS>BOND
     1    1    9 1
     2    2    9 2
     3    3   14 1
     4    4   15 1
     5    5   16 1
     6    6    8 2
     7    7    8 2
     8    8   37 1
     9    9   10 1
    10   10   11 1
    11   11   12 1
    12   13   11 1
    13   14   13 ar
    14   15   14 ar
    15   16   15 ar
    16   17   16 ar
    17   18   17 1
    18   19    1 1
    19   20   10 1
    20   21   20 1
    21   22   20 1
    22   23   20 1
    23   24   23 1
    24   25   23 2
    25   26   25 1
    26   27   25 1
    27   28   10 1
    28   29   28 1
    29   30   28 1
    30   31   28 1
    31   32   11 1
    32   33   32 ar
    33   34   33 1
    34   35   33 ar
    35   36   35 1
    36   37   35 ar
    37   38   37 ar
    38   39   38 1
    39   40   32 ar
    40   41   40 1
    41   42    3 1
    42   43   42 1
    43   44   42 1
    44   45   42 1
    45   46    4 1
    46   47   46 1
    47   48   46 1
    48   49   46 1
    49   50    5 1
    50   51   50 1
    51   52   50 1
    52   53   50 1
    53   13   19 ar
    54   17   19 ar
    55   38   40 ar
@<TRIPOS>SUBSTRUCTURE
     1 RES1 1

@<TRIPOS>CRYSIN
  11.5178    9.2600   18.6950  90.0000  95.3350  90.0000  14 1

