# MOL2 file generated by ConQuest
# Please check atom types

@<TRIPOS>MOLECULE
ALENUC
   181   179     2
SMALL
NO_CHARGES
****
Generated from CSD

@<TRIPOS>ATOM
      1 C1         8.2891   11.5045    4.9830 C.2       1 RES1    0.0000
      2 C2         8.3785   10.1903    5.4195 C.2       1 RES1    0.0000
      3 C3         8.8299   12.1050    3.7754 C.ar      1 RES1    0.0000
      4 C4         9.2241   11.5781    2.5366 C.ar      1 RES1    0.0000
      5 C5         9.1276   10.2093    1.9459 C.ar      1 RES1    0.0000
      6 C6         8.4347    9.0747    2.3513 C.ar      1 RES1    0.0000
      7 H1         7.8992    9.1076    3.1355 H         1 RES1    0.0000
      8 C7         8.5119    7.8786    1.6188 C.ar      1 RES1    0.0000
      9 C8         9.2757    7.9494    0.4450 C.ar      1 RES1    0.0000
     10 N1         9.4521    6.7577   -0.4281 N.pl3     1 RES1    0.0000
     11 O1         8.9058    6.8118   -1.5313 O.2       1 RES1    0.0000
     12 O2        10.1685    5.8478   -0.0377 O.2       1 RES1    0.0000
     13 C9         9.9204    9.0609   -0.0188 C.ar      1 RES1    0.0000
     14 H2        10.4044    9.0472   -0.8355 H         1 RES1    0.0000
     15 C10        9.8404   10.2091    0.7482 C.ar      1 RES1    0.0000
     16 C11       10.3409   11.5640    0.4318 C.2       1 RES1    0.0000
     17 O3        10.9725   11.8997   -0.5437 O.2       1 RES1    0.0000
     18 C12        9.8532   12.4231    1.5813 C.ar      1 RES1    0.0000
     19 C13        9.9760   13.7850    1.7921 C.ar      1 RES1    0.0000
     20 C14       10.5837   14.8684    0.9885 C.ar      1 RES1    0.0000
     21 C15       11.3003   14.8643   -0.1896 C.ar      1 RES1    0.0000
     22 H3        11.4740   14.0321   -0.6140 H         1 RES1    0.0000
     23 C16       11.7842   16.0460   -0.7867 C.ar      1 RES1    0.0000
     24 C17       11.4603   17.2280   -0.0958 C.ar      1 RES1    0.0000
     25 N2        11.7962   18.5650   -0.6258 N.pl3     1 RES1    0.0000
     26 O4        11.2228   18.9418   -1.6109 O.2       1 RES1    0.0000
     27 O5        12.5772   19.2355   -0.0300 O.2       1 RES1    0.0000
     28 C18       10.7747   17.2695    1.1134 C.ar      1 RES1    0.0000
     29 H4        10.6118   18.0933    1.5546 H         1 RES1    0.0000
     30 C19       10.3359   16.0718    1.6522 C.ar      1 RES1    0.0000
     31 C20        9.6026   15.8323    2.9158 C.2       1 RES1    0.0000
     32 O6         9.3000   16.6864    3.7367 O.2       1 RES1    0.0000
     33 C21        9.3890   14.3543    2.9671 C.ar      1 RES1    0.0000
     34 C22        8.8196   13.5526    3.9181 C.ar      1 RES1    0.0000
     35 C23        8.1309   13.8342    5.1809 C.ar      1 RES1    0.0000
     36 C24        7.7486   15.0498    5.7588 C.ar      1 RES1    0.0000
     37 H5         7.9566   15.8591    5.3078 H         1 RES1    0.0000
     38 C25        7.0767   15.1055    6.9685 C.ar      1 RES1    0.0000
     39 C26        6.9192   13.8830    7.6249 C.ar      1 RES1    0.0000
     40 N3         6.1659   13.7414    8.8733 N.pl3     1 RES1    0.0000
     41 O7         4.9232   13.7630    8.8057 O.2       1 RES1    0.0000
     42 O8         6.7783   13.5971    9.9153 O.2       1 RES1    0.0000
     43 C27        7.2845   12.6567    7.1035 C.ar      1 RES1    0.0000
     44 H6         7.1735   11.8571    7.6059 H         1 RES1    0.0000
     45 C28        7.8133   12.6284    5.8275 C.ar      1 RES1    0.0000
     46 C29        7.8148    6.6151    2.1704 C.3       1 RES1    0.0000
     47 C30        7.2144    5.7189    1.0646 C.3       1 RES1    0.0000
     48 H7         7.9193    5.4672    0.4318 H         1 RES1    0.0000
     49 H8         6.8320    4.9121    1.4682 H         1 RES1    0.0000
     50 H9         6.5120    6.2129    0.5914 H         1 RES1    0.0000
     51 C31        8.8553    5.7956    2.9571 C.3       1 RES1    0.0000
     52 H10        9.5933    5.5485    2.3638 H         1 RES1    0.0000
     53 H11        9.1996    6.3326    3.7006 H         1 RES1    0.0000
     54 H12        8.4335    4.9847    3.3101 H         1 RES1    0.0000
     55 C32        6.6833    6.9798    3.1261 C.3       1 RES1    0.0000
     56 H13        6.0071    7.5027    2.6473 H         1 RES1    0.0000
     57 H14        6.2743    6.1611    3.4772 H         1 RES1    0.0000
     58 H15        7.0408    7.5108    3.8677 H         1 RES1    0.0000
     59 C33       12.6035   15.9304   -2.0841 C.3       1 RES1    0.0000
     60 C34       13.4582   14.6450   -2.0578 C.3       1 RES1    0.0000
     61 H16       14.1036   14.6974   -1.3218 H         1 RES1    0.0000
     62 H17       12.8751   13.8684   -1.9264 H         1 RES1    0.0000
     63 H18       13.9379   14.5552   -2.9064 H         1 RES1    0.0000
     64 C35       11.6229   15.7965   -3.2406 C.3       1 RES1    0.0000
     65 H19       11.0029   15.0598   -3.0604 H         1 RES1    0.0000
     66 H20       11.1185   16.6319   -3.3402 H         1 RES1    0.0000
     67 H21       12.1163   15.6129   -4.0686 H         1 RES1    0.0000
     68 C36       13.6197   17.0610   -2.2700 C.3       1 RES1    0.0000
     69 H22       14.2177   17.0936   -1.4945 H         1 RES1    0.0000
     70 H23       14.1442   16.8985   -3.0811 H         1 RES1    0.0000
     71 H24       13.1461   17.9157   -2.3526 H         1 RES1    0.0000
     72 C37        6.5026   16.4570    7.4655 C.3       1 RES1    0.0000
     73 C38        6.4630   16.5797    9.0085 C.3       1 RES1    0.0000
     74 H25        7.3673   16.4688    9.3690 H         1 RES1    0.0000
     75 H26        6.1180   17.4628    9.2582 H         1 RES1    0.0000
     76 H27        5.8769   15.8846    9.3765 H         1 RES1    0.0000
     77 C39        7.3841   17.6211    6.9375 C.3       1 RES1    0.0000
     78 H28        8.2937   17.5296    7.2905 H         1 RES1    0.0000
     79 H29        7.4101   17.5918    5.9575 H         1 RES1    0.0000
     80 H30        7.0056   18.4765    7.2285 H         1 RES1    0.0000
     81 C40        5.1068   16.6291    6.9019 C.3       1 RES1    0.0000
     82 H31        5.1371   16.5493    5.9255 H         1 RES1    0.0000
     83 H32        4.5196   15.9342    7.2661 H         1 RES1    0.0000
     84 H33        4.7618   17.5124    7.1478 H         1 RES1    0.0000
     85 C41        7.5137    9.4482    6.3472 C.ar      1 RES1    0.0000
     86 C42        6.2091    9.6531    6.8044 C.ar      1 RES1    0.0000
     87 C43        5.1281   10.6314    6.4280 C.ar      1 RES1    0.0000
     88 C44        4.9874   11.4893    5.3354 C.ar      1 RES1    0.0000
     89 H34        5.6686   11.5188    4.6732 H         1 RES1    0.0000
     90 C45        3.8461   12.3136    5.1976 C.ar      1 RES1    0.0000
     91 C46        2.9014   12.1911    6.2376 C.ar      1 RES1    0.0000
     92 N4         1.6885   13.0323    6.2868 N.pl3     1 RES1    0.0000
     93 O9         0.7086   12.6573    5.6478 O.2       1 RES1    0.0000
     94 O10        1.6718   14.0090    7.0462 O.2       1 RES1    0.0000
     95 C47        2.9877   11.3130    7.2868 C.ar      1 RES1    0.0000
     96 H35        2.3020   11.2597    7.9420 H         1 RES1    0.0000
     97 C48        4.1015   10.5117    7.3560 C.ar      1 RES1    0.0000
     98 C49        4.3763    9.4110    8.2988 C.2       1 RES1    0.0000
     99 O11        3.6617    9.0237    9.1958 O.2       1 RES1    0.0000
    100 C50        5.7114    8.8589    7.8669 C.ar      1 RES1    0.0000
    101 C51        6.4170    7.7691    8.3448 C.ar      1 RES1    0.0000
    102 C52        6.2011    6.8724    9.4974 C.ar      1 RES1    0.0000
    103 C53        5.3315    6.9411   10.5743 C.ar      1 RES1    0.0000
    104 H36        4.6322    7.5838   10.5612 H         1 RES1    0.0000
    105 C54        5.4527    6.0878   11.6817 C.ar      1 RES1    0.0000
    106 C55        6.4407    5.0993   11.5807 C.ar      1 RES1    0.0000
    107 N5         6.6775    4.1246   12.6479 N.pl3     1 RES1    0.0000
    108 O12        5.9498    3.1428   12.7119 O.2       1 RES1    0.0000
    109 O13        7.6375    4.3182   13.3985 O.2       1 RES1    0.0000
    110 C56        7.3234    4.9958   10.5079 C.ar      1 RES1    0.0000
    111 H37        7.9894    4.3190   10.4898 H         1 RES1    0.0000
    112 C57        7.2077    5.8949    9.4752 C.ar      1 RES1    0.0000
    113 C58        8.1320    6.1417    8.3556 C.2       1 RES1    0.0000
    114 O14        9.1115    5.4735    8.0721 O.2       1 RES1    0.0000
    115 C59        7.6329    7.4007    7.6953 C.ar      1 RES1    0.0000
    116 C60        8.1804    8.2341    6.7494 C.ar      1 RES1    0.0000
    117 C61        9.4491    8.1772    6.0108 C.ar      1 RES1    0.0000
    118 C62       10.4794    7.2270    6.0324 C.ar      1 RES1    0.0000
    119 H38       10.3840    6.4557    6.5808 H         1 RES1    0.0000
    120 C63       11.6396    7.3788    5.2738 C.ar      1 RES1    0.0000
    121 C64       11.7090    8.5621    4.5131 C.ar      1 RES1    0.0000
    122 N6        12.8600    8.8897    3.6545 N.pl3     1 RES1    0.0000
    123 O15       12.6347    9.0494    2.4583 O.2       1 RES1    0.0000
    124 O16       13.9615    9.0571    4.1685 O.2       1 RES1    0.0000
    125 C65       10.7108    9.5176    4.4672 C.ar      1 RES1    0.0000
    126 H39       10.8220   10.3060    3.9466 H         1 RES1    0.0000
    127 C66        9.5507    9.3145    5.1869 C.ar      1 RES1    0.0000
    128 C67        3.6754   13.1904    3.9573 C.3       1 RES1    0.0000
    129 C68        5.0050   13.4995    3.2744 C.3       1 RES1    0.0000
    130 H40        4.8452   14.0617    2.4877 H         1 RES1    0.0000
    131 H41        5.5915   13.9705    3.8997 H         1 RES1    0.0000
    132 H42        5.4302   12.6610    2.9947 H         1 RES1    0.0000
    133 C69        2.7605   12.4274    2.9684 C.3       1 RES1    0.0000
    134 H43        1.9052   12.2286    3.4040 H         1 RES1    0.0000
    135 H44        2.6027   12.9802    2.1761 H         1 RES1    0.0000
    136 H45        3.1959   11.5910    2.7018 H         1 RES1    0.0000
    137 C70        3.0031   14.5644    4.2376 C.3       1 RES1    0.0000
    138 H46        2.1397   14.4209    4.6807 H         1 RES1    0.0000
    139 H47        3.5823   15.0987    4.8197 H         1 RES1    0.0000
    140 H48        2.8621   15.0393    3.3927 H         1 RES1    0.0000
    141 C71        4.5144    6.2887   12.8856 C.3       1 RES1    0.0000
    142 C72        4.1778    7.7670   13.0433 C.3       1 RES1    0.0000
    143 H49        4.9985    8.2712   13.2236 H         1 RES1    0.0000
    144 H50        3.7663    8.0987   12.2172 H         1 RES1    0.0000
    145 H51        3.5528    7.8824   13.7887 H         1 RES1    0.0000
    146 C73        3.2493    5.5049   12.6077 C.3       1 RES1    0.0000
    147 H52        3.4697    4.5553   12.5082 H         1 RES1    0.0000
    148 H53        2.6239    5.6185   13.3531 H         1 RES1    0.0000
    149 H54        2.8370    5.8330   11.7816 H         1 RES1    0.0000
    150 C74        5.1220    5.8734   14.2506 C.3       1 RES1    0.0000
    151 H55        5.9380    6.3903   14.4158 H         1 RES1    0.0000
    152 H56        4.4737    6.0500   14.9640 H         1 RES1    0.0000
    153 H57        5.3363    4.9172   14.2337 H         1 RES1    0.0000
    154 C75       12.7015    6.2613    5.2778 C.3       1 RES1    0.0000
    155 C76       13.2696    6.0031    3.8659 C.3       1 RES1    0.0000
    156 H58       13.6581    6.8323    3.5148 H         1 RES1    0.0000
    157 H59       13.9621    5.3130    3.9147 H         1 RES1    0.0000
    158 H60       12.5487    5.7046    3.2744 H         1 RES1    0.0000
    159 C77       13.8299    6.6743    6.2447 C.3       1 RES1    0.0000
    160 H61       14.2318    7.5131    5.9368 H         1 RES1    0.0000
    161 H62       13.4609    6.7978    7.1441 H         1 RES1    0.0000
    162 H63       14.5153    5.9739    6.2654 H         1 RES1    0.0000
    163 C78       12.1036    4.9462    5.7941 C.3       1 RES1    0.0000
    164 H64       12.7922    4.2486    5.7885 H         1 RES1    0.0000
    165 H65       11.7755    5.0744    6.7085 H         1 RES1    0.0000
    166 H66       11.3611    4.6759    5.2158 H         1 RES1    0.0000
    167 N7         6.5802   13.8116    9.1568 Du        2 SUP2    0.0000
    168 O17        5.6417   13.0640    9.3727 Du        2 SUP2    0.0000
    169 O18        7.2470   14.4837    9.9116 Du        2 SUP2    0.0000
    170 C79        6.0360   17.2658    6.2166 Du        2 SUP2    0.0000
    171 H67        5.3712   16.7456    5.7209 Du        2 SUP2    0.0000
    172 H68        5.6372   18.1143    6.5076 Du        2 SUP2    0.0000
    173 H69        6.8060   17.4499    5.6401 Du        2 SUP2    0.0000
    174 C80        5.2103   16.2602    8.3269 Du        2 SUP2    0.0000
    175 H70        4.5463   15.7600    7.8087 Du        2 SUP2    0.0000
    176 H71        5.4334   15.7639    9.1418 Du        2 SUP2    0.0000
    177 H72        4.8439   17.1367    8.5691 Du        2 SUP2    0.0000
    178 C81        7.5137   17.2166    8.2462 Du        2 SUP2    0.0000
    179 H73        7.1252   18.0639    8.5466 Du        2 SUP2    0.0000
    180 H74        7.7893   16.6886    9.0235 Du        2 SUP2    0.0000
    181 H75        8.2944   17.3968    7.6810 Du        2 SUP2    0.0000
@<TRIPOS>BOND
     1    1    2 2
     2    2   85 1
     3    3    1 1
     4    4    3 ar
     5    5    4 1
     6    6    5 ar
     7    7    6 1
     8    8    6 ar
     9    9    8 ar
    10   10    9 1
    11   11   10 2
    12   12   10 2
    13   13    9 ar
    14   14   13 1
    15   15    5 ar
    16   16   15 1
    17   17   16 2
    18   18    4 ar
    19   19   18 ar
    20   20   19 1
    21   21   20 ar
    22   22   21 1
    23   23   21 ar
    24   24   23 ar
    25   25   24 1
    26   26   25 2
    27   27   25 2
    28   28   24 ar
    29   29   28 1
    30   30   20 ar
    31   31   30 1
    32   32   31 2
    33   33   19 ar
    34   34    3 ar
    35   35   34 1
    36   36   35 ar
    37   37   36 1
    38   38   36 ar
    39   39   38 ar
    40   40   39 1
    41   41   40 2
    42   42   40 2
    43   43   39 ar
    44   44   43 1
    45   45    1 1
    46   46    8 1
    47   47   46 1
    48   48   47 1
    49   49   47 1
    50   50   47 1
    51   51   46 1
    52   52   51 1
    53   53   51 1
    54   54   51 1
    55   55   46 1
    56   56   55 1
    57   57   55 1
    58   58   55 1
    59   59   23 1
    60   60   59 1
    61   61   60 1
    62   62   60 1
    63   63   60 1
    64   64   59 1
    65   65   64 1
    66   66   64 1
    67   67   64 1
    68   68   59 1
    69   69   68 1
    70   70   68 1
    71   71   68 1
    72   72   38 1
    73   73   72 1
    74   74   73 1
    75   75   73 1
    76   76   73 1
    77   77   72 1
    78   78   77 1
    79   79   77 1
    80   80   77 1
    81   81   72 1
    82   82   81 1
    83   83   81 1
    84   84   81 1
    85   85   86 ar
    86   86   87 1
    87   87   88 ar
    88   88   89 1
    89   90   88 ar
    90   91   90 ar
    91   92   91 1
    92   93   92 2
    93   94   92 2
    94   95   91 ar
    95   96   95 1
    96   97   87 ar
    97   98   97 1
    98   99   98 2
    99  100   86 ar
   100  101  100 ar
   101  102  101 1
   102  103  102 ar
   103  104  103 1
   104  105  103 ar
   105  106  105 ar
   106  107  106 1
   107  108  107 2
   108  109  107 2
   109  110  106 ar
   110  111  110 1
   111  112  102 ar
   112  113  112 1
   113  114  113 2
   114  115  101 ar
   115  116   85 ar
   116  117  116 1
   117  118  117 ar
   118  119  118 1
   119  120  118 ar
   120  121  120 ar
   121  122  121 1
   122  123  122 2
   123  124  122 2
   124  125  121 ar
   125  126  125 1
   126  127    2 1
   127  128   90 1
   128  129  128 1
   129  130  129 1
   130  131  129 1
   131  132  129 1
   132  133  128 1
   133  134  133 1
   134  135  133 1
   135  136  133 1
   136  137  128 1
   137  138  137 1
   138  139  137 1
   139  140  137 1
   140  141  105 1
   141  142  141 1
   142  143  142 1
   143  144  142 1
   144  145  142 1
   145  146  141 1
   146  147  146 1
   147  148  146 1
   148  149  146 1
   149  150  141 1
   150  151  150 1
   151  152  150 1
   152  153  150 1
   153  154  120 1
   154  155  154 1
   155  156  155 1
   156  157  155 1
   157  158  155 1
   158  159  154 1
   159  160  159 1
   160  161  159 1
   161  162  159 1
   162  163  154 1
   163  164  163 1
   164  165  163 1
   165  166  163 1
   166   13   15 ar
   167   16   18 1
   168   28   30 ar
   169   31   33 1
   170   33   34 ar
   171   35   45 ar
   172   43   45 ar
   173   95   97 ar
   174   98  100 1
   175  110  112 ar
   176  113  115 1
   177  115  116 ar
   178  117  127 ar
   179  125  127 ar
@<TRIPOS>SUBSTRUCTURE
     1 RES1 1
     2 SUP2 167

@<TRIPOS>CRYSIN
  10.4203   17.8167   20.5187  66.2360  83.9160  77.2870   2 1

