# MOL2 file generated by ConQuest
# Please check atom types

@<TRIPOS>MOLECULE
ALICUV
    62    62     2
SMALL
NO_CHARGES
****
Generated from CSD

@<TRIPOS>ATOM
      1 O1         4.3189    5.4668    6.2751 O.2       1 RES1    0.0000
      2 N1         5.5436    5.3030    5.9433 N.pl3     1 RES1    0.0000
      3 C1         6.2365    6.2676    5.0212 C.3       1 RES1    0.0000
      4 C2         5.8014    5.8599    3.6021 C.3       1 RES1    0.0000
      5 H1         6.2137    6.4432    2.9617 H         1 RES1    0.0000
      6 H2         6.0727    4.9548    3.4329 H         1 RES1    0.0000
      7 H3         4.8467    5.9277    3.5294 H         1 RES1    0.0000
      8 C3         5.8009    7.6826    5.3194 C.3       1 RES1    0.0000
      9 H4         6.2498    8.2877    4.7232 H         1 RES1    0.0000
     10 H5         4.8515    7.7589    5.1945 H         1 RES1    0.0000
     11 H6         6.0235    7.9025    6.2270 H         1 RES1    0.0000
     12 C4         7.7097    5.9308    5.3317 C.3       1 RES1    0.0000
     13 C5         8.6617    6.0110    4.1635 C.3       1 RES1    0.0000
     14 H7         8.7443    6.9239    3.8804 H         1 RES1    0.0000
     15 H8         9.5224    5.6786    4.4291 H         1 RES1    0.0000
     16 H9         8.3236    5.4792    3.4377 H         1 RES1    0.0000
     17 C6         8.2718    6.6907    6.5401 C.3       1 RES1    0.0000
     18 H10        7.6535    6.6291    7.2722 H         1 RES1    0.0000
     19 H11        9.1128    6.3059    6.7979 H         1 RES1    0.0000
     20 H12        8.3997    7.6129    6.3077 H         1 RES1    0.0000
     21 N2         7.5723    4.4975    5.7871 N.pl3     1 RES1    0.0000
     22 O2         8.5776    3.7143    5.8285 O.2       1 RES1    0.0000
     23 C7         6.3171    4.2305    6.2024 C.2       1 RES1    0.0000
     24 C8         5.8316    2.9676    6.7667 C.2       1 RES1    0.0000
     25 N3         4.4900    2.7777    6.6758 N.3       1 RES1    0.0000
     26 H13        4.1470    2.0363    6.9576 H         1 RES1    0.0000
     27 H14        3.9562    3.5235    6.4089 H         1 RES1    0.0000
     28 C9         6.7084    2.0604    7.2567 C.2       1 RES1    0.0000
     29 H15        7.5960    2.2302    7.2738 H         1 RES1    0.0000
     30 C10        6.2712    0.8216    7.7656 C.1       1 RES1    0.0000
     31 N4         5.9341   -0.1907    8.1720 N.1       1 RES1    0.0000
     32 O3         0.7632   10.5450    1.6426 O.2       2 RES2    0.0000
     33 N5         1.9899   10.3877    1.9818 N.pl3     2 RES2    0.0000
     34 C11        2.6662   11.3366    2.9249 C.3       2 RES2    0.0000
     35 C12        2.1988   12.7514    2.6676 C.3       2 RES2    0.0000
     36 H16        2.6384   13.3491    3.2764 H         2 RES2    0.0000
     37 H17        2.4121   12.9994    1.7647 H         2 RES2    0.0000
     38 H18        1.2488   12.8028    2.7973 H         2 RES2    0.0000
     39 C13        2.2656   10.8848    4.3295 C.3       2 RES2    0.0000
     40 H19        2.6735   11.4613    4.9794 H         2 RES2    0.0000
     41 H20        1.3108   10.9272    4.4181 H         2 RES2    0.0000
     42 H21        2.5607    9.9830    4.4718 H         2 RES2    0.0000
     43 C14        4.1452   11.0399    2.5920 C.3       2 RES2    0.0000
     44 C15        5.1062   11.1470    3.7571 C.3       2 RES2    0.0000
     45 H22        5.1660   12.0625    4.0401 H         2 RES2    0.0000
     46 H23        4.7873   10.6070    4.4845 H         2 RES2    0.0000
     47 H24        5.9730   10.8377    3.4851 H         2 RES2    0.0000
     48 C16        4.6771   11.8176    1.3931 C.3       2 RES2    0.0000
     49 H25        4.7705   12.7437    1.6271 H         2 RES2    0.0000
     50 H26        5.5318   11.4646    1.1353 H         2 RES2    0.0000
     51 H27        4.0631   11.7337    0.6594 H         2 RES2    0.0000
     52 N6         4.0339    9.6094    2.1292 N.pl3     2 RES2    0.0000
     53 O4         5.0507    8.8506    2.0645 O.2       2 RES2    0.0000
     54 C17        2.7759    9.3239    1.7179 C.2       2 RES2    0.0000
     55 C18        2.3040    8.0520    1.1603 C.2       2 RES2    0.0000
     56 N7         0.9564    7.9120    1.1146 N.3       2 RES2    0.0000
     57 H28        0.6147    7.2253    0.8064 H         2 RES2    0.0000
     58 H29        0.4070    8.7087    1.2492 H         2 RES2    0.0000
     59 C19        3.1899    7.0882    0.8068 C.2       2 RES2    0.0000
     60 H30        4.1683    7.1858    0.9472 H         2 RES2    0.0000
     61 C20        2.7324    5.8334    0.3352 C.1       2 RES2    0.0000
     62 N8         2.3524    4.8212   -0.0316 N.1       2 RES2    0.0000
@<TRIPOS>BOND
     1    1    2 un
     2    2    3 1
     3    3    4 1
     4    4    5 1
     5    6    4 1
     6    7    4 1
     7    8    3 1
     8    9    8 1
     9   10    8 1
    10   11    8 1
    11   12    3 1
    12   13   12 1
    13   14   13 1
    14   15   13 1
    15   16   13 1
    16   17   12 1
    17   18   17 1
    18   19   17 1
    19   20   17 1
    20   21   12 1
    21   22   21 un
    22   23    2 un
    23   24   23 1
    24   25   24 1
    25   26   25 1
    26   27   25 1
    27   28   24 2
    28   29   28 1
    29   30   28 1
    30   31   30 3
    31   32   33 un
    32   33   34 1
    33   34   35 1
    34   35   36 1
    35   37   35 1
    36   38   35 1
    37   39   34 1
    38   40   39 1
    39   41   39 1
    40   42   39 1
    41   43   34 1
    42   44   43 1
    43   45   44 1
    44   46   44 1
    45   47   44 1
    46   48   43 1
    47   49   48 1
    48   50   48 1
    49   51   48 1
    50   52   43 1
    51   53   52 un
    52   54   33 un
    53   55   54 1
    54   56   55 1
    55   57   56 1
    56   58   56 1
    57   59   55 2
    58   60   59 1
    59   61   59 1
    60   62   61 3
    61   21   23 un
    62   52   54 un
@<TRIPOS>SUBSTRUCTURE
     1 RES1 1
     2 RES2 32

@<TRIPOS>CRYSIN
   7.0770   10.5767   15.8943  88.1950  84.2760  81.7120   2 1

