# MOL2 file generated by ConQuest
# Please check atom types

@<TRIPOS>MOLECULE
ALINEQ
    41    43     1
SMALL
NO_CHARGES
****
Generated from CSD

@<TRIPOS>ATOM
      1 N1         9.7701   -1.0521    3.2360 N.am      1 RES1    0.0000
      2 H1         9.5222   -1.5716    2.5971 H         1 RES1    0.0000
      3 C1         9.1056    0.0617    3.5979 C.2       1 RES1    0.0000
      4 C2         9.8177    0.6737    4.8443 C.3       1 RES1    0.0000
      5 C3        11.9904   -0.3326    5.9337 C.ar      1 RES1    0.0000
      6 H2        12.0459    0.2962    6.6168 H         1 RES1    0.0000
      7 N2        13.9550   -1.4688    6.8374 N.pl3     1 RES1    0.0000
      8 O1        14.8443   -2.2901    6.6923 O.2       1 RES1    0.0000
      9 C4        12.9012   -1.3772    5.8354 C.ar      1 RES1    0.0000
     10 O2        13.9086   -0.7026    7.7878 O.2       1 RES1    0.0000
     11 C5        12.8488   -2.3294    4.8443 C.ar      1 RES1    0.0000
     12 H3        13.5012   -2.9900    4.7963 H         1 RES1    0.0000
     13 C6        11.8233   -2.3023    3.9190 C.ar      1 RES1    0.0000
     14 H4        11.7523   -2.9516    3.2587 H         1 RES1    0.0000
     15 C7        10.9026   -1.2698    4.0125 C.ar      1 RES1    0.0000
     16 C8        11.0078   -0.2691    4.9821 C.ar      1 RES1    0.0000
     17 O3         8.0849    0.4850    3.0881 O.2       1 RES1    0.0000
     18 C9         8.9216    0.5550    6.0536 C.2       1 RES1    0.0000
     19 C10        8.3385    1.6099    6.6492 C.2       1 RES1    0.0000
     20 O4         8.5062    2.8746    6.1826 O.3       1 RES1    0.0000
     21 C11        9.4163    3.1236    5.1739 C.2       1 RES1    0.0000
     22 C12       10.1023    2.1565    4.5722 C.2       1 RES1    0.0000
     23 C13        8.7608   -0.7223    6.6540 C.1       1 RES1    0.0000
     24 N3         8.6256   -1.7435    7.1406 N.1       1 RES1    0.0000
     25 N4         7.5541    1.6108    7.7253 N.3       1 RES1    0.0000
     26 H5         7.3695    0.8708    8.1221 H         1 RES1    0.0000
     27 H6         7.2329    2.3508    8.0227 H         1 RES1    0.0000
     28 C14        9.4220    4.5933    4.9330 C.3       1 RES1    0.0000
     29 H7         8.8137    5.0194    5.5418 H         1 RES1    0.0000
     30 H8         9.1466    4.7708    4.0305 H         1 RES1    0.0000
     31 H9        10.3067    4.9372    5.0708 H         1 RES1    0.0000
     32 C15       11.0756    2.5032    3.5032 C.2       1 RES1    0.0000
     33 O5        11.4605    3.6122    3.2179 O.2       1 RES1    0.0000
     34 O6        11.4818    1.4181    2.8580 O.3       1 RES1    0.0000
     35 C16       12.5116    1.5809    1.8457 C.3       1 RES1    0.0000
     36 H10       13.2527    2.0976    2.2004 H         1 RES1    0.0000
     37 H11       12.1536    2.0462    1.0738 H         1 RES1    0.0000
     38 C17       12.9744    0.2177    1.4574 C.3       1 RES1    0.0000
     39 H12       13.6593    0.2906    0.7898 H         1 RES1    0.0000
     40 H13       12.2347   -0.2812    1.1038 H         1 RES1    0.0000
     41 H14       13.3250   -0.2327    2.2292 H         1 RES1    0.0000
@<TRIPOS>BOND
     1    1    2 1
     2    3    1 1
     3    4    3 1
     4    5    6 1
     5    7    8 2
     6    9    5 ar
     7   10    7 2
     8   11    9 ar
     9   12   11 1
    10   13   11 ar
    11   14   13 1
    12   15    1 1
    13   16    4 1
    14   17    3 2
    15   18    4 1
    16   19   18 2
    17   20   19 1
    18   21   20 1
    19   22    4 1
    20   23   18 1
    21   24   23 3
    22   25   19 1
    23   26   25 1
    24   27   25 1
    25   28   21 1
    26   29   28 1
    27   30   28 1
    28   31   28 1
    29   32   22 1
    30   33   32 2
    31   34   32 1
    32   35   34 1
    33   36   35 1
    34   37   35 1
    35   38   35 1
    36   39   38 1
    37   40   38 1
    38   41   38 1
    39    5   16 ar
    40    7    9 1
    41   13   15 ar
    42   15   16 ar
    43   21   22 2
@<TRIPOS>SUBSTRUCTURE
     1 RES1 1

@<TRIPOS>CRYSIN
  14.9385    9.3436   12.0269  90.0000  94.7920  90.0000  14 1

