# MOL2 file generated by ConQuest
# Please check atom types

@<TRIPOS>MOLECULE
ALOPAU
    61    65     1
SMALL
NO_CHARGES
****
Generated from CSD

@<TRIPOS>ATOM
      1 C1         1.8724    2.4333    6.1840 C.3       1 RES1    0.0000
      2 H1         1.4942    1.5348    6.0099 H         1 RES1    0.0000
      3 H2         1.7267    2.9824    5.3726 H         1 RES1    0.0000
      4 C2         1.1081    3.0724    7.3563 C.3       1 RES1    0.0000
      5 H3         0.1941    3.3062    7.0532 H         1 RES1    0.0000
      6 H4         1.0234    2.4068    8.0843 H         1 RES1    0.0000
      7 C3         1.7770    4.3202    7.9088 C.ar      1 RES1    0.0000
      8 C4         1.9991    5.4820    7.1602 C.ar      1 RES1    0.0000
      9 C5         2.7550    6.5471    7.6748 C.ar      1 RES1    0.0000
     10 H5         2.9291    7.3027    7.1259 H         1 RES1    0.0000
     11 C6         3.2524    6.5168    8.9682 C.ar      1 RES1    0.0000
     12 C7         2.9892    5.3778    9.7220 C.ar      1 RES1    0.0000
     13 H6         3.2974    5.3333   10.6191 H         1 RES1    0.0000
     14 C8         2.2912    4.3127    9.1970 C.ar      1 RES1    0.0000
     15 H7         2.1568    3.5439    9.7382 H         1 RES1    0.0000
     16 C9         4.0203    7.7079    9.5109 C.3       1 RES1    0.0000
     17 H8         3.4102    8.2495   10.0714 H         1 RES1    0.0000
     18 H9         4.3068    8.2722    8.7507 H         1 RES1    0.0000
     19 C10        5.2591    7.3377   10.3455 C.3       1 RES1    0.0000
     20 H10        5.7703    8.1605   10.5513 H         1 RES1    0.0000
     21 H11        4.9656    6.9400   11.2032 H         1 RES1    0.0000
     22 C11        6.1624    6.3597    9.6269 C.ar      1 RES1    0.0000
     23 C12        6.7519    6.6977    8.4311 C.ar      1 RES1    0.0000
     24 H12        6.6629    7.5829    8.0988 H         1 RES1    0.0000
     25 C13        7.4725    5.7651    7.7066 C.ar      1 RES1    0.0000
     26 H13        7.8702    6.0245    6.8835 H         1 RES1    0.0000
     27 C14        7.6301    4.4528    8.1524 C.ar      1 RES1    0.0000
     28 C15        7.1021    4.1451    9.3869 C.ar      1 RES1    0.0000
     29 H14        7.2364    3.2759    9.7467 H         1 RES1    0.0000
     30 C16        6.3761    5.0767   10.1166 C.ar      1 RES1    0.0000
     31 H15        6.0204    4.8344   10.9632 H         1 RES1    0.0000
     32 C17        8.3244    3.4236    7.2870 C.3       1 RES1    0.0000
     33 H16        9.2467    3.3005    7.6251 H         1 RES1    0.0000
     34 H17        8.3896    3.7796    6.3661 H         1 RES1    0.0000
     35 C18        7.6406    2.0574    7.2325 C.3       1 RES1    0.0000
     36 H18        7.7650    1.6048    8.1049 H         1 RES1    0.0000
     37 H19        8.0858    1.5064    6.5430 H         1 RES1    0.0000
     38 C19        6.1427    2.1199    6.9200 C.ar      1 RES1    0.0000
     39 C20        5.6482    2.8896    5.8823 C.ar      1 RES1    0.0000
     40 H20        6.2539    3.3649    5.3241 H         1 RES1    0.0000
     41 C21        4.2749    2.9834    5.6391 C.ar      1 RES1    0.0000
     42 H21        3.9621    3.5259    4.9255 H         1 RES1    0.0000
     43 C22        3.3628    2.2979    6.4203 C.ar      1 RES1    0.0000
     44 C23        3.8640    1.5111    7.4494 C.ar      1 RES1    0.0000
     45 H22        3.2636    1.0159    7.9958 H         1 RES1    0.0000
     46 C24        5.2302    1.4382    7.6905 C.ar      1 RES1    0.0000
     47 H23        5.5444    0.9014    8.4090 H         1 RES1    0.0000
     48 C25        1.3482    5.6467    5.8427 C.2       1 RES1    0.0000
     49 O1         0.2813    5.2453    5.4988 O.2       1 RES1    0.0000
     50 O2         2.1422    6.4215    4.9921 O.3       1 RES1    0.0000
     51 N1         1.4800    6.6727    3.8048 N.am      1 RES1    0.0000
     52 C26        0.5846    7.7297    3.7017 C.2       1 RES1    0.0000
     53 O3         0.3951    8.5300    4.5803 O.2       1 RES1    0.0000
     54 C27       -0.0295    7.6085    2.3376 C.3       1 RES1    0.0000
     55 H24        0.2254    8.3792    1.7715 H         1 RES1    0.0000
     56 H25       -1.0168    7.5735    2.4015 H         1 RES1    0.0000
     57 C28        0.5208    6.3010    1.7497 C.3       1 RES1    0.0000
     58 H26       -0.2166    5.6666    1.5643 H         1 RES1    0.0000
     59 H27        1.0061    6.4771    0.9051 H         1 RES1    0.0000
     60 C29        1.4546    5.7357    2.7861 C.2       1 RES1    0.0000
     61 O4         2.0840    4.7076    2.8012 O.2       1 RES1    0.0000
@<TRIPOS>BOND
     1    1    2 1
     2    3    1 1
     3    4    1 1
     4    5    4 1
     5    6    4 1
     6    7    4 1
     7    8    7 ar
     8    9    8 ar
     9   10    9 1
    10   11    9 ar
    11   12   11 ar
    12   13   12 1
    13   14    7 ar
    14   15   14 1
    15   16   11 1
    16   17   16 1
    17   18   16 1
    18   19   16 1
    19   20   19 1
    20   21   19 1
    21   22   19 1
    22   23   22 ar
    23   24   23 1
    24   25   23 ar
    25   26   25 1
    26   27   25 ar
    27   28   27 ar
    28   29   28 1
    29   30   22 ar
    30   31   30 1
    31   32   27 1
    32   33   32 1
    33   34   32 1
    34   35   32 1
    35   36   35 1
    36   37   35 1
    37   38   35 1
    38   39   38 ar
    39   40   39 1
    40   41   39 ar
    41   42   41 1
    42   43    1 1
    43   44   43 ar
    44   45   44 1
    45   46   38 ar
    46   47   46 1
    47   48    8 1
    48   49   48 2
    49   50   48 1
    50   51   50 1
    51   52   51 1
    52   53   52 2
    53   54   52 1
    54   55   54 1
    55   56   54 1
    56   57   54 1
    57   58   57 1
    58   59   57 1
    59   60   51 1
    60   61   60 2
    61   12   14 ar
    62   28   30 ar
    63   41   43 ar
    64   44   46 ar
    65   57   60 1
@<TRIPOS>SUBSTRUCTURE
     1 RES1 1

@<TRIPOS>CRYSIN
  20.9360    9.4680   12.3350  90.0000 100.7940  90.0000  14 1

