# MOL2 file generated by ConQuest
# Please check atom types

@<TRIPOS>MOLECULE
ALUKOJ
    64    68     2
SMALL
NO_CHARGES
****
Generated from CSD

@<TRIPOS>ATOM
      1 O1         3.9347    1.1979   -4.6466 O.2       1 RES1    0.0000
      2 O2         5.4023   -0.0753   -3.6856 O.2       1 RES1    0.0000
      3 O3         8.4057   -3.5702   -3.5930 O.2       1 RES1    0.0000
      4 N1         4.7435    0.3048   -4.6852 N.pl3     1 RES1    0.0000
      5 N2         6.7162   -2.0580   -5.0919 N.pl3     1 RES1    0.0000
      6 H1         6.8042   -1.7980   -4.2552 H         1 RES1    0.0000
      7 N3         8.9079   -4.9434   -5.3626 N.am      1 RES1    0.0000
      8 H2         8.7142   -5.0725   -6.2111 H         1 RES1    0.0000
      9 C1         4.9751   -0.4080   -5.9251 C.ar      1 RES1    0.0000
     10 C2         4.2388   -0.0543   -7.0220 C.ar      1 RES1    0.0000
     11 H3         3.6423    0.6843   -6.9857 H         1 RES1    0.0000
     12 C3         4.3776   -0.8005   -8.2033 C.ar      1 RES1    0.0000
     13 H4         3.8567   -0.5528   -8.9580 H         1 RES1    0.0000
     14 C4         5.2308   -1.8729   -8.3181 C.ar      1 RES1    0.0000
     15 H5         5.2801   -2.3720   -9.1256 H         1 RES1    0.0000
     16 C5         6.0260   -2.2101   -7.2130 C.ar      1 RES1    0.0000
     17 C6         5.8965   -1.4756   -5.9861 C.ar      1 RES1    0.0000
     18 C7         6.9766   -3.2515   -6.9599 C.2       1 RES1    0.0000
     19 H6         7.2647   -3.9146   -7.5751 H         1 RES1    0.0000
     20 C8         7.3975   -3.1106   -5.6509 C.2       1 RES1    0.0000
     21 C9         8.2810   -3.8962   -4.7743 C.2       1 RES1    0.0000
     22 C10        9.8317   -5.8567   -4.8001 C.ar      1 RES1    0.0000
     23 C11       10.2132   -6.9337   -5.5841 C.ar      1 RES1    0.0000
     24 H7         9.8448   -7.0410   -6.4536 H         1 RES1    0.0000
     25 C12       11.1364   -7.8615   -5.1013 C.ar      1 RES1    0.0000
     26 H8        11.4024   -8.5952   -5.6427 H         1 RES1    0.0000
     27 C13       11.6666   -7.7104   -3.8274 C.ar      1 RES1    0.0000
     28 H9        12.2900   -8.3446   -3.4923 H         1 RES1    0.0000
     29 C14       11.2851   -6.6368   -3.0516 C.ar      1 RES1    0.0000
     30 H10       11.6471   -6.5399   -2.1786 H         1 RES1    0.0000
     31 C15       10.3809   -5.6941   -3.5239 C.ar      1 RES1    0.0000
     32 H11       10.1394   -4.9493   -2.9872 H         1 RES1    0.0000
     33 O4         9.6760    1.4201   -3.3633 O.2       2 RES2    0.0000
     34 O5         8.2696   -0.1869   -3.0997 O.2       2 RES2    0.0000
     35 O6         5.3849   -2.7254   -0.6645 O.2       2 RES2    0.0000
     36 N4         8.8414    0.8553   -2.6872 N.pl3     2 RES2    0.0000
     37 N5         6.8346   -0.4622   -0.8039 N.pl3     2 RES2    0.0000
     38 H12        6.8201   -0.9331   -1.5469 H         2 RES2    0.0000
     39 N6         4.4491   -2.1633    1.3418 N.am      2 RES2    0.0000
     40 H13        4.4277   -1.5312    1.9536 H         2 RES2    0.0000
     41 C16        8.5115    1.3211   -1.3688 C.ar      2 RES2    0.0000
     42 C17        9.1606    2.4456   -0.9035 C.ar      2 RES2    0.0000
     43 H14        9.7680    2.9192   -1.4590 H         2 RES2    0.0000
     44 C18        8.9083    2.8715    0.3984 C.ar      2 RES2    0.0000
     45 H15        9.3771    3.6263    0.7360 H         2 RES2    0.0000
     46 C19        7.9940    2.2304    1.2141 C.ar      2 RES2    0.0000
     47 H16        7.8319    2.5498    2.0942 H         2 RES2    0.0000
     48 C20        7.3067    1.1024    0.7289 C.ar      2 RES2    0.0000
     49 C21        7.5825    0.6356   -0.5859 C.ar      2 RES2    0.0000
     50 C22        6.3525    0.2073    1.2785 C.2       2 RES2    0.0000
     51 H17        5.9675    0.2540    2.1446 H         2 RES2    0.0000
     52 C23        6.0947   -0.7255    0.3340 C.2       2 RES2    0.0000
     53 C24        5.2890   -1.9668    0.2953 C.2       2 RES2    0.0000
     54 C25        3.5946   -3.2876    1.5575 C.ar      2 RES2    0.0000
     55 C26        2.8372   -3.2917    2.7340 C.ar      2 RES2    0.0000
     56 H18        2.9126   -2.5648    3.3411 H         2 RES2    0.0000
     57 C27        1.9868   -4.3340    3.0247 C.ar      2 RES2    0.0000
     58 H19        1.4766   -4.3182    3.8251 H         2 RES2    0.0000
     59 C28        1.8705   -5.4001    2.1622 C.ar      2 RES2    0.0000
     60 H20        1.2785   -6.1159    2.3614 H         2 RES2    0.0000
     61 C29        2.6180   -5.4191    1.0067 C.ar      2 RES2    0.0000
     62 H21        2.5472   -6.1585    0.4149 H         2 RES2    0.0000
     63 C30        3.4773   -4.3686    0.6961 C.ar      2 RES2    0.0000
     64 H22        3.9847   -4.3925   -0.1066 H         2 RES2    0.0000
@<TRIPOS>BOND
     1    1    4 2
     2    2    4 2
     3    3   21 2
     4    4    9 1
     5    5    6 1
     6    7    8 1
     7    9   10 ar
     8   10   11 1
     9   12   10 ar
    10   13   12 1
    11   14   12 ar
    12   15   14 1
    13   16   14 ar
    14   17    5 1
    15   18   16 1
    16   19   18 1
    17   20    5 1
    18   21    7 1
    19   22    7 1
    20   23   22 ar
    21   24   23 1
    22   25   23 ar
    23   26   25 1
    24   27   25 ar
    25   28   27 1
    26   29   27 ar
    27   30   29 1
    28   31   22 ar
    29   32   31 1
    30   33   36 2
    31   34   36 2
    32   35   53 2
    33   36   41 1
    34   37   38 1
    35   39   40 1
    36   41   42 ar
    37   42   43 1
    38   44   42 ar
    39   45   44 1
    40   46   44 ar
    41   47   46 1
    42   48   46 ar
    43   49   37 1
    44   50   48 1
    45   51   50 1
    46   52   37 1
    47   53   39 1
    48   54   39 1
    49   55   54 ar
    50   56   55 1
    51   57   55 ar
    52   58   57 1
    53   59   57 ar
    54   60   59 1
    55   61   59 ar
    56   62   61 1
    57   63   54 ar
    58   64   63 1
    59    9   17 ar
    60   16   17 ar
    61   18   20 2
    62   20   21 1
    63   29   31 ar
    64   41   49 ar
    65   48   49 ar
    66   50   52 2
    67   52   53 1
    68   61   63 ar
@<TRIPOS>SUBSTRUCTURE
     1 RES1 1
     2 RES2 33

@<TRIPOS>CRYSIN
   9.0421   11.8022   12.7011  67.3230  89.6300  89.9250   2 1

