# MOL2 file generated by ConQuest
# Please check atom types

@<TRIPOS>MOLECULE
ALUZUE
    33    35     1
SMALL
NO_CHARGES
****
Generated from CSD

@<TRIPOS>ATOM
      1 N1         0.1723    9.6699   10.3438 N.pl3     1 RES1    0.0000
      2 O1        -3.0450    1.7688   10.2806 O.3       1 RES1    0.0000
      3 O2        -2.1391    2.2319    5.6445 O.3       1 RES1    0.0000
      4 H1        -1.6155    2.6556    5.1407 H         1 RES1    0.0000
      5 O3        -0.7181    4.2954    4.9589 O.2       1 RES1    0.0000
      6 O4        -1.1914    6.1924    5.9026 O.3       1 RES1    0.0000
      7 O5        -0.2300   10.6658    9.8030 O.2       1 RES1    0.0000
      8 O6         0.9351    9.6774   11.2952 O.2       1 RES1    0.0000
      9 C1        -3.6639    0.5058   10.0395 C.3       1 RES1    0.0000
     10 H2        -4.4652    0.6348    9.4902 H         1 RES1    0.0000
     11 H3        -3.9156    0.0954   10.8938 H         1 RES1    0.0000
     12 H4        -3.0358   -0.0830    9.5688 H         1 RES1    0.0000
     13 C2        -2.5905    2.4717    9.2013 C.ar      1 RES1    0.0000
     14 C3        -2.6418    1.9995    7.9009 C.ar      1 RES1    0.0000
     15 H5        -3.0158    1.1452    7.7122 H         1 RES1    0.0000
     16 C4        -2.1351    2.7958    6.8710 C.ar      1 RES1    0.0000
     17 C5        -1.6647    4.1128    7.1175 C.ar      1 RES1    0.0000
     18 C6        -1.6174    4.5551    8.4795 C.ar      1 RES1    0.0000
     19 C7        -2.0658    3.7261    9.4817 C.ar      1 RES1    0.0000
     20 H6        -2.0153    4.0165   10.3846 H         1 RES1    0.0000
     21 C8        -1.1761    4.8605    5.9527 C.2       1 RES1    0.0000
     22 C9        -2.0175    6.9385    6.8548 C.3       1 RES1    0.0000
     23 H7        -2.8851    6.4771    6.9750 H         1 RES1    0.0000
     24 H8        -2.1977    7.8463    6.4989 H         1 RES1    0.0000
     25 C10       -1.3287    7.0459    8.1598 C.ar      1 RES1    0.0000
     26 C11       -1.0890    5.8908    8.9124 C.ar      1 RES1    0.0000
     27 C12       -0.9150    8.2849    8.6320 C.ar      1 RES1    0.0000
     28 H9        -1.0849    9.0745    8.1351 H         1 RES1    0.0000
     29 C13       -0.2480    8.3388    9.8454 C.ar      1 RES1    0.0000
     30 C14        0.0246    7.2190   10.5988 C.ar      1 RES1    0.0000
     31 H10        0.4923    7.2862   11.4223 H         1 RES1    0.0000
     32 C15       -0.3996    5.9920   10.1250 C.ar      1 RES1    0.0000
     33 H11       -0.2207    5.2074   10.6296 H         1 RES1    0.0000
@<TRIPOS>BOND
     1    1    7 2
     2    2    9 1
     3    3    4 1
     4    5   21 2
     5    6   21 1
     6    8    1 2
     7    9   10 1
     8   11    9 1
     9   12    9 1
    10   13    2 1
    11   14   13 ar
    12   15   14 1
    13   16    3 1
    14   17   16 ar
    15   18   17 ar
    16   19   13 ar
    17   20   19 1
    18   21   17 1
    19   22    6 1
    20   23   22 1
    21   24   22 1
    22   25   22 1
    23   26   18 1
    24   27   25 ar
    25   28   27 1
    26   29    1 1
    27   30   29 ar
    28   31   30 1
    29   32   26 ar
    30   33   32 1
    31   14   16 ar
    32   18   19 ar
    33   25   26 ar
    34   27   29 ar
    35   30   32 ar
@<TRIPOS>SUBSTRUCTURE
     1 RES1 1

@<TRIPOS>CRYSIN
   4.0312   41.4930    7.9266  90.0000 103.6190  90.0000  14 1

