# MOL2 file generated by ConQuest
# Please check atom types

@<TRIPOS>MOLECULE
AMATAL
    72    77     1
SMALL
NO_CHARGES
****
Generated from CSD

@<TRIPOS>ATOM
      1 O1        -4.0877    7.1625    8.0292 O.3       1 RES1    0.0000
      2 O2        -3.0544    9.4865    7.1242 O.2       1 RES1    0.0000
      3 O3        -2.8228    9.8505    4.4892 O.3       1 RES1    0.0000
      4 O4        -5.0736    8.0453    1.6994 O.2       1 RES1    0.0000
      5 O5        -5.9448    5.5149    4.7260 O.3       1 RES1    0.0000
      6 O6        -1.5053    4.9777    5.9479 O.2       1 RES1    0.0000
      7 O7        -0.8547    5.9715    4.0065 O.3       1 RES1    0.0000
      8 N1        -2.9543    6.2456    4.7312 N.am      1 RES1    0.0000
      9 N2        -3.4492    7.2454    6.7833 N.am      1 RES1    0.0000
     10 N3        -2.6054    8.5523    5.0539 N.am      1 RES1    0.0000
     11 C1         0.5809    5.5379    4.1027 C.3       1 RES1    0.0000
     12 C2        -1.6845    5.6809    4.9876 C.2       1 RES1    0.0000
     13 C3        -3.9041    6.2501    5.8125 C.3       1 RES1    0.0000
     14 H1        -4.0007    5.3625    6.2172 H         1 RES1    0.0000
     15 C4        -3.0822    8.5290    6.3903 C.2       1 RES1    0.0000
     16 C5         1.1218    6.0265    2.7690 C.3       1 RES1    0.0000
     17 H2         1.0785    6.9847    2.7378 H         1 RES1    0.0000
     18 H3         0.5942    5.6584    2.0559 H         1 RES1    0.0000
     19 H4         2.0334    5.7436    2.6714 H         1 RES1    0.0000
     20 C6         1.2079    6.2482    5.2543 C.3       1 RES1    0.0000
     21 H5         1.1365    7.1957    5.1242 H         1 RES1    0.0000
     22 H6         2.1344    6.0027    5.3155 H         1 RES1    0.0000
     23 H7         0.7578    6.0013    6.0663 H         1 RES1    0.0000
     24 C7        -3.1389    7.5491    4.1106 C.3       1 RES1    0.0000
     25 H8        -2.6911    7.5994    3.2413 H         1 RES1    0.0000
     26 C8        -4.6900    7.6133    3.9583 C.3       1 RES1    0.0000
     27 H9        -4.9891    8.5332    4.1197 H         1 RES1    0.0000
     28 C9        -5.0897    7.2125    2.6063 C.2       1 RES1    0.0000
     29 C10        0.6583    4.0118    4.1925 C.3       1 RES1    0.0000
     30 H10        0.3327    3.7246    5.0487 H         1 RES1    0.0000
     31 H11        1.5698    3.7305    4.0858 H         1 RES1    0.0000
     32 H12        0.1205    3.6223    3.4990 H         1 RES1    0.0000
     33 C11       -5.4809    5.8299    2.3591 C.ar      1 RES1    0.0000
     34 C12       -5.5176    5.2888    1.0722 C.ar      1 RES1    0.0000
     35 H13       -5.2895    5.8163    0.3409 H         1 RES1    0.0000
     36 C13       -5.8898    3.9686    0.8809 C.ar      1 RES1    0.0000
     37 H14       -5.9212    3.6080    0.0247 H         1 RES1    0.0000
     38 C14       -6.2192    3.1892    1.9896 C.ar      1 RES1    0.0000
     39 H15       -6.4675    2.3017    1.8620 H         1 RES1    0.0000
     40 C15       -6.1862    3.6876    3.2348 C.ar      1 RES1    0.0000
     41 H16       -6.3947    3.1480    3.9635 H         1 RES1    0.0000
     42 C16       -5.8343    5.0280    3.4261 C.ar      1 RES1    0.0000
     43 C17       -5.1919    6.7026    5.1229 C.3       1 RES1    0.0000
     44 H17       -5.7266    7.2354    5.7462 H         1 RES1    0.0000
     45 C18       -3.1872    6.4741    8.9342 C.3       1 RES1    0.0000
     46 H18       -2.3953    7.0116    9.0903 H         1 RES1    0.0000
     47 H19       -2.9138    5.6256    8.5529 H         1 RES1    0.0000
     48 C19       -3.9224    6.2512   10.2185 C.ar      1 RES1    0.0000
     49 C20       -3.7501    5.0844   10.8873 C.ar      1 RES1    0.0000
     50 H20       -3.1963    4.4339   10.5191 H         1 RES1    0.0000
     51 C21       -4.3528    4.8328   12.0675 C.ar      1 RES1    0.0000
     52 H21       -4.1654    4.0499   12.5347 H         1 RES1    0.0000
     53 C22       -5.2366    5.7376   12.5646 C.ar      1 RES1    0.0000
     54 H22       -5.7154    5.5458   13.3388 H         1 RES1    0.0000
     55 C23       -5.4164    6.9110   11.9309 C.ar      1 RES1    0.0000
     56 H23       -5.9864    7.5510   12.2926 H         1 RES1    0.0000
     57 C24       -4.7589    7.1676   10.7468 C.ar      1 RES1    0.0000
     58 H24       -4.8930    7.9782   10.3096 H         1 RES1    0.0000
     59 C25       -1.6251   10.6690    4.5933 C.3       1 RES1    0.0000
     60 H25       -1.2897   10.6150    5.5029 H         1 RES1    0.0000
     61 H26       -1.8633   11.5928    4.4228 H         1 RES1    0.0000
     62 C26       -0.5044   10.2648    3.6330 C.ar      1 RES1    0.0000
     63 C27        0.7946   10.0757    4.1132 C.ar      1 RES1    0.0000
     64 H27        0.9712   10.1465    5.0240 H         1 RES1    0.0000
     65 C28        1.7993    9.7880    3.2452 C.ar      1 RES1    0.0000
     66 H28        2.6602    9.6621    3.5731 H         1 RES1    0.0000
     67 C29        1.5771    9.6798    1.9102 C.ar      1 RES1    0.0000
     68 H29        2.2836    9.4991    1.3324 H         1 RES1    0.0000
     69 C30        0.2970    9.8391    1.4118 C.ar      1 RES1    0.0000
     70 H30        0.1266    9.7557    0.5010 H         1 RES1    0.0000
     71 C31       -0.7277   10.1260    2.3032 C.ar      1 RES1    0.0000
     72 H31       -1.5934   10.2270    1.9792 H         1 RES1    0.0000
@<TRIPOS>BOND
     1    1    9 1
     2    2   15 2
     3    3   10 1
     4    4   28 2
     5    5   42 1
     6    6   12 2
     7    7   11 1
     8    8   12 1
     9    9   13 1
    10   10   15 1
    11   11   16 1
    12   12    7 1
    13   13    8 1
    14   14   13 1
    15   15    9 1
    16   16   17 1
    17   18   16 1
    18   19   16 1
    19   20   11 1
    20   21   20 1
    21   22   20 1
    22   23   20 1
    23   24    8 1
    24   25   24 1
    25   26   24 1
    26   27   26 1
    27   28   26 1
    28   29   11 1
    29   30   29 1
    30   31   29 1
    31   32   29 1
    32   33   28 1
    33   34   33 ar
    34   35   34 1
    35   36   34 ar
    36   37   36 1
    37   38   36 ar
    38   39   38 1
    39   40   38 ar
    40   41   40 1
    41   42   33 ar
    42   43    5 1
    43   44   43 1
    44   45    1 1
    45   46   45 1
    46   47   45 1
    47   48   45 1
    48   49   48 ar
    49   50   49 1
    50   51   49 ar
    51   52   51 1
    52   53   51 ar
    53   54   53 1
    54   55   53 ar
    55   56   55 1
    56   57   48 ar
    57   58   57 1
    58   59    3 1
    59   60   59 1
    60   61   59 1
    61   62   59 1
    62   63   62 ar
    63   64   63 1
    64   65   63 ar
    65   66   65 1
    66   67   65 ar
    67   68   67 1
    68   69   67 ar
    69   70   69 1
    70   71   62 ar
    71   72   71 1
    72   10   24 1
    73   13   43 1
    74   26   43 1
    75   40   42 ar
    76   55   57 ar
    77   69   71 ar
@<TRIPOS>SUBSTRUCTURE
     1 RES1 1

@<TRIPOS>CRYSIN
  10.6590   11.1190   13.5050  95.3060 102.1750 107.8000   2 1

