# MOL2 file generated by ConQuest
# Please check atom types

@<TRIPOS>MOLECULE
AMELIO
    29    30     1
SMALL
NO_CHARGES
****
Generated from CSD

@<TRIPOS>ATOM
      1 O1         3.3838    1.1630    1.4674 O.2       1 RES1    0.0000
      2 O2         3.6535    1.9929    3.9193 O.3       1 RES1    0.0000
      3 H1         3.2217    1.8066    3.1283 H         1 RES1    0.0000
      4 N1         4.4116    0.3786    1.7297 N.pl3     1 RES1    0.0000
      5 C1         5.0107    2.0138    3.4765 C.3       1 RES1    0.0000
      6 C2         5.8570    2.1336    4.7382 C.3       1 RES1    0.0000
      7 H2         5.6098    2.9286    5.2152 H         1 RES1    0.0000
      8 H3         6.7854    2.1806    4.4980 H         1 RES1    0.0000
      9 H4         5.7090    1.3665    5.2973 H         1 RES1    0.0000
     10 C3         5.2986    0.7193    2.7201 C.ar      1 RES1    0.0000
     11 C4         6.3765   -0.1129    2.9448 C.ar      1 RES1    0.0000
     12 H5         6.9881    0.1050    3.6100 H         1 RES1    0.0000
     13 C5         6.5668   -1.2645    2.2012 C.ar      1 RES1    0.0000
     14 H6         7.3015   -1.8124    2.3568 H         1 RES1    0.0000
     15 C6         5.6443   -1.5827    1.2246 C.ar      1 RES1    0.0000
     16 H7         5.7492   -2.3561    0.7186 H         1 RES1    0.0000
     17 C7         4.5725   -0.7556    1.0023 C.ar      1 RES1    0.0000
     18 H8         3.9502   -0.9738    0.3467 H         1 RES1    0.0000
     19 C8         5.2984    3.2107    2.5625 C.ar      1 RES1    0.0000
     20 C9         4.4200    4.2826    2.4679 C.ar      1 RES1    0.0000
     21 H9         3.6232    4.2706    2.9470 H         1 RES1    0.0000
     22 C10        4.7248    5.3730    1.6610 C.ar      1 RES1    0.0000
     23 H10        4.1323    6.0874    1.6078 H         1 RES1    0.0000
     24 C11        5.8978    5.4015    0.9402 C.ar      1 RES1    0.0000
     25 H11        6.0889    6.1247    0.3877 H         1 RES1    0.0000
     26 C12        6.7889    4.3508    1.0412 C.ar      1 RES1    0.0000
     27 H12        7.5891    4.3728    0.5690 H         1 RES1    0.0000
     28 C13        6.4899    3.2627    1.8467 C.ar      1 RES1    0.0000
     29 H13        7.0942    2.5589    1.9096 H         1 RES1    0.0000
@<TRIPOS>BOND
     1    1    4 1
     2    2    3 1
     3    4   10 ar
     4    5    2 1
     5    6    5 1
     6    7    6 1
     7    8    6 1
     8    9    6 1
     9   10    5 1
    10   11   10 ar
    11   12   11 1
    12   13   11 ar
    13   14   13 1
    14   15   13 ar
    15   16   15 1
    16   17    4 ar
    17   18   17 1
    18   19    5 1
    19   20   19 ar
    20   21   20 1
    21   22   20 ar
    22   23   22 1
    23   24   22 ar
    24   25   24 1
    25   26   24 ar
    26   27   26 1
    27   28   19 ar
    28   29   28 1
    29   15   17 ar
    30   26   28 ar
@<TRIPOS>SUBSTRUCTURE
     1 RES1 1

@<TRIPOS>CRYSIN
   5.7416   14.3841   13.2821  90.0000  94.9175  90.0000 231 1

