# MOL2 file generated by ConQuest
# Please check atom types

@<TRIPOS>MOLECULE
AMEOIN
    50    52     2
SMALL
NO_CHARGES
****
Generated from CSD

@<TRIPOS>ATOM
      1 O1         6.0613    7.9007    7.0380 O.3       1 RES1    0.0000
      2 O2         9.2741    3.0371    7.8625 O.2       1 RES1    0.0000
      3 N1         6.9774    6.8370    6.9995 N.pl3     1 RES1    0.0000
      4 C1         6.9146    5.7743    7.8387 C.2       1 RES1    0.0000
      5 C2         7.9608    4.9407    7.5279 C.2       1 RES1    0.0000
      6 C3         8.6872    5.5842    6.4585 C.ar      1 RES1    0.0000
      7 C4         9.8494    5.2701    5.7316 C.ar      1 RES1    0.0000
      8 C5        10.2991    6.1638    4.7835 C.ar      1 RES1    0.0000
      9 C6         9.6228    7.3532    4.5340 C.ar      1 RES1    0.0000
     10 C7         8.4912    7.7002    5.2031 C.ar      1 RES1    0.0000
     11 C8         8.0528    6.7702    6.1376 C.ar      1 RES1    0.0000
     12 C9         4.9177    7.6515    6.1466 C.3       1 RES1    0.0000
     13 C10        8.3028    3.6975    8.2050 C.2       1 RES1    0.0000
     14 C11        7.3970    3.2441    9.3345 C.3       1 RES1    0.0000
     15 H1         6.2427    5.6529    8.5611 H         1 RES1    0.0000
     16 H2        10.3436    4.4262    5.9028 H         1 RES1    0.0000
     17 H3        11.1563    5.9637    4.2652 H         1 RES1    0.0000
     18 H4         9.9428    7.9484    3.8161 H         1 RES1    0.0000
     19 H5         8.0061    8.5387    5.0330 H         1 RES1    0.0000
     20 H6         4.5145    6.9077    6.4494 H         1 RES1    0.0000
     21 H7         4.2830    8.4240    6.1750 H         1 RES1    0.0000
     22 H8         5.2352    7.5155    5.2088 H         1 RES1    0.0000
     23 H9         7.8916    2.6678    9.8562 H         1 RES1    0.0000
     24 H10        7.1130    4.0332    9.8516 H         1 RES1    0.0000
     25 H11        6.6183    2.7725    8.9398 H         1 RES1    0.0000
     26 O3         0.5538    9.6957    8.1948 O.3       2 RES2    0.0000
     27 O4         4.8768    6.3685   10.3699 O.2       2 RES2    0.0000
     28 N2         1.6451    9.1662    8.8571 N.pl3     2 RES2    0.0000
     29 C12        1.9407    7.8309    8.8752 C.2       2 RES2    0.0000
     30 C13        3.1360    7.6818    9.5488 C.2       2 RES2    0.0000
     31 C14        3.5662    8.9906    9.9492 C.ar      2 RES2    0.0000
     32 C15        4.6725    9.5013   10.6478 C.ar      2 RES2    0.0000
     33 C16        4.7767   10.8673   10.8666 C.ar      2 RES2    0.0000
     34 C17        3.7703   11.7212   10.4232 C.ar      2 RES2    0.0000
     35 C18        2.6642   11.2850    9.7133 C.ar      2 RES2    0.0000
     36 C19        2.5926    9.8977    9.5046 C.ar      2 RES2    0.0000
     37 C20       -0.5787    9.7728    9.1043 C.3       2 RES2    0.0000
     38 C21        3.7983    6.4235    9.7938 C.2       2 RES2    0.0000
     39 C22        3.1707    5.1532    9.2993 C.3       2 RES2    0.0000
     40 H12        1.4070    7.1208    8.4511 H         2 RES2    0.0000
     41 H13        5.3836    8.8935   10.9846 H         2 RES2    0.0000
     42 H14        5.5777   11.2311   11.3339 H         2 RES2    0.0000
     43 H15        3.8663   12.7026   10.6444 H         2 RES2    0.0000
     44 H16        1.9863   11.9202    9.3606 H         2 RES2    0.0000
     45 H17       -1.0442    8.7826    9.2075 H         2 RES2    0.0000
     46 H18       -1.1976   10.0614   10.0161 H         2 RES2    0.0000
     47 H19       -1.2563   10.4119    8.7663 H         2 RES2    0.0000
     48 H20        3.7861    4.3611    9.4649 H         2 RES2    0.0000
     49 H21        2.2850    4.9973    9.5613 H         2 RES2    0.0000
     50 H22        3.1768    5.2081    8.2084 H         2 RES2    0.0000
@<TRIPOS>BOND
     1    1    3 1
     2    2   13 2
     3    3    4 1
     4    4    5 2
     5    5    6 1
     6    6    7 ar
     7    7    8 ar
     8    8    9 ar
     9    9   10 ar
    10   10   11 ar
    11   11    3 1
    12   12    1 1
    13   13    5 1
    14   14   13 1
    15   15    4 1
    16   16    7 1
    17   17    8 1
    18   18    9 1
    19   19   10 1
    20   20   12 1
    21   21   12 1
    22   22   12 1
    23   23   14 1
    24   24   14 1
    25   25   14 1
    26   26   28 1
    27   27   38 2
    28   28   29 1
    29   29   30 2
    30   30   31 1
    31   31   32 ar
    32   32   33 ar
    33   33   34 ar
    34   34   35 ar
    35   35   36 ar
    36   36   28 1
    37   37   26 1
    38   38   30 1
    39   39   38 1
    40   40   29 1
    41   41   32 1
    42   42   33 1
    43   43   34 1
    44   44   35 1
    45   45   37 1
    46   46   37 1
    47   47   37 1
    48   48   39 1
    49   49   39 1
    50   50   39 1
    51    6   11 ar
    52   31   36 ar
@<TRIPOS>SUBSTRUCTURE
     1 RES1 1
     2 RES2 26

@<TRIPOS>CRYSIN
   8.3500   10.3900   11.5800  98.5000  97.6800  91.6900   2 1

