# MOL2 file generated by ConQuest
# Please check atom types

@<TRIPOS>MOLECULE
AMFURZ
    24    24     2
SMALL
NO_CHARGES
****
Generated from CSD

@<TRIPOS>ATOM
      1 C1         7.2564    5.6413    7.8268 C.2       1 RES1    0.0000
      2 C2         6.2874    6.4325    7.1448 C.2       1 RES1    0.0000
      3 C3         8.3237    6.1173    8.7476 C.3       1 RES1    0.0000
      4 N1         7.0711    4.4083    7.5264 N.2       1 RES1    0.0000
      5 N2         5.5197    5.6679    6.4275 N.2       1 RES1    0.0000
      6 N3         6.1369    7.7603    7.2203 N.3       1 RES1    0.0000
      7 O1         6.0037    4.3699    6.6524 O.3       1 RES1    0.0000
      8 H1         8.8779    5.4518    9.1341 H         1 RES1    0.0000
      9 H2         8.8374    6.8573    8.3709 H         1 RES1    0.0000
     10 H3         7.9261    6.5272    9.5444 H         1 RES1    0.0000
     11 H4         6.7697    8.2841    7.5666 H         1 RES1    0.0000
     12 H5         5.4879    8.1990    6.8444 H         1 RES1    0.0000
     13 C4         9.5968    0.9434    0.9741 C.2       2 RES2    0.0000
     14 C5         8.5148    0.4813    0.1543 C.2       2 RES2    0.0000
     15 C6        10.0447    2.3447    1.1736 C.3       2 RES2    0.0000
     16 N4        10.1726   -0.0735    1.5289 N.2       2 RES2    0.0000
     17 N5         8.4478   -0.8114    0.2249 N.2       2 RES2    0.0000
     18 N6         7.7212    1.2437   -0.6171 N.3       2 RES2    0.0000
     19 O2         9.4800   -1.1894    1.1013 O.3       2 RES2    0.0000
     20 H6        10.7855    2.4064    1.7644 H         2 RES2    0.0000
     21 H7        10.2544    2.6833    0.2462 H         2 RES2    0.0000
     22 H8         9.3788    2.9388    1.5921 H         2 RES2    0.0000
     23 H9         7.7190    2.0870   -0.4103 H         2 RES2    0.0000
     24 H10        7.0087    0.8305   -0.9274 H         2 RES2    0.0000
@<TRIPOS>BOND
     1    1    2 1
     2    2    5 2
     3    3    1 1
     4    4    1 2
     5    5    7 1
     6    6    2 1
     7    7    4 1
     8    8    3 1
     9    9    3 1
    10   10    3 1
    11   11    6 1
    12   12    6 1
    13   13   14 1
    14   14   17 2
    15   15   13 1
    16   16   13 2
    17   17   19 1
    18   18   14 1
    19   19   16 1
    20   20   15 1
    21   21   15 1
    22   22   15 1
    23   23   18 1
    24   24   18 1
@<TRIPOS>SUBSTRUCTURE
     1 RES1 1
     2 RES2 13

@<TRIPOS>CRYSIN
  10.9680   10.6480    8.2160  90.0000  92.7200  90.0000  14 1

