# MOL2 file generated by ConQuest
# Please check atom types

@<TRIPOS>MOLECULE
AMIKUD
    48    52     1
SMALL
NO_CHARGES
****
Generated from CSD

@<TRIPOS>ATOM
      1 C1         4.4412    3.9404    6.1208 C.2       1 RES1    0.0000
      2 C2         3.5830    4.5484    7.0769 C.2       1 RES1    0.0000
      3 C3         3.3845    5.9936    7.1087 C.2       1 RES1    0.0000
      4 C4         1.8917    5.9616    9.0882 C.3       1 RES1    0.0000
      5 H1         1.4751    5.1421    8.8115 H         1 RES1    0.0000
      6 H2         1.2282    6.5470    9.4603 H         1 RES1    0.0000
      7 H3         2.5596    5.7727    9.7517 H         1 RES1    0.0000
      8 C5         2.1947    8.0056    7.7759 C.3       1 RES1    0.0000
      9 H4         2.8942    8.5397    8.1603 H         1 RES1    0.0000
     10 H5         1.3636    8.2039    8.2129 H         1 RES1    0.0000
     11 H6         2.1190    8.2040    6.8394 H         1 RES1    0.0000
     12 C6         4.1572    6.6617    6.1967 C.2       1 RES1    0.0000
     13 H7         4.1123    7.5903    6.1832 H         1 RES1    0.0000
     14 C7         5.0187    6.0283    5.2737 C.2       1 RES1    0.0000
     15 H8         5.4928    6.5738    4.6885 H         1 RES1    0.0000
     16 C8         5.2142    4.6743    5.1709 C.2       1 RES1    0.0000
     17 C9         6.0752    4.0787    4.1328 C.ar      1 RES1    0.0000
     18 C10        6.8636    4.8560    3.3003 C.ar      1 RES1    0.0000
     19 H9         6.8557    5.7805    3.3970 H         1 RES1    0.0000
     20 C11        7.6657    4.2815    2.3247 C.ar      1 RES1    0.0000
     21 C12        8.5017    5.1094    1.4286 C.ar      1 RES1    0.0000
     22 C13        9.0204    7.2201    0.6929 C.ar      1 RES1    0.0000
     23 H10        8.9009    8.1416    0.7480 H         1 RES1    0.0000
     24 C14        9.9107    6.7457   -0.2289 C.ar      1 RES1    0.0000
     25 H11       10.3655    7.3227   -0.7982 H         1 RES1    0.0000
     26 C15       10.1104    5.4040   -0.2852 C.ar      1 RES1    0.0000
     27 H12       10.7252    5.0477   -0.8851 H         1 RES1    0.0000
     28 C16        9.4013    4.5816    0.5423 C.ar      1 RES1    0.0000
     29 H13        9.5300    3.6618    0.5044 H         1 RES1    0.0000
     30 C17        7.9428    0.1471    1.8815 C.ar      1 RES1    0.0000
     31 H14        8.6538    0.6579    1.5669 H         1 RES1    0.0000
     32 C18        7.8798   -1.2055    1.5914 C.ar      1 RES1    0.0000
     33 H15        8.5412   -1.6149    1.0834 H         1 RES1    0.0000
     34 C19        6.8248   -1.9208    2.0688 C.ar      1 RES1    0.0000
     35 H16        6.7402   -2.8271    1.8803 H         1 RES1    0.0000
     36 C20        5.8869   -1.2728    2.8339 C.ar      1 RES1    0.0000
     37 H17        5.1808   -1.7743    3.1730 H         1 RES1    0.0000
     38 C21        6.9541    0.7311    2.6356 C.ar      1 RES1    0.0000
     39 C22        6.9535    2.2021    2.9331 C.ar      1 RES1    0.0000
     40 C23        6.1396    2.7047    3.9308 C.ar      1 RES1    0.0000
     41 H18        5.6390    2.1289    4.4633 H         1 RES1    0.0000
     42 N1         4.3935    2.6122    6.2848 N.2       1 RES1    0.0000
     43 N2         2.9970    3.6346    7.8150 N.2       1 RES1    0.0000
     44 N3         2.5104    6.5974    7.9485 N.3       1 RES1    0.0000
     45 N4         8.3093    6.4448    1.5204 N.ar      1 RES1    0.0000
     46 N5         7.7450    2.9502    2.1557 N.ar      1 RES1    0.0000
     47 N6         5.9237    0.0343    3.1265 N.ar      1 RES1    0.0000
     48 O1         3.5050    2.4457    7.3415 O.3       1 RES1    0.0000
@<TRIPOS>BOND
     1    1    2 1
     2    2    3 1
     3    3   12 2
     4    4    5 1
     5    6    4 1
     6    7    4 1
     7    8    9 1
     8   10    8 1
     9   11    8 1
    10   12   13 1
    11   14   12 1
    12   15   14 1
    13   16    1 1
    14   17   16 1
    15   18   17 ar
    16   19   18 1
    17   20   18 ar
    18   21   20 1
    19   22   23 1
    20   24   22 ar
    21   25   24 1
    22   26   24 ar
    23   27   26 1
    24   28   21 ar
    25   29   28 1
    26   30   31 1
    27   32   30 ar
    28   33   32 1
    29   34   32 ar
    30   35   34 1
    31   36   34 ar
    32   37   36 1
    33   38   30 ar
    34   39   38 1
    35   40   17 ar
    36   41   40 1
    37   42    1 2
    38   43    2 2
    39   44    3 1
    40   45   21 ar
    41   46   20 ar
    42   47   36 ar
    43   48   42 1
    44    4   44 1
    45    8   44 1
    46   14   16 2
    47   22   45 ar
    48   26   28 ar
    49   38   47 ar
    50   39   40 ar
    51   39   46 ar
    52   43   48 1
@<TRIPOS>SUBSTRUCTURE
     1 RES1 1

@<TRIPOS>CRYSIN
   8.7846    9.1746   12.3610  90.6930  97.3460 107.7510   2 1

