# MOL2 file generated by ConQuest
# Please check atom types

@<TRIPOS>MOLECULE
AMIXPO
    25    26     1
SMALL
NO_CHARGES
****
Generated from CSD

@<TRIPOS>ATOM
      1 N1        -1.5273    6.0479   13.0070 N.ar      1 RES1    0.0000
      2 C1        -1.0399    5.0715   12.2152 C.ar      1 RES1    0.0000
      3 C2        -1.1075    3.7281   12.3904 C.ar      1 RES1    0.0000
      4 C3        -1.7668    3.1989   13.5240 C.ar      1 RES1    0.0000
      5 C4        -2.2710    4.1839   14.3657 C.ar      1 RES1    0.0000
      6 C5        -2.1570    5.5187   14.1037 C.ar      1 RES1    0.0000
      7 N2        -0.2919    5.3600   11.0246 N.am      1 RES1    0.0000
      8 C6        -0.3848    3.0624   11.2710 C.2       1 RES1    0.0000
      9 O1        -0.1566    1.9562   10.9918 O.2       1 RES1    0.0000
     10 O2         0.0739    4.1207   10.4791 O.3       1 RES1    0.0000
     11 C7        -2.7310    6.5805   15.0123 C.3       1 RES1    0.0000
     12 C8        -1.8500    1.7480   13.7846 C.3       1 RES1    0.0000
     13 C9         0.1992    6.4815   10.4165 C.2       1 RES1    0.0000
     14 O3         0.9622    6.3381    9.4793 O.2       1 RES1    0.0000
     15 C10       -0.1625    7.7822   11.0089 C.3       1 RES1    0.0000
     16 H1        -2.7613    3.8749   15.2772 H         1 RES1    0.0000
     17 H2        -3.2581    5.9643   15.7258 H         1 RES1    0.0000
     18 H3        -3.4234    7.2667   14.5480 H         1 RES1    0.0000
     19 H4        -1.9582    7.1370   15.5207 H         1 RES1    0.0000
     20 H5        -2.4637    1.7821   14.6733 H         1 RES1    0.0000
     21 H6        -0.8760    1.3554   14.0353 H         1 RES1    0.0000
     22 H7        -2.3165    1.1113   13.0483 H         1 RES1    0.0000
     23 H8        -0.9000    7.6235   11.7822 H         1 RES1    0.0000
     24 H9        -0.5812    8.4087   10.2342 H         1 RES1    0.0000
     25 H10        0.7044    8.2670   11.4333 H         1 RES1    0.0000
@<TRIPOS>BOND
     1    1    2 ar
     2    2    3 ar
     3    3    4 ar
     4    4    5 ar
     5    5    6 ar
     6    6    1 ar
     7    7    2 1
     8    8    3 1
     9    9    8 2
    10   10    7 1
    11   11    6 1
    12   12    4 1
    13   13    7 1
    14   14   13 2
    15   15   13 1
    16   16    5 1
    17   17   11 1
    18   18   11 1
    19   19   11 1
    20   20   12 1
    21   21   12 1
    22   22   12 1
    23   23   15 1
    24   24   15 1
    25   25   15 1
    26    8   10 1
@<TRIPOS>SUBSTRUCTURE
     1 RES1 1

@<TRIPOS>CRYSIN
   4.0400   17.0700   14.3300  90.0000  96.3600  90.0000  14 1

