# MOL2 file generated by ConQuest
# Please check atom types

@<TRIPOS>MOLECULE
AMNBOZ
    32    33     1
SMALL
NO_CHARGES
****
Generated from CSD

@<TRIPOS>ATOM
      1 C1        -0.8738   -9.5105    1.1110 C.ar      1 RES1    0.0000
      2 C2         3.6521  -12.8041    0.9666 C.2       1 RES1    0.0000
      3 C3         4.2388  -14.0940    0.4893 C.3       1 RES1    0.0000
      4 C4         1.7226  -12.0904    3.8430 C.3       1 RES1    0.0000
      5 C5         0.3242   -9.9938    1.6047 C.ar      1 RES1    0.0000
      6 C6         0.5127  -11.3484    1.7289 C.ar      1 RES1    0.0000
      7 C7        -0.5051  -12.2359    1.3727 C.ar      1 RES1    0.0000
      8 C8        -1.7063  -11.7002    0.8708 C.ar      1 RES1    0.0000
      9 C9        -1.9127  -10.3435    0.7484 C.ar      1 RES1    0.0000
     10 C10        1.8402  -11.7750    2.3355 C.3       1 RES1    0.0000
     11 C11        0.8202  -14.4397    1.0864 C.3       1 RES1    0.0000
     12 C12       -0.4189  -13.7462    1.5385 C.3       1 RES1    0.0000
     13 H1         4.8043  -14.4963    1.2610 H         1 RES1    0.0000
     14 H2         3.5608  -14.8198    0.3027 H         1 RES1    0.0000
     15 H3         5.2348  -13.9909    0.0063 H         1 RES1    0.0000
     16 H4         1.2708  -11.2412    4.3695 H         1 RES1    0.0000
     17 H5         2.6756  -11.8680    4.1615 H         1 RES1    0.0000
     18 H6         1.2083  -12.9597    4.0227 H         1 RES1    0.0000
     19 H7         1.0319   -9.3812    1.8033 H         1 RES1    0.0000
     20 H8        -2.5728  -12.5149    0.6179 H         1 RES1    0.0000
     21 H9        -2.8798   -9.9675    0.4540 H         1 RES1    0.0000
     22 H10        2.6245  -10.9379    2.5158 H         1 RES1    0.0000
     23 H11        0.7091  -15.6690    1.1286 H         1 RES1    0.0000
     24 H12        1.2068  -14.3952   -0.0252 H         1 RES1    0.0000
     25 H13       -1.4196  -14.1122    1.0656 H         1 RES1    0.0000
     26 H14       -0.5610  -14.0313    2.4464 H         1 RES1    0.0000
     27 N1         2.4521  -12.8930    1.6286 N.am      1 RES1    0.0000
     28 N2        -1.0513   -8.0710    0.9975 N.pl3     1 RES1    0.0000
     29 O1         1.9747  -14.1688    1.8954 O.3       1 RES1    0.0000
     30 O2         4.1850  -11.7062    0.7869 O.2       1 RES1    0.0000
     31 O3        -0.0780   -7.3331    1.2447 O.2       1 RES1    0.0000
     32 O4        -2.1512   -7.6181    0.6803 O.2       1 RES1    0.0000
@<TRIPOS>BOND
     1    1    5 ar
     2    2    3 1
     3    3   13 1
     4    4   10 1
     5    5    6 ar
     6    6    7 ar
     7    7    8 ar
     8    8    9 ar
     9    9    1 ar
    10   10    6 1
    11   11   12 1
    12   12    7 1
    13   14    3 1
    14   15    3 1
    15   16    4 1
    16   17    4 1
    17   18    4 1
    18   19    5 1
    19   20    8 1
    20   21    9 1
    21   22   10 1
    22   23   11 1
    23   24   11 1
    24   25   12 1
    25   26   12 1
    26   27    2 1
    27   28    1 1
    28   29   11 1
    29   30    2 2
    30   31   28 2
    31   32   28 2
    32   10   27 1
    33   27   29 1
@<TRIPOS>SUBSTRUCTURE
     1 RES1 1

@<TRIPOS>CRYSIN
   9.3050   20.2180    7.4350  90.0000 122.0000  90.0000   9 1

