# MOL2 file generated by ConQuest
# Please check atom types

@<TRIPOS>MOLECULE
AMNIFL
    27    29     1
SMALL
NO_CHARGES
****
Generated from CSD

@<TRIPOS>ATOM
      1 C1        -2.0209    0.1960   -3.2406 C.ar      1 RES1    0.0000
      2 C2        -1.2420    0.5993   -2.1505 C.ar      1 RES1    0.0000
      3 C3        -0.0935    1.3656   -2.3750 C.ar      1 RES1    0.0000
      4 C4         0.2956    1.7152   -3.6470 C.ar      1 RES1    0.0000
      5 C5        -0.4793    1.3082   -4.7332 C.ar      1 RES1    0.0000
      6 C6        -0.2964    1.4804   -6.1678 C.ar      1 RES1    0.0000
      7 C7         0.7254    2.0841   -6.8941 C.ar      1 RES1    0.0000
      8 C8         0.6674    2.0759   -8.2745 C.ar      1 RES1    0.0000
      9 C9        -0.3997    1.4669   -8.9040 C.ar      1 RES1    0.0000
     10 C10       -1.4287    0.8460   -8.2048 C.ar      1 RES1    0.0000
     11 C11       -1.3709    0.8624   -6.8335 C.ar      1 RES1    0.0000
     12 C12       -2.3108    0.2475   -5.8259 C.3       1 RES1    0.0000
     13 C13       -1.6416    0.5583   -4.5114 C.ar      1 RES1    0.0000
     14 H1        -2.8737   -0.3280   -3.0575 H         1 RES1    0.0000
     15 H2        -2.3819   -0.0969   -0.7611 H         1 RES1    0.0000
     16 H3        -1.1934    0.7007   -0.1290 H         1 RES1    0.0000
     17 H4         0.4239    1.6622   -1.6255 H         1 RES1    0.0000
     18 H5         1.1375    2.2362   -3.8057 H         1 RES1    0.0000
     19 H6         1.4730    2.5045   -6.4245 H         1 RES1    0.0000
     20 H7         1.3571    2.5045   -8.8240 H         1 RES1    0.0000
     21 H8        -2.1431    0.4249   -8.6950 H         1 RES1    0.0000
     22 H9        -2.3820   -0.7379   -5.9601 H         1 RES1    0.0000
     23 H10       -3.2171    0.6261   -5.8956 H         1 RES1    0.0000
     24 N1        -1.5864    0.2177   -0.8631 N.pl3     1 RES1    0.0000
     25 N2        -0.4429    1.4371  -10.3605 N.pl3     1 RES1    0.0000
     26 O1        -1.3344    0.7916  -10.9126 O.2       1 RES1    0.0000
     27 O2         0.4111    2.0588  -10.9862 O.2       1 RES1    0.0000
@<TRIPOS>BOND
     1    1    2 ar
     2    2    3 ar
     3    3    4 ar
     4    4    5 ar
     5    5    6 1
     6    6    7 ar
     7    7    8 ar
     8    8    9 ar
     9    9   10 ar
    10   10   11 ar
    11   11    6 ar
    12   12   11 1
    13   13    1 ar
    14   14    1 1
    15   15   24 1
    16   16   24 1
    17   17    3 1
    18   18    4 1
    19   19    7 1
    20   20    8 1
    21   21   10 1
    22   22   12 1
    23   23   12 1
    24   24    2 1
    25   25    9 1
    26   26   25 2
    27   27   25 2
    28    5   13 ar
    29   12   13 1
@<TRIPOS>SUBSTRUCTURE
     1 RES1 1

@<TRIPOS>CRYSIN
  10.7650    7.4540   12.9590  90.0000  95.4400  90.0000 231 1

