# MOL2 file generated by ConQuest
# Please check atom types

@<TRIPOS>MOLECULE
AMNPHA
    17    17     1
SMALL
NO_CHARGES
****
Generated from CSD

@<TRIPOS>ATOM
      1 O1         3.9589   -2.9903    0.4339 O.3       1 RES1    0.0000
      2 O2         0.0544   -0.1716   -3.0455 O.2       1 RES1    0.0000
      3 O3         0.9606   -2.0608   -3.5201 O.2       1 RES1    0.0000
      4 N1         3.6826   -0.8489    2.0451 N.3       1 RES1    0.0000
      5 N2         0.8255   -1.0919   -2.7893 N.pl3     1 RES1    0.0000
      6 C1         3.1502   -1.9956   -0.0230 C.ar      1 RES1    0.0000
      7 C2         3.0240   -0.8655    0.8064 C.ar      1 RES1    0.0000
      8 C3         2.2006    0.1768    0.4080 C.ar      1 RES1    0.0000
      9 C4         1.4949    0.1106   -0.7819 C.ar      1 RES1    0.0000
     10 C5         1.6112   -1.0133   -1.5601 C.ar      1 RES1    0.0000
     11 C6         2.4285   -2.0690   -1.2092 C.ar      1 RES1    0.0000
     12 H1         4.3322   -3.4639   -0.2444 H         1 RES1    0.0000
     13 H2         4.3497   -1.3856    2.0437 H         1 RES1    0.0000
     14 H3         3.9596   -0.0310    2.4805 H         1 RES1    0.0000
     15 H4         2.1512    0.9720    0.9478 H         1 RES1    0.0000
     16 H5         0.8761    0.7962   -1.0589 H         1 RES1    0.0000
     17 H6         2.5069   -2.8021   -1.7771 H         1 RES1    0.0000
@<TRIPOS>BOND
     1    1    6 1
     2    2    5 2
     3    3    5 2
     4    4    7 1
     5    5   10 1
     6    6    7 ar
     7    7    8 ar
     8    8    9 ar
     9    9   10 ar
    10   10   11 ar
    11   11    6 ar
    12   12    1 1
    13   13    4 1
    14   14    4 1
    15   15    8 1
    16   16    9 1
    17   17   11 1
@<TRIPOS>SUBSTRUCTURE
     1 RES1 1

@<TRIPOS>CRYSIN
   8.4900   10.3400    8.0500  90.0000 113.1000  90.0000  14 1

