# MOL2 file generated by ConQuest
# Please check atom types

@<TRIPOS>MOLECULE
AMNTPY01
    15    15     1
SMALL
NO_CHARGES
****
Generated from CSD

@<TRIPOS>ATOM
      1 N1         2.1943    4.0280   15.9974 N.ar      1 RES1    0.0000
      2 C1         1.5474    2.8378   16.1054 C.ar      1 RES1    0.0000
      3 N2         2.0065    2.0258   17.0549 N.3       1 RES1    0.0000
      4 C2         0.4645    2.5567   15.2291 C.ar      1 RES1    0.0000
      5 N3        -0.2524    1.3110   15.2796 N.pl3     1 RES1    0.0000
      6 O1         0.0296    0.4837   16.1594 O.2       1 RES1    0.0000
      7 O2        -1.1401    1.0958   14.4381 O.2       1 RES1    0.0000
      8 C3         0.0636    3.5033   14.2882 C.ar      1 RES1    0.0000
      9 C4         0.7262    4.6914   14.2011 C.ar      1 RES1    0.0000
     10 C5         1.8012    4.9017   15.0827 C.ar      1 RES1    0.0000
     11 H1         1.5044    1.2936   17.3947 H         1 RES1    0.0000
     12 H2        -0.6889    3.2889   13.6018 H         1 RES1    0.0000
     13 H3         0.4081    5.3653   13.6070 H         1 RES1    0.0000
     14 H4         2.4048    5.7713   14.9695 H         1 RES1    0.0000
     15 H5         2.7410    2.1611   17.5898 H         1 RES1    0.0000
@<TRIPOS>BOND
     1    1    2 ar
     2    2    3 1
     3    3   11 1
     4    4    2 ar
     5    5    4 1
     6    6    5 2
     7    7    5 2
     8    8    4 ar
     9    9    8 ar
    10   10    1 ar
    11   12    8 1
    12   13    9 1
    13   14   10 1
    14   15    3 1
    15    9   10 ar
@<TRIPOS>SUBSTRUCTURE
     1 RES1 1

@<TRIPOS>CRYSIN
   4.9170    6.9400   17.5070  90.0000  95.6300  90.0000  14 1

