# MOL2 file generated by ConQuest
# Please check atom types

@<TRIPOS>MOLECULE
AMNTPY02
    15    15     1
SMALL
NO_CHARGES
****
Generated from CSD

@<TRIPOS>ATOM
      1 N1         1.2049    7.6021   12.2169 N.ar      1 RES1    0.0000
      2 N2         1.0362    5.7408   10.9228 N.3       1 RES1    0.0000
      3 N3        -0.3558    4.3494   13.1418 N.pl3     1 RES1    0.0000
      4 O1        -0.9499    3.8833   14.1149 O.2       1 RES1    0.0000
      5 O2        -0.1571    3.6741   12.1246 O.2       1 RES1    0.0000
      6 C1         0.7770    6.3089   12.1015 C.ar      1 RES1    0.0000
      7 C2         0.1095    5.6962   13.2131 C.ar      1 RES1    0.0000
      8 C3        -0.0760    6.4012   14.3834 C.ar      1 RES1    0.0000
      9 C4         0.3638    7.7108   14.4694 C.ar      1 RES1    0.0000
     10 C5         0.9964    8.2431   13.3641 C.ar      1 RES1    0.0000
     11 H1         0.8006    4.8206   10.9396 H         1 RES1    0.0000
     12 H2         1.5712    6.0379   10.0713 H         1 RES1    0.0000
     13 H3        -0.5846    5.9649   15.0860 H         1 RES1    0.0000
     14 H4         0.3213    8.2141   15.5264 H         1 RES1    0.0000
     15 H5         1.2252    9.2154   13.3976 H         1 RES1    0.0000
@<TRIPOS>BOND
     1    1    6 ar
     2    2    6 1
     3    3    4 2
     4    5    3 2
     5    6    7 ar
     6    7    3 1
     7    8    7 ar
     8    9    8 ar
     9   10    1 ar
    10   11    2 1
    11   12    2 1
    12   13    8 1
    13   14    9 1
    14   15   10 1
    15    9   10 ar
@<TRIPOS>SUBSTRUCTURE
     1 RES1 1

@<TRIPOS>CRYSIN
   3.7370    7.4450   20.9740  90.0000  90.5200  90.0000 231 1

