# MOL2 file generated by ConQuest
# Please check atom types

@<TRIPOS>MOLECULE
AMOTEC
    82    87     1
SMALL
NO_CHARGES
****
Generated from CSD

@<TRIPOS>ATOM
      1 O1        -6.7713    5.6479  -35.5709 O.3       1 RES1    0.0000
      2 O2        -5.1491    5.4094  -34.0343 O.3       1 RES1    0.0000
      3 O3        -6.6291   -0.6295  -35.4116 O.3       1 RES1    0.0000
      4 O4        -4.3915   -0.3896  -35.2799 O.2       1 RES1    0.0000
      5 O5        -6.5566   -2.7150  -36.9251 O.3       1 RES1    0.0000
      6 O6        -7.2738   -4.0785  -38.5609 O.2       1 RES1    0.0000
      7 O7        -9.9034   -2.9795  -32.8484 O.3       1 RES1    0.0000
      8 O8       -10.2969    1.5678  -31.2101 O.3       1 RES1    0.0000
      9 O9        -7.4969    4.4033  -32.6427 O.3       1 RES1    0.0000
     10 N1        -8.2114    3.3299  -32.0090 N.2       1 RES1    0.0000
     11 C1        -6.1383    4.7009  -34.7595 C.3       1 RES1    0.0000
     12 C2        -5.5165    3.6683  -35.7018 C.2       1 RES1    0.0000
     13 H1        -4.7889    3.9625  -36.2376 H         1 RES1    0.0000
     14 C3        -5.8910    2.4068  -35.8478 C.2       1 RES1    0.0000
     15 H2        -5.3723    1.8549  -36.4206 H         1 RES1    0.0000
     16 C4        -7.0910    1.7836  -35.1612 C.3       1 RES1    0.0000
     17 C5        -6.8274    0.4312  -34.4424 C.3       1 RES1    0.0000
     18 H3        -6.0039    0.5169  -33.8798 H         1 RES1    0.0000
     19 C6        -7.9994    0.0015  -33.5464 C.ar      1 RES1    0.0000
     20 C7        -8.4229   -1.3167  -33.5265 C.ar      1 RES1    0.0000
     21 H4        -7.9720   -1.9695  -34.0465 H         1 RES1    0.0000
     22 C8        -9.5145   -1.6835  -32.7383 C.ar      1 RES1    0.0000
     23 C9       -10.1508   -0.7622  -31.9228 C.ar      1 RES1    0.0000
     24 H5       -10.8744   -1.0292  -31.3675 H         1 RES1    0.0000
     25 C10       -9.7129    0.5712  -31.9264 C.ar      1 RES1    0.0000
     26 C11       -8.6375    0.9576  -32.7305 C.ar      1 RES1    0.0000
     27 C12       -8.1638    2.3291  -32.8688 C.2       1 RES1    0.0000
     28 C13       -7.4623    2.6902  -34.0448 C.2       1 RES1    0.0000
     29 C14       -7.0649    3.9469  -33.8526 C.2       1 RES1    0.0000
     30 C15       -7.6640    6.5449  -34.8916 C.3       1 RES1    0.0000
     31 H6        -7.1693    7.3378  -34.5953 H         1 RES1    0.0000
     32 H7        -8.0509    6.0934  -34.1115 H         1 RES1    0.0000
     33 H8        -8.3817    6.8162  -35.5018 H         1 RES1    0.0000
     34 C16       -4.3511    4.6046  -33.1785 C.3       1 RES1    0.0000
     35 H9        -3.5648    4.2864  -33.6684 H         1 RES1    0.0000
     36 H10       -4.8757    3.8373  -32.8675 H         1 RES1    0.0000
     37 H11       -4.0613    5.1355  -32.4082 H         1 RES1    0.0000
     38 C17       -8.2395    1.6172  -36.2002 C.3       1 RES1    0.0000
     39 H12       -7.9752    0.9298  -36.8637 H         1 RES1    0.0000
     40 H13       -9.0486    1.2900  -35.7335 H         1 RES1    0.0000
     41 C18       -8.5762    2.8812  -36.9247 C.2       1 RES1    0.0000
     42 H14       -8.7857    3.6315  -36.3799 H         1 RES1    0.0000
     43 C19       -8.6173    3.0795  -38.2288 C.2       1 RES1    0.0000
     44 C20       -8.9253    4.4549  -38.8024 C.3       1 RES1    0.0000
     45 H15       -8.0901    4.9531  -38.9248 H         1 RES1    0.0000
     46 H16       -9.5100    4.9426  -38.1849 H         1 RES1    0.0000
     47 H17       -9.3749    4.3543  -39.6687 H         1 RES1    0.0000
     48 C21       -8.3570    2.0339  -39.2557 C.3       1 RES1    0.0000
     49 H18       -9.1948    1.5742  -39.4736 H         1 RES1    0.0000
     50 H19       -7.7116    1.3848  -38.9044 H         1 RES1    0.0000
     51 H20       -7.9922    2.4514  -40.0630 H         1 RES1    0.0000
     52 C22       -5.3514   -0.9595  -35.6909 C.2       1 RES1    0.0000
     53 C23       -5.2470   -2.1719  -36.5860 C.3       1 RES1    0.0000
     54 C24       -4.4424   -3.3400  -35.9897 C.3       1 RES1    0.0000
     55 H21       -4.9586   -3.8186  -35.2945 H         1 RES1    0.0000
     56 H22       -3.5837   -3.0315  -35.6075 H         1 RES1    0.0000
     57 C25       -4.2193   -4.2241  -37.2418 C.3       1 RES1    0.0000
     58 H23       -4.6447   -5.1110  -37.1320 H         1 RES1    0.0000
     59 H24       -3.2535   -4.3496  -37.4206 H         1 RES1    0.0000
     60 C26       -4.8972   -3.4212  -38.3861 C.3       1 RES1    0.0000
     61 C27       -6.3674   -3.4889  -38.0475 C.2       1 RES1    0.0000
     62 C28       -4.5442   -3.8888  -39.7785 C.3       1 RES1    0.0000
     63 H25       -5.1857   -4.5718  -40.0671 H         1 RES1    0.0000
     64 H26       -3.6411   -4.2689  -39.7744 H         1 RES1    0.0000
     65 H27       -4.5768   -3.1286  -40.3964 H         1 RES1    0.0000
     66 C29       -4.6088   -1.9371  -37.9820 C.3       1 RES1    0.0000
     67 C30       -3.1295   -1.5812  -37.9450 C.3       1 RES1    0.0000
     68 H28       -2.5951   -2.4023  -37.9857 H         1 RES1    0.0000
     69 H29       -2.9292   -1.1041  -37.1117 H         1 RES1    0.0000
     70 H30       -2.9116   -1.0105  -38.7093 H         1 RES1    0.0000
     71 C31       -5.3768   -0.9270  -38.8215 C.3       1 RES1    0.0000
     72 H31       -5.0304   -0.0269  -38.6483 H         1 RES1    0.0000
     73 H32       -6.3276   -0.9614  -38.5874 H         1 RES1    0.0000
     74 H33       -5.2679   -1.1415  -39.7703 H         1 RES1    0.0000
     75 C32      -11.1922   -3.3356  -32.3338 C.3       1 RES1    0.0000
     76 H34      -11.8656   -3.2303  -33.0383 H         1 RES1    0.0000
     77 H35      -11.4154   -2.7508  -31.5789 H         1 RES1    0.0000
     78 H36      -11.1772   -4.2677  -32.0342 H         1 RES1    0.0000
     79 C33      -11.4943    1.2713  -30.4910 C.3       1 RES1    0.0000
     80 H37      -11.2659    0.9614  -29.5910 H         1 RES1    0.0000
     81 H38      -11.9928    0.5719  -30.9609 H         1 RES1    0.0000
     82 H39      -12.0457    2.0795  -30.4284 H         1 RES1    0.0000
@<TRIPOS>BOND
     1    1   11 1
     2    2   11 1
     3    3   17 1
     4    4   52 2
     5    5   53 1
     6    6   61 2
     7    7   22 1
     8    8   25 1
     9    9   10 1
    10   10   27 2
    11   11   12 1
    12   12   13 1
    13   14   12 2
    14   15   14 1
    15   16   14 1
    16   17   16 1
    17   18   17 1
    18   19   17 1
    19   20   19 ar
    20   21   20 1
    21   22   20 ar
    22   23   22 ar
    23   24   23 1
    24   25   23 ar
    25   26   19 ar
    26   27   26 1
    27   28   16 1
    28   29    9 1
    29   30    1 1
    30   31   30 1
    31   32   30 1
    32   33   30 1
    33   34    2 1
    34   35   34 1
    35   36   34 1
    36   37   34 1
    37   38   16 1
    38   39   38 1
    39   40   38 1
    40   41   38 1
    41   42   41 1
    42   43   41 2
    43   44   43 1
    44   45   44 1
    45   46   44 1
    46   47   44 1
    47   48   43 1
    48   49   48 1
    49   50   48 1
    50   51   48 1
    51   52    3 1
    52   53   52 1
    53   54   53 1
    54   55   54 1
    55   56   54 1
    56   57   54 1
    57   58   57 1
    58   59   57 1
    59   60   57 1
    60   61    5 1
    61   62   60 1
    62   63   62 1
    63   64   62 1
    64   65   62 1
    65   66   53 1
    66   67   66 1
    67   68   67 1
    68   69   67 1
    69   70   67 1
    70   71   66 1
    71   72   71 1
    72   73   71 1
    73   74   71 1
    74   75    7 1
    75   76   75 1
    76   77   75 1
    77   78   75 1
    78   79    8 1
    79   80   79 1
    80   81   79 1
    81   82   79 1
    82   11   29 1
    83   25   26 ar
    84   27   28 1
    85   28   29 2
    86   60   61 1
    87   60   66 1
@<TRIPOS>SUBSTRUCTURE
     1 RES1 1

@<TRIPOS>CRYSIN
   6.5253   11.6956   40.6525  90.0000  90.0000  90.0000  19 1

