# MOL2 file generated by ConQuest
# Please check atom types

@<TRIPOS>MOLECULE
AMUZIS
    28    29     1
SMALL
NO_CHARGES
****
Generated from CSD

@<TRIPOS>ATOM
      1 O1         0.3578    6.8763   22.8452 O.2       1 RES1    0.0000
      2 O2         0.1351    2.4030   23.6452 O.3       1 RES1    0.0000
      3 H1         0.2511    1.6718   23.2479 H         1 RES1    0.0000
      4 N1         0.2534    3.4410   22.7425 N.2       1 RES1    0.0000
      5 C1         0.3728    5.5535   20.8930 C.ar      1 RES1    0.0000
      6 C2        -0.4779    4.6975   20.1926 C.ar      1 RES1    0.0000
      7 H2        -1.1376    4.1933   20.6546 H         1 RES1    0.0000
      8 C3        -0.3521    4.5896   18.8111 C.ar      1 RES1    0.0000
      9 H3        -0.9408    4.0241   18.3250 H         1 RES1    0.0000
     10 C4         0.6253    5.3018   18.1471 C.ar      1 RES1    0.0000
     11 H4         0.7179    5.2115   17.2060 H         1 RES1    0.0000
     12 C5         1.4728    6.1479   18.8441 C.ar      1 RES1    0.0000
     13 H5         2.1478    6.6309   18.3800 H         1 RES1    0.0000
     14 C6         1.3375    6.2904   20.2130 C.ar      1 RES1    0.0000
     15 H6         1.9014    6.8897   20.6867 H         1 RES1    0.0000
     16 C7         0.2765    5.7545   22.3685 C.2       1 RES1    0.0000
     17 C8         0.1341    4.5967   23.2981 C.2       1 RES1    0.0000
     18 C9        -0.0460    4.8689   24.7555 C.ar      1 RES1    0.0000
     19 C10       -1.0589    5.7143   25.1909 C.ar      1 RES1    0.0000
     20 H7        -1.6403    6.1219   24.5594 H         1 RES1    0.0000
     21 C11       -1.2247    5.9653   26.5510 C.ar      1 RES1    0.0000
     22 H8        -1.9207    6.5400   26.8478 H         1 RES1    0.0000
     23 C12       -0.3691    5.3744   27.4705 C.ar      1 RES1    0.0000
     24 H9        -0.4815    5.5437   28.3978 H         1 RES1    0.0000
     25 C13        0.6441    4.5424   27.0401 C.ar      1 RES1    0.0000
     26 H10        1.2289    4.1419   27.6732 H         1 RES1    0.0000
     27 C14        0.8132    4.2871   25.6825 C.ar      1 RES1    0.0000
     28 H11        1.5138    3.7167   25.3895 H         1 RES1    0.0000
@<TRIPOS>BOND
     1    1   16 2
     2    2    3 1
     3    4    2 1
     4    5    6 ar
     5    6    7 1
     6    8    6 ar
     7    9    8 1
     8   10    8 ar
     9   11   10 1
    10   12   10 ar
    11   13   12 1
    12   14    5 ar
    13   15   14 1
    14   16    5 1
    15   17    4 2
    16   18   17 1
    17   19   18 ar
    18   20   19 1
    19   21   19 ar
    20   22   21 1
    21   23   21 ar
    22   24   23 1
    23   25   23 ar
    24   26   25 1
    25   27   18 ar
    26   28   27 1
    27   12   14 ar
    28   16   17 1
    29   25   27 ar
@<TRIPOS>SUBSTRUCTURE
     1 RES1 1

@<TRIPOS>CRYSIN
   6.9211    7.0512   22.9837  90.0000  93.9480  90.0000 231 1

