# MOL2 file generated by ConQuest
# Please check atom types

@<TRIPOS>MOLECULE
AMUZEO
    56    58     2
SMALL
NO_CHARGES
****
Generated from CSD

@<TRIPOS>ATOM
      1 O1         6.9960   21.4559    9.2212 O.2       1 RES1    0.0000
      2 O2         9.0630   19.3286    7.8461 O.3       1 RES1    0.0000
      3 H1         9.5126   18.5498    7.7214 H         1 RES1    0.0000
      4 N1         7.8144   19.0505    7.2668 N.2       1 RES1    0.0000
      5 C1         8.3703   22.2339    7.4573 C.ar      1 RES1    0.0000
      6 C2         8.7902   22.0664    6.1499 C.ar      1 RES1    0.0000
      7 H2         8.4676   21.3555    5.6439 H         1 RES1    0.0000
      8 C3         9.6885   22.9554    5.5998 C.ar      1 RES1    0.0000
      9 H3         9.9638   22.8509    4.7169 H         1 RES1    0.0000
     10 C4        10.1797   23.9976    6.3535 C.ar      1 RES1    0.0000
     11 H4        10.7939   24.5880    5.9812 H         1 RES1    0.0000
     12 C5         9.7703   24.1689    7.6465 C.ar      1 RES1    0.0000
     13 H5        10.1074   24.8726    8.1510 H         1 RES1    0.0000
     14 C6         8.8620   23.3014    8.2006 C.ar      1 RES1    0.0000
     15 H6         8.5748   23.4282    9.0760 H         1 RES1    0.0000
     16 C7         7.4344   21.2899    8.1009 C.2       1 RES1    0.0000
     17 C8         7.0208   20.0442    7.3525 C.2       1 RES1    0.0000
     18 C9         5.6747   19.9225    6.7712 C.ar      1 RES1    0.0000
     19 C10        4.6342   20.7014    7.2046 C.ar      1 RES1    0.0000
     20 H7         4.7860   21.3474    7.8547 H         1 RES1    0.0000
     21 C11        3.3644   20.5409    6.6888 C.ar      1 RES1    0.0000
     22 H8         2.6644   21.0548    7.0220 H         1 RES1    0.0000
     23 C12        3.1280   19.6570    5.7177 C.ar      1 RES1    0.0000
     24 H9         2.2826   19.5996    5.3342 H         1 RES1    0.0000
     25 C13        4.1313   18.8381    5.2881 C.ar      1 RES1    0.0000
     26 H10        3.9607   18.1954    4.6390 H         1 RES1    0.0000
     27 C14        5.4071   18.9654    5.8203 C.ar      1 RES1    0.0000
     28 H11        6.0867   18.3994    5.5311 H         1 RES1    0.0000
     29 O3         2.9172   25.9329    0.0268 O.2       2 RES2    0.0000
     30 O4         1.0222   23.8454    1.4209 O.3       2 RES2    0.0000
     31 H12        0.5105   23.0550    1.5586 H         2 RES2    0.0000
     32 N2         2.2707   23.5715    2.0024 N.2       2 RES2    0.0000
     33 C15        1.8242   26.8304    1.9188 C.ar      2 RES2    0.0000
     34 C16        1.6302   26.7545    3.2715 C.ar      2 RES2    0.0000
     35 H13        1.9990   26.0513    3.7540 H         2 RES2    0.0000
     36 C17        0.8864   27.7202    3.9222 C.ar      2 RES2    0.0000
     37 H14        0.7793   27.6837    4.8451 H         2 RES2    0.0000
     38 C18        0.3095   28.7305    3.2013 C.ar      2 RES2    0.0000
     39 H15       -0.2098   29.3671    3.6361 H         2 RES2    0.0000
     40 C19        0.4853   28.8108    1.8632 C.ar      2 RES2    0.0000
     41 H16        0.0900   29.5040    1.3843 H         2 RES2    0.0000
     42 C20        1.2427   27.8765    1.2141 C.ar      2 RES2    0.0000
     43 H17        1.3710   27.9414    0.2943 H         2 RES2    0.0000
     44 C21        2.6147   25.8239    1.1926 C.2       2 RES2    0.0000
     45 C22        3.0600   24.5692    1.9250 C.2       2 RES2    0.0000
     46 C23        4.4112   24.4702    2.4891 C.ar      2 RES2    0.0000
     47 C24        5.3446   25.4450    2.2200 C.ar      2 RES2    0.0000
     48 H18        5.1097   26.1775    1.6991 H         2 RES2    0.0000
     49 C25        6.6284   25.3411    2.7174 C.ar      2 RES2    0.0000
     50 H19        7.2542   26.0003    2.5194 H         2 RES2    0.0000
     51 C26        6.9822   24.2884    3.4905 C.ar      2 RES2    0.0000
     52 H20        7.8467   24.2310    3.8279 H         2 RES2    0.0000
     53 C27        6.0689   23.3100    3.7787 C.ar      2 RES2    0.0000
     54 H21        6.3184   22.5851    4.3037 H         2 RES2    0.0000
     55 C28        4.7892   23.3960    3.2947 C.ar      2 RES2    0.0000
     56 H22        4.1705   22.7355    3.5049 H         2 RES2    0.0000
@<TRIPOS>BOND
     1    1   16 2
     2    2    3 1
     3    4    2 1
     4    5    6 ar
     5    6    7 1
     6    8    6 ar
     7    9    8 1
     8   10    8 ar
     9   11   10 1
    10   12   10 ar
    11   13   12 1
    12   14    5 ar
    13   15   14 1
    14   16    5 1
    15   17    4 2
    16   18   17 1
    17   19   18 ar
    18   20   19 1
    19   21   19 ar
    20   22   21 1
    21   23   21 ar
    22   24   23 1
    23   25   23 ar
    24   26   25 1
    25   27   18 ar
    26   28   27 1
    27   29   44 2
    28   30   31 1
    29   32   30 1
    30   33   34 ar
    31   34   35 1
    32   36   34 ar
    33   37   36 1
    34   38   36 ar
    35   39   38 1
    36   40   38 ar
    37   41   40 1
    38   42   33 ar
    39   43   42 1
    40   44   33 1
    41   45   32 2
    42   46   45 1
    43   47   46 ar
    44   48   47 1
    45   49   47 ar
    46   50   49 1
    47   51   49 ar
    48   52   51 1
    49   53   51 ar
    50   54   53 1
    51   55   46 ar
    52   56   55 1
    53   12   14 ar
    54   16   17 1
    55   25   27 ar
    56   40   42 ar
    57   44   45 1
    58   53   55 ar
@<TRIPOS>SUBSTRUCTURE
     1 RES1 1
     2 RES2 29

@<TRIPOS>CRYSIN
   8.7957   26.8487   10.6539  90.0000 105.7450  90.0000  14 1

