# MOL2 file generated by ConQuest
# Please check atom types

@<TRIPOS>MOLECULE
ANADON
    20    22     1
SMALL
NO_CHARGES
****
Generated from CSD

@<TRIPOS>ATOM
      1 C1         3.1907    1.9301    3.7150 C.3       1 RES1    0.0000
      2 C2         2.1413    1.6417    2.5384 C.3       1 RES1    0.0000
      3 C3         1.0018    0.8187    3.1502 C.ar      1 RES1    0.0000
      4 C4        -0.1633    0.3394    2.6244 C.ar      1 RES1    0.0000
      5 C5        -1.0646   -0.3436    3.5398 C.ar      1 RES1    0.0000
      6 C6        -0.7969   -0.4921    4.8933 C.ar      1 RES1    0.0000
      7 C7         0.3986    0.1018    5.4224 C.ar      1 RES1    0.0000
      8 C8         0.7685    0.0339    6.7711 C.ar      1 RES1    0.0000
      9 C9         1.9668    0.5939    7.1412 C.ar      1 RES1    0.0000
     10 C10        2.8723    1.2981    6.2518 C.ar      1 RES1    0.0000
     11 C11        2.5027    1.2641    4.8998 C.ar      1 RES1    0.0000
     12 C12        1.2719    0.7254    4.5217 C.ar      1 RES1    0.0000
     13 N1         5.3326    1.6883    2.5838 N.pl3     1 RES1    0.0000
     14 N2         2.4937    1.0902    0.1948 N.pl3     1 RES1    0.0000
     15 O1         4.4224    1.1581    3.5187 O.3       1 RES1    0.0000
     16 O2         2.8215    0.8102    1.5370 O.3       1 RES1    0.0000
     17 O3         5.0015    2.6767    1.9963 O.2       1 RES1    0.0000
     18 O4         1.5555    1.7986    0.0146 O.2       1 RES1    0.0000
     19 O5         6.3538    1.1114    2.6049 O.2       1 RES1    0.0000
     20 O6         3.1379    0.3478   -0.5405 O.2       1 RES1    0.0000
@<TRIPOS>BOND
     1    1    2 1
     2    2    3 1
     3    3    4 ar
     4    4    5 ar
     5    5    6 ar
     6    6    7 ar
     7    7    8 ar
     8    8    9 ar
     9    9   10 ar
    10   10   11 ar
    11   11    1 1
    12   12    3 ar
    13   13   15 1
    14   14   16 1
    15   15    1 1
    16   16    2 1
    17   17   13 2
    18   18   14 2
    19   19   13 2
    20   20   14 2
    21    7   12 ar
    22   11   12 ar
@<TRIPOS>SUBSTRUCTURE
     1 RES1 1

@<TRIPOS>CRYSIN
  17.1000    4.2420   19.1800  90.0000 122.2000  90.0000  14 1

