# MOL2 file generated by ConQuest
# Please check atom types

@<TRIPOS>MOLECULE
ANANAG
    50    53     1
SMALL
NO_CHARGES
****
Generated from CSD

@<TRIPOS>ATOM
      1 O1         4.0250    4.2989    5.9771 O.2       1 RES1    0.0000
      2 C1         5.4080    1.7147    7.9811 C.3       1 RES1    0.0000
      3 H1         5.9555    1.1155    7.4155 H         1 RES1    0.0000
      4 H2         5.0289    1.2046    8.7400 H         1 RES1    0.0000
      5 O2         5.9031    5.7071    9.7124 O.2       1 RES1    0.0000
      6 N1         4.3802    2.4029    7.2162 N.am      1 RES1    0.0000
      7 C2         4.7169    3.6043    6.7150 C.2       1 RES1    0.0000
      8 O3         3.3201    1.6754    6.6828 O.3       1 RES1    0.0000
      9 N2         4.9571    6.9308    8.1021 N.am      1 RES1    0.0000
     10 C3         6.1883    2.9362    8.4461 C.3       1 RES1    0.0000
     11 H3         5.6602    3.3678    9.1768 H         1 RES1    0.0000
     12 N3         2.1450    6.1726    9.8974 N.1       1 RES1    0.0000
     13 C4         7.5963    2.8398    8.9131 C.2       1 RES1    0.0000
     14 H4         7.8870    2.0614    9.3721 H         1 RES1    0.0000
     15 C5         8.4392    3.8196    8.6977 C.2       1 RES1    0.0000
     16 H5         9.3235    3.7220    9.0299 H         1 RES1    0.0000
     17 C6         8.1116    5.0698    7.9711 C.3       1 RES1    0.0000
     18 H6         8.7079    5.1302    7.1840 H         1 RES1    0.0000
     19 H7         8.3297    5.8322    8.5629 H         1 RES1    0.0000
     20 C7         6.6558    5.2469    7.4819 C.3       1 RES1    0.0000
     21 H8         6.6586    5.7633    6.6245 H         1 RES1    0.0000
     22 C8         6.1092    3.8524    7.2223 C.3       1 RES1    0.0000
     23 H9         6.7202    3.4474    6.5439 H         1 RES1    0.0000
     24 C9         5.8138    5.9923    8.5126 C.2       1 RES1    0.0000
     25 C10        4.7758    7.4843    6.7593 C.3       1 RES1    0.0000
     26 H10        4.5255    6.7781    6.1132 H         1 RES1    0.0000
     27 H11        5.5994    7.9339    6.4433 H         1 RES1    0.0000
     28 C11        3.6606    8.4694    6.9405 C.3       1 RES1    0.0000
     29 H12        3.7967    9.2562    6.3547 H         1 RES1    0.0000
     30 H13        2.7919    8.0527    6.7130 H         1 RES1    0.0000
     31 C12        3.6808    8.8745    8.3616 C.3       1 RES1    0.0000
     32 H14        2.7790    9.1460    8.6655 H         1 RES1    0.0000
     33 H15        4.3084    9.6263    8.5065 H         1 RES1    0.0000
     34 C13        4.1464    7.6317    9.0903 C.3       1 RES1    0.0000
     35 H16        4.7179    7.8936    9.8672 H         1 RES1    0.0000
     36 C14        3.0302    6.8078    9.5552 C.1       1 RES1    0.0000
     37 C15        2.1496    1.8324    7.5202 C.3       1 RES1    0.0000
     38 H17        2.0014    2.7889    7.7275 H         1 RES1    0.0000
     39 H18        2.2701    1.3425    8.3737 H         1 RES1    0.0000
     40 C16        0.9763    1.2757    6.7633 C.ar      1 RES1    0.0000
     41 C17        0.5512    1.8960    5.6321 C.ar      1 RES1    0.0000
     42 H19        1.0141    2.6574    5.3060 H         1 RES1    0.0000
     43 C18       -0.5061    1.4379    4.9880 C.ar      1 RES1    0.0000
     44 H20       -0.7748    1.8833    4.1929 H         1 RES1    0.0000
     45 C19       -1.2174    0.3860    5.3926 C.ar      1 RES1    0.0000
     46 H21       -1.9812    0.0944    4.9095 H         1 RES1    0.0000
     47 C20       -0.8033   -0.2736    6.5480 C.ar      1 RES1    0.0000
     48 H22       -1.2708   -1.0381    6.8620 H         1 RES1    0.0000
     49 C21        0.3027    0.2047    7.2344 C.ar      1 RES1    0.0000
     50 H23        0.5871   -0.2216    8.0335 H         1 RES1    0.0000
@<TRIPOS>BOND
     1    1    7 2
     2    2    3 1
     3    4    2 1
     4    5   24 2
     5    6    2 1
     6    7    6 1
     7    8    6 1
     8    9   24 1
     9   10    2 1
    10   11   10 1
    11   12   36 3
    12   13   10 1
    13   14   13 1
    14   15   13 2
    15   16   15 1
    16   17   15 1
    17   18   17 1
    18   19   17 1
    19   20   17 1
    20   21   20 1
    21   22    7 1
    22   23   22 1
    23   24   20 1
    24   25    9 1
    25   26   25 1
    26   27   25 1
    27   28   25 1
    28   29   28 1
    29   30   28 1
    30   31   28 1
    31   32   31 1
    32   33   31 1
    33   34    9 1
    34   35   34 1
    35   36   34 1
    36   37    8 1
    37   38   37 1
    38   39   37 1
    39   40   37 1
    40   41   40 ar
    41   42   41 1
    42   43   41 ar
    43   44   43 1
    44   45   43 ar
    45   46   45 1
    46   47   45 ar
    47   48   47 1
    48   49   40 ar
    49   50   49 1
    50   10   22 1
    51   20   22 1
    52   31   34 1
    53   47   49 ar
@<TRIPOS>SUBSTRUCTURE
     1 RES1 1

@<TRIPOS>CRYSIN
   9.2020   10.6040   20.1290  90.0000  90.0000  90.0000  19 1

