# MOL2 file generated by ConQuest
# Please check atom types

@<TRIPOS>MOLECULE
ANAXOD
    28    29     1
SMALL
USER_CHARGES
****
Generated from CSD

@<TRIPOS>ATOM
      1 O1         5.4456    4.7709    5.7682 O.3       1 RES1    0.0000
      2 O2         7.4210    5.5757    6.4508 O.2       1 RES1   -1.0000
      3 N1         6.3102    5.1207    6.8388 N.pl3     1 RES1    1.0000
      4 C1         4.6033    4.3312    8.3248 C.2       1 RES1    0.0000
      5 C2         4.3551    3.7026    9.6788 C.3       1 RES1    0.0000
      6 H1         4.5660    2.7369    9.6294 H         1 RES1    0.0000
      7 H2         3.3949    3.7920    9.9043 H         1 RES1    0.0000
      8 C3         5.1903    4.3386   10.7925 C.3       1 RES1    0.0000
      9 H3         4.8779    5.2637   10.9545 H         1 RES1    0.0000
     10 H4         5.0735    3.8233   11.6296 H         1 RES1    0.0000
     11 C4         6.6648    4.3583   10.4070 C.3       1 RES1    0.0000
     12 H5         6.9710    3.4334   10.2313 H         1 RES1    0.0000
     13 H6         7.1965    4.7188   11.1603 H         1 RES1    0.0000
     14 C5         6.8997    5.2153    9.1642 C.3       1 RES1    0.0000
     15 H7         6.7940    6.1711    9.4000 H         1 RES1    0.0000
     16 H8         7.8264    5.0801    8.8420 H         1 RES1    0.0000
     17 C6         5.9371    4.8635    8.0704 C.2       1 RES1    0.0000
     18 C7         4.0315    5.0748    6.0458 C.3       1 RES1    0.0000
     19 C8         3.6777    4.4377    7.3631 C.2       1 RES1    0.0000
     20 H9         2.7982    4.1111    7.5120 H         1 RES1    0.0000
     21 C9         3.3110    4.4213    4.8774 C.3       1 RES1    0.0000
     22 H10        3.6431    4.7990    4.0362 H         1 RES1    0.0000
     23 H11        2.3481    4.5884    4.9530 H         1 RES1    0.0000
     24 H12        3.4774    3.4562    4.8903 H         1 RES1    0.0000
     25 C10        3.8192    6.5827    6.0713 C.3       1 RES1    0.0000
     26 H13        4.3348    6.9730    6.8076 H         1 RES1    0.0000
     27 H14        2.8674    6.7765    6.2000 H         1 RES1    0.0000
     28 H15        4.1189    6.9691    5.2222 H         1 RES1    0.0000
@<TRIPOS>BOND
     1    1    3 1
     2    2    3 1
     3    3   17 2
     4    4    5 1
     5    5    6 1
     6    7    5 1
     7    8    5 1
     8    9    8 1
     9   10    8 1
    10   11    8 1
    11   12   11 1
    12   13   11 1
    13   14   11 1
    14   15   14 1
    15   16   14 1
    16   17    4 1
    17   18    1 1
    18   19    4 2
    19   20   19 1
    20   21   18 1
    21   22   21 1
    22   23   21 1
    23   24   21 1
    24   25   18 1
    25   26   25 1
    26   27   25 1
    27   28   25 1
    28   14   17 1
    29   18   19 1
@<TRIPOS>SUBSTRUCTURE
     1 RES1 1

@<TRIPOS>CRYSIN
   6.8952    8.7695    8.9826  69.5530  72.8970  80.6740   2 1

