# MOL2 file generated by ConQuest
# Please check atom types

@<TRIPOS>MOLECULE
ANEJAG
    30    31     1
SMALL
NO_CHARGES
****
Generated from CSD

@<TRIPOS>ATOM
      1 C1         7.6146    1.8945    4.8701 C.2       1 RES1    0.0000
      2 O1         8.4668    2.6925    4.4540 O.2       1 RES1    0.0000
      3 N1         7.7562    0.5599    4.7722 N.am      1 RES1    0.0000
      4 C2         8.8507   -0.0120    3.9825 C.3       1 RES1    0.0000
      5 H1         9.3784   -0.6351    4.5410 H         1 RES1    0.0000
      6 H2         9.4501    0.7087    3.6670 H         1 RES1    0.0000
      7 C3         8.2575   -0.7601    2.7831 C.3       1 RES1    0.0000
      8 H3         7.8487   -0.1018    2.1673 H         1 RES1    0.0000
      9 H4         8.9913   -1.2137    2.2959 H         1 RES1    0.0000
     10 N2         7.2482   -1.7536    3.1474 N.3       1 RES1    0.0000
     11 H5         7.2558   -2.5872    2.8658 H         1 RES1    0.0000
     12 C4         6.2265   -1.1985    4.0339 C.3       1 RES1    0.0000
     13 H6         5.6496   -1.9344    4.3593 H         1 RES1    0.0000
     14 H7         5.6565   -0.5750    3.5174 H         1 RES1    0.0000
     15 C5         6.8099   -0.4549    5.2406 C.3       1 RES1    0.0000
     16 H8         6.0812   -0.0233    5.7526 H         1 RES1    0.0000
     17 H9         7.2726   -1.0948    5.8379 H         1 RES1    0.0000
     18 C6         6.3688    2.4367    5.5166 C.ar      1 RES1    0.0000
     19 C7         5.1102    2.2332    4.9508 C.ar      1 RES1    0.0000
     20 H10        5.0232    1.6939    4.1738 H         1 RES1    0.0000
     21 C8         3.9829    2.8143    5.5165 C.ar      1 RES1    0.0000
     22 H11        3.1223    2.6826    5.1357 H         1 RES1    0.0000
     23 C9         4.1498    3.5932    6.6542 C.ar      1 RES1    0.0000
     24 C10        5.3871    3.8234    7.2327 C.ar      1 RES1    0.0000
     25 H12        5.4656    4.3638    8.0102 H         1 RES1    0.0000
     26 C11        6.5064    3.2475    6.6526 C.ar      1 RES1    0.0000
     27 H13        7.3674    3.4019    7.0248 H         1 RES1    0.0000
     28 N3         2.9564    4.1923    7.2650 N.pl3     1 RES1    0.0000
     29 O2         1.8647    3.9520    6.7569 O.2       1 RES1    0.0000
     30 O3         3.1047    4.9201    8.2434 O.2       1 RES1    0.0000
@<TRIPOS>BOND
     1    1    2 2
     2    3    1 1
     3    4    3 1
     4    5    4 1
     5    6    4 1
     6    7    4 1
     7    8    7 1
     8    9    7 1
     9   10    7 1
    10   11   10 1
    11   12   10 1
    12   13   12 1
    13   14   12 1
    14   15    3 1
    15   16   15 1
    16   17   15 1
    17   18    1 1
    18   19   18 ar
    19   20   19 1
    20   21   19 ar
    21   22   21 1
    22   23   21 ar
    23   24   23 ar
    24   25   24 1
    25   26   18 ar
    26   27   26 1
    27   28   23 1
    28   29   28 2
    29   30   28 2
    30   12   15 1
    31   24   26 ar
@<TRIPOS>SUBSTRUCTURE
     1 RES1 1

@<TRIPOS>CRYSIN
  24.5870    7.0726   14.1710  90.0000 119.2570  90.0000  15 1

