# MOL2 file generated by ConQuest
# Please check atom types

@<TRIPOS>MOLECULE
ANEMEN
    41    42     1
SMALL
NO_CHARGES
****
Generated from CSD

@<TRIPOS>ATOM
      1 O1         3.4752   11.0724   10.3456 O.2       1 RES1    0.0000
      2 O2         4.9563   12.8676    6.3354 O.2       1 RES1    0.0000
      3 O3         4.9352    5.6749    6.1583 O.2       1 RES1    0.0000
      4 O4         3.5878    6.0503    4.5027 O.2       1 RES1    0.0000
      5 N1         0.3537   12.3629    7.0835 N.pl3     1 RES1    0.0000
      6 H1        -0.4700   12.5258    6.8531 H         1 RES1    0.0000
      7 N2         4.1329    6.3828    5.5547 N.pl3     1 RES1    0.0000
      8 C1         0.5721   11.8786    8.3626 C.2       1 RES1    0.0000
      9 C2         1.8500   11.6182    8.7585 C.2       1 RES1    0.0000
     10 C3         2.9553   11.6229    7.7070 C.3       1 RES1    0.0000
     11 H2         3.7915   11.9372    8.1552 H         1 RES1    0.0000
     12 C4         2.6496   12.6009    6.5828 C.2       1 RES1    0.0000
     13 C5         1.3473   12.8788    6.2731 C.2       1 RES1    0.0000
     14 C6        -0.7063   11.7343    9.1443 C.3       1 RES1    0.0000
     15 H3        -0.8740   12.5562    9.6503 H         1 RES1    0.0000
     16 H4        -0.6265   10.9789    9.7636 H         1 RES1    0.0000
     17 H5        -1.4504   11.5733    8.5273 H         1 RES1    0.0000
     18 C7         2.2942   11.3583   10.1389 C.2       1 RES1    0.0000
     19 C8         1.3805   11.4905   11.3359 C.3       1 RES1    0.0000
     20 H6         0.8000   10.7034   11.3916 H         1 RES1    0.0000
     21 H7         0.8305   12.2967   11.2391 H         1 RES1    0.0000
     22 H8         1.9192   11.5588   12.1524 H         1 RES1    0.0000
     23 C9         3.8367   13.0819    5.8618 C.2       1 RES1    0.0000
     24 C10        3.7532   13.7788    4.5282 C.3       1 RES1    0.0000
     25 H9         3.3042   14.6424    4.6392 H         1 RES1    0.0000
     26 H10        3.2444   13.2245    3.9007 H         1 RES1    0.0000
     27 H11        4.6567   13.9233    4.1776 H         1 RES1    0.0000
     28 C11        0.7951   13.7103    5.1425 C.3       1 RES1    0.0000
     29 H12        1.0068   13.2811    4.2881 H         1 RES1    0.0000
     30 H13        1.1967   14.6032    5.1678 H         1 RES1    0.0000
     31 H14       -0.1773   13.7870    5.2378 H         1 RES1    0.0000
     32 C12        3.2355   10.2176    7.1513 C.ar      1 RES1    0.0000
     33 C13        4.0971    9.3434    7.8287 C.ar      1 RES1    0.0000
     34 H15        4.4838    9.6147    8.6531 H         1 RES1    0.0000
     35 C14        4.3944    8.0871    7.3136 C.ar      1 RES1    0.0000
     36 H16        4.9848    7.5024    7.7734 H         1 RES1    0.0000
     37 C15        3.8117    7.7059    6.1161 C.ar      1 RES1    0.0000
     38 C16        2.9413    8.5333    5.4233 C.ar      1 RES1    0.0000
     39 H17        2.5449    8.2476    4.6084 H         1 RES1    0.0000
     40 C17        2.6619    9.7923    5.9499 C.ar      1 RES1    0.0000
     41 H18        2.0707   10.3729    5.4839 H         1 RES1    0.0000
@<TRIPOS>BOND
     1    1   18 2
     2    2   23 2
     3    3    7 2
     4    4    7 2
     5    5    6 1
     6    7   37 1
     7    8    5 1
     8    9    8 2
     9   10    9 1
    10   11   10 1
    11   12   10 1
    12   13    5 1
    13   14    8 1
    14   15   14 1
    15   16   14 1
    16   17   14 1
    17   18    9 1
    18   19   18 1
    19   20   19 1
    20   21   19 1
    21   22   19 1
    22   23   12 1
    23   24   23 1
    24   25   24 1
    25   26   24 1
    26   27   24 1
    27   28   13 1
    28   29   28 1
    29   30   28 1
    30   31   28 1
    31   32   10 1
    32   33   32 ar
    33   34   33 1
    34   35   33 ar
    35   36   35 1
    36   37   35 ar
    37   38   37 ar
    38   39   38 1
    39   40   32 ar
    40   41   40 1
    41   12   13 2
    42   38   40 ar
@<TRIPOS>SUBSTRUCTURE
     1 RES1 1

@<TRIPOS>CRYSIN
   7.4786   14.4974   14.2242  90.0000 100.5004  90.0000 231 1

