# MOL2 file generated by ConQuest
# Please check atom types

@<TRIPOS>MOLECULE
ANISOH
    30    32     1
SMALL
NO_CHARGES
****
Generated from CSD

@<TRIPOS>ATOM
      1 O1        -2.0503    4.0058   11.1822 O.2       1 RES1    0.0000
      2 N1         1.4532    1.0313   11.0084 N.ar      1 RES1    0.0000
      3 C1         0.4890    1.0813   10.0433 C.ar      1 RES1    0.0000
      4 O2        -1.2666    5.7855   13.0806 O.3       1 RES1    0.0000
      5 C2        -0.2289    2.3123    9.8907 C.ar      1 RES1    0.0000
      6 N2         0.0977    3.3574   10.7702 N.am      1 RES1    0.0000
      7 N3        -1.8966    3.6227    8.5869 N.pl3     1 RES1    0.0000
      8 O3        -3.0930    3.5483    8.3092 O.2       1 RES1    0.0000
      9 C3        -1.2021    2.3682    8.9183 C.ar      1 RES1    0.0000
     10 O4        -1.2460    4.6615    8.5463 O.2       1 RES1    0.0000
     11 C4        -1.5557    1.2547    8.1259 C.ar      1 RES1    0.0000
     12 H1        -2.2452    1.3521    7.4905 H         1 RES1    0.0000
     13 C5        -0.8722    0.0815    8.2639 C.ar      1 RES1    0.0000
     14 H2        -1.0846   -0.6883    7.7284 H         1 RES1    0.0000
     15 C6         0.1753   -0.0266    9.2091 C.ar      1 RES1    0.0000
     16 C7         0.9328   -1.2152    9.3900 C.ar      1 RES1    0.0000
     17 H3         0.7352   -1.9830    8.8480 H         1 RES1    0.0000
     18 C8         1.9130   -1.2467   10.3307 C.ar      1 RES1    0.0000
     19 H4         2.4146   -2.0240   10.4715 H         1 RES1    0.0000
     20 C9         2.1319   -0.0951   11.1215 C.ar      1 RES1    0.0000
     21 H5         2.7940   -0.1147   11.8151 H         1 RES1    0.0000
     22 C10       -0.8520    4.0871   11.4319 C.2       1 RES1    0.0000
     23 C11       -0.3325    4.9696   12.4880 C.2       1 RES1    0.0000
     24 C12       -0.6039    6.4459   14.0771 C.2       1 RES1    0.0000
     25 H6        -1.1420    7.0226   14.5947 H         1 RES1    0.0000
     26 C13        0.6951    6.0840   14.1210 C.2       1 RES1    0.0000
     27 H7         1.3379    6.4162   14.7626 H         1 RES1    0.0000
     28 C14        0.8743    5.1190   13.0823 C.2       1 RES1    0.0000
     29 H8         1.7037    4.6954   12.8144 H         1 RES1    0.0000
     30 H9         0.8971    3.3802   11.0538 H         1 RES1    0.0000
@<TRIPOS>BOND
     1    1   22 2
     2    2    3 ar
     3    3    5 ar
     4    4   23 1
     5    5    6 1
     6    6   22 1
     7    7    8 2
     8    9    5 ar
     9   10    7 2
    10   11    9 ar
    11   12   11 1
    12   13   11 ar
    13   14   13 1
    14   15    3 ar
    15   16   15 ar
    16   17   16 1
    17   18   16 ar
    18   19   18 1
    19   20    2 ar
    20   21   20 1
    21   22   23 1
    22   23   28 2
    23   24    4 1
    24   25   24 1
    25   26   24 2
    26   27   26 1
    27   28   26 1
    28   29   28 1
    29   30    6 1
    30    7    9 1
    31   13   15 ar
    32   18   20 ar
@<TRIPOS>SUBSTRUCTURE
     1 RES1 1

@<TRIPOS>CRYSIN
   5.2240    8.1944   28.0140  90.0000  92.3080  90.0000  14 1

