# MOL2 file generated by ConQuest
# Please check atom types

@<TRIPOS>MOLECULE
ANISUN
    26    27     1
SMALL
NO_CHARGES
****
Generated from CSD

@<TRIPOS>ATOM
      1 N1         0.8435    8.8415    3.8834 N.ar      1 RES1    0.0000
      2 O1         3.9180   11.7338    5.8548 O.2       1 RES1    0.0000
      3 C1         2.1647    8.5439    4.0423 C.ar      1 RES1    0.0000
      4 O2         6.4629   10.2382    4.8701 O.2       1 RES1    0.0000
      5 C2         3.0760    9.6465    4.1828 C.ar      1 RES1    0.0000
      6 N2         2.5253   10.9300    4.2512 N.am      1 RES1    0.0000
      7 H1         1.7845   11.0978    3.8670 H         1 RES1    0.0000
      8 C3         4.4200    9.3465    4.2739 C.ar      1 RES1    0.0000
      9 N3         5.4515   10.3892    4.1948 N.pl3     1 RES1    0.0000
     10 O3         5.2819   11.3015    3.3999 O.2       1 RES1    0.0000
     11 C4         4.9072    8.0255    4.3315 C.ar      1 RES1    0.0000
     12 H2         5.8635    7.9051    4.3860 H         1 RES1    0.0000
     13 C5         4.0422    6.9748    4.2322 C.ar      1 RES1    0.0000
     14 H3         4.3695    6.1230    4.2467 H         1 RES1    0.0000
     15 C6         2.6544    7.2146    4.0689 C.ar      1 RES1    0.0000
     16 C7         1.7122    6.1676    3.9328 C.ar      1 RES1    0.0000
     17 H4         1.9826    5.3320    3.9556 H         1 RES1    0.0000
     18 C8         0.3933    6.4763    3.7638 C.ar      1 RES1    0.0000
     19 H5        -0.2543    5.8299    3.6265 H         1 RES1    0.0000
     20 C9         0.0141    7.8311    3.7461 C.ar      1 RES1    0.0000
     21 H6        -0.9445    8.0668    3.5948 H         1 RES1    0.0000
     22 C10        2.9378   11.8856    5.1391 C.2       1 RES1    0.0000
     23 C11        2.0960   13.1269    5.1878 C.3       1 RES1    0.0000
     24 H7         2.4859   13.7702    5.7277 H         1 RES1    0.0000
     25 H8         1.9784   13.4340    4.3100 H         1 RES1    0.0000
     26 H9         1.2122   12.8896    5.4492 H         1 RES1    0.0000
@<TRIPOS>BOND
     1    1    3 ar
     2    2   22 2
     3    3    5 ar
     4    4    9 2
     5    5    6 1
     6    6    7 1
     7    8    5 ar
     8    9    8 1
     9   10    9 2
    10   11    8 ar
    11   12   11 1
    12   13   11 ar
    13   14   13 1
    14   15    3 ar
    15   16   15 ar
    16   17   16 1
    17   18   16 ar
    18   19   18 1
    19   20    1 ar
    20   21   20 1
    21   22    6 1
    22   23   22 1
    23   24   23 1
    24   25   23 1
    25   26   23 1
    26   13   15 ar
    27   18   20 ar
@<TRIPOS>SUBSTRUCTURE
     1 RES1 1

@<TRIPOS>CRYSIN
  10.0842   16.0119    7.0635  90.0000 116.3620  90.0000   9 1

