# MOL2 file generated by ConQuest
# Please check atom types

@<TRIPOS>MOLECULE
ANITAU
    35    36     1
SMALL
NO_CHARGES
****
Generated from CSD

@<TRIPOS>ATOM
      1 C1         5.6809    8.9035    6.9758 C.ar      1 RES1    0.0000
      2 N1         5.4094    9.6963    8.1775 N.pl3     1 RES1    0.0000
      3 O1         6.0402   10.7195    8.3425 O.2       1 RES1    0.0000
      4 N2         6.6895    6.5579    3.6635 N.am      1 RES1    0.0000
      5 H1         6.0370    6.1021    3.5151 H         1 RES1    0.0000
      6 C2         6.9232    9.0316    6.4271 C.ar      1 RES1    0.0000
      7 H2         7.4731    9.6056    6.8250 H         1 RES1    0.0000
      8 O2         4.5829    9.3046    8.9834 O.2       1 RES1    0.0000
      9 O3         8.8528    7.0500    3.2448 O.2       1 RES1    0.0000
     10 C3         7.3097    8.2760    5.3164 C.ar      1 RES1    0.0000
     11 H3         8.1908    8.3995    4.9425 H         1 RES1    0.0000
     12 C4         6.4219    7.3866    4.7495 C.ar      1 RES1    0.0000
     13 C5         5.0948    7.2610    5.2940 C.ar      1 RES1    0.0000
     14 N3         4.2741    6.3676    4.6622 N.ar      1 RES1    0.0000
     15 C6         3.0359    6.2528    5.1156 C.ar      1 RES1    0.0000
     16 H4         2.4572    5.5957    4.6481 H         1 RES1    0.0000
     17 C7         2.5330    7.0028    6.1773 C.ar      1 RES1    0.0000
     18 H5         1.6147    6.8713    6.4235 H         1 RES1    0.0000
     19 C8         3.3451    7.8796    6.8384 C.ar      1 RES1    0.0000
     20 H6         3.0197    8.3789    7.6012 H         1 RES1    0.0000
     21 C9         4.6994    8.0254    6.4221 C.ar      1 RES1    0.0000
     22 C10        7.8669    6.3758    2.9973 C.2       1 RES1    0.0000
     23 C11        7.8873    5.2861    1.9199 C.3       1 RES1    0.0000
     24 C12        9.2185    4.5295    2.0805 C.3       1 RES1    0.0000
     25 H7         9.2485    3.7836    1.4453 H         1 RES1    0.0000
     26 H8         9.2892    4.1833    2.9941 H         1 RES1    0.0000
     27 H9         9.9652    5.1400    1.9039 H         1 RES1    0.0000
     28 C13        7.8794    5.9756    0.5656 C.3       1 RES1    0.0000
     29 H10        7.0283    6.4464    0.4443 H         1 RES1    0.0000
     30 H11        7.9860    5.3065   -0.1419 H         1 RES1    0.0000
     31 H12        8.6180    6.6184    0.5219 H         1 RES1    0.0000
     32 C14        6.7462    4.2911    2.0341 C.3       1 RES1    0.0000
     33 H13        5.8970    4.7442    1.8494 H         1 RES1    0.0000
     34 H14        6.7268    3.9179    2.9405 H         1 RES1    0.0000
     35 H15        6.8775    3.5678    1.3864 H         1 RES1    0.0000
@<TRIPOS>BOND
     1    1    2 1
     2    2    3 2
     3    4    5 1
     4    6    1 ar
     5    7    6 1
     6    8    2 2
     7    9   22 2
     8   10    6 ar
     9   11   10 1
    10   12    4 1
    11   13   12 ar
    12   14   13 ar
    13   15   14 ar
    14   16   15 1
    15   17   15 ar
    16   18   17 1
    17   19   17 ar
    18   20   19 1
    19   21    1 ar
    20   22    4 1
    21   23   22 1
    22   24   23 1
    23   25   24 1
    24   26   24 1
    25   27   24 1
    26   28   23 1
    27   29   28 1
    28   30   28 1
    29   31   28 1
    30   32   23 1
    31   33   32 1
    32   34   32 1
    33   35   32 1
    34   10   12 ar
    35   13   21 ar
    36   19   21 ar
@<TRIPOS>SUBSTRUCTURE
     1 RES1 1

@<TRIPOS>CRYSIN
   8.4660    9.6320    9.6830  85.5310  67.3130  71.3040   2 1

