# MOL2 file generated by ConQuest
# Please check atom types

@<TRIPOS>MOLECULE
ANIVOJ
    45    48     1
SMALL
NO_CHARGES
****
Generated from CSD

@<TRIPOS>ATOM
      1 C1         0.4755    3.5634    8.0348 C.3       1 RES1    0.0000
      2 H1         1.0408    3.0820    8.6598 H         1 RES1    0.0000
      3 H2        -0.0178    2.9236    7.4980 H         1 RES1    0.0000
      4 N1         1.2627    4.4625    7.1929 N.am      1 RES1    0.0000
      5 C2         0.8808    5.7689    7.3409 C.2       1 RES1    0.0000
      6 O1         1.3675    6.7156    6.6984 O.2       1 RES1    0.0000
      7 C3        -0.2003    5.8019    8.3372 C.ar      1 RES1    0.0000
      8 C4        -0.9791    6.8511    8.8794 C.ar      1 RES1    0.0000
      9 C5        -1.9469    6.5096    9.8086 C.ar      1 RES1    0.0000
     10 H3        -2.4664    7.1844   10.1836 H         1 RES1    0.0000
     11 C6        -2.1678    5.1949   10.1974 C.ar      1 RES1    0.0000
     12 H4        -2.8323    5.0036   10.8196 H         1 RES1    0.0000
     13 C7        -1.4143    4.1724    9.6726 C.ar      1 RES1    0.0000
     14 H5        -1.5519    3.2898    9.9327 H         1 RES1    0.0000
     15 C8        -0.4530    4.4975    8.7526 C.ar      1 RES1    0.0000
     16 C9        -0.8443    8.3325    8.6110 C.2       1 RES1    0.0000
     17 O2        -1.5023    9.1511    9.3096 O.2       1 RES1    0.0000
     18 N2        -0.0262    8.6717    7.6147 N.am      1 RES1    0.0000
     19 O3         0.0786   10.0385    7.3234 O.3       1 RES1    0.0000
     20 H6         0.5017   10.4125    7.9180 H         1 RES1    0.0000
     21 C10        2.1977    3.9708    6.2471 C.ar      1 RES1    0.0000
     22 C11        3.1403    4.7999    5.6497 C.ar      1 RES1    0.0000
     23 H7         3.2198    5.6805    5.9401 H         1 RES1    0.0000
     24 C12        3.9555    4.3514    4.6433 C.ar      1 RES1    0.0000
     25 H8         4.5536    4.9378    4.2389 H         1 RES1    0.0000
     26 C13        3.8966    3.0161    4.2196 C.ar      1 RES1    0.0000
     27 C14        3.0158    2.1726    4.8492 C.ar      1 RES1    0.0000
     28 H9         2.9830    1.2756    4.6047 H         1 RES1    0.0000
     29 C15        2.1781    2.6396    5.8418 C.ar      1 RES1    0.0000
     30 H10        1.5856    2.0512    6.2499 H         1 RES1    0.0000
     31 O4         4.7034    2.7137    3.1589 O.3       1 RES1    0.0000
     32 C16        4.5302    1.4278    2.5634 C.3       1 RES1    0.0000
     33 H11        3.5886    1.2612    2.3998 H         1 RES1    0.0000
     34 H12        4.8635    0.7386    3.1580 H         1 RES1    0.0000
     35 C17        5.2837    1.3990    1.2766 C.ar      1 RES1    0.0000
     36 C18        4.7820    2.0080    0.1535 C.ar      1 RES1    0.0000
     37 H13        3.9752    2.4668    0.2096 H         1 RES1    0.0000
     38 C19        5.4344    1.9607   -1.0432 C.ar      1 RES1    0.0000
     39 H14        5.0797    2.3948   -1.7858 H         1 RES1    0.0000
     40 C20        6.6203    1.2694   -1.1480 C.ar      1 RES1    0.0000
     41 H15        7.0696    1.2365   -1.9614 H         1 RES1    0.0000
     42 C21        7.1342    0.6337   -0.0515 C.ar      1 RES1    0.0000
     43 H16        7.9242    0.1481   -0.1232 H         1 RES1    0.0000
     44 C22        6.4799    0.7119    1.1608 C.ar      1 RES1    0.0000
     45 H17        6.8478    0.3004    1.9090 H         1 RES1    0.0000
@<TRIPOS>BOND
     1    1    2 1
     2    3    1 1
     3    4    1 1
     4    5    4 1
     5    6    5 2
     6    7    5 1
     7    8    7 ar
     8    9    8 ar
     9   10    9 1
    10   11    9 ar
    11   12   11 1
    12   13   11 ar
    13   14   13 1
    14   15    1 1
    15   16    8 1
    16   17   16 2
    17   18   16 1
    18   19   18 1
    19   20   19 1
    20   21    4 1
    21   22   21 ar
    22   23   22 1
    23   24   22 ar
    24   25   24 1
    25   26   24 ar
    26   27   26 ar
    27   28   27 1
    28   29   21 ar
    29   30   29 1
    30   31   26 1
    31   32   31 1
    32   33   32 1
    33   34   32 1
    34   35   32 1
    35   36   35 ar
    36   37   36 1
    37   38   36 ar
    38   39   38 1
    39   40   38 ar
    40   41   40 1
    41   42   40 ar
    42   43   42 1
    43   44   35 ar
    44   45   44 1
    45    7   15 ar
    46   13   15 ar
    47   27   29 ar
    48   42   44 ar
@<TRIPOS>SUBSTRUCTURE
     1 RES1 1

@<TRIPOS>CRYSIN
   9.3600   20.5740    9.1910  90.0000  90.0000  90.0000  14 1

