# MOL2 file generated by ConQuest
# Please check atom types

@<TRIPOS>MOLECULE
ANQDAZ
    25    28     1
SMALL
NO_CHARGES
****
Generated from CSD

@<TRIPOS>ATOM
      1 C1         8.0545   -1.0354   -2.9264 C.ar      1 RES1    0.0000
      2 C10        9.7260   -4.6807   -1.3827 C.2       1 RES1    0.0000
      3 C11       13.4631   -3.9761   -1.6534 C.2       1 RES1    0.0000
      4 C12       13.9684   -5.2128   -1.1340 C.2       1 RES1    0.0000
      5 C13       13.0752   -6.3272   -0.8340 C.2       1 RES1    0.0000
      6 C14       11.7812   -6.0612   -0.8633 C.2       1 RES1    0.0000
      7 C2         9.4352   -1.2007   -2.8751 C.ar      1 RES1    0.0000
      8 C3         9.9832   -2.3655   -2.3703 C.ar      1 RES1    0.0000
      9 C4         9.1597   -3.4368   -1.9753 C.ar      1 RES1    0.0000
     10 C5         7.7851   -3.2786   -2.0338 C.ar      1 RES1    0.0000
     11 C6         7.2265   -2.1211   -2.5532 C.ar      1 RES1    0.0000
     12 C7        11.4989   -2.5093   -2.3411 C.2       1 RES1    0.0000
     13 C8        12.0282   -3.7532   -1.7485 C.2       1 RES1    0.0000
     14 C9        11.2474   -4.8317   -1.3754 C.2       1 RES1    0.0000
     15 H1         7.6191   -0.0935   -3.2409 H         1 RES1    0.0000
     16 H13       13.4578   -7.3554   -0.5926 H         1 RES1    0.0000
     17 H14       11.1823   -6.7083   -0.5267 H         1 RES1    0.0000
     18 H2        10.0808   -0.4026   -3.2336 H         1 RES1    0.0000
     19 H5         7.1516   -4.0767   -1.6827 H         1 RES1    0.0000
     20 H6         6.1360   -2.0420   -2.6703 H         1 RES1    0.0000
     21 N1        15.2512   -5.1840   -1.1486 N.2       1 RES1    0.0000
     22 N2        14.4792   -3.1780   -1.8655 N.2       1 RES1    0.0000
     23 O1        15.5633   -3.9257   -1.5510 O.3       1 RES1    0.0000
     24 O2         9.0597   -5.5579   -0.9291 O.2       1 RES1    0.0000
     25 O3        12.2044   -1.6465   -2.7874 O.2       1 RES1    0.0000
@<TRIPOS>BOND
     1    1    7 ar
     2    2    9 1
     3    3    4 1
     4    4    5 1
     5    5    6 2
     6    6   14 1
     7    7    8 ar
     8    8    9 ar
     9    9   10 ar
    10   10   11 ar
    11   11    1 ar
    12   12    8 1
    13   13    3 1
    14   14    2 1
    15   15    1 1
    16   16    5 1
    17   17    6 1
    18   18    7 1
    19   19   10 1
    20   20   11 1
    21   21    4 2
    22   22    3 2
    23   23   21 1
    24   24    2 2
    25   25   12 2
    26   12   13 1
    27   13   14 2
    28   22   23 1
@<TRIPOS>SUBSTRUCTURE
     1 RES1 1

@<TRIPOS>CRYSIN
  20.5300    7.1900    7.5600  90.0000 104.6000  90.0000  14 2

