# MOL2 file generated by ConQuest
# Please check atom types

@<TRIPOS>MOLECULE
ANUDAQ
    50    51     1
SMALL
NO_CHARGES
****
Generated from CSD

@<TRIPOS>ATOM
      1 C1         3.6119    5.9139    2.7780 C.ar      1 RES1    0.0000
      2 C2         2.6148    5.8202    3.8635 C.2       1 RES1    0.0000
      3 C3         0.8996    7.0221    5.3395 C.ar      1 RES1    0.0000
      4 C4         4.0267    7.1518    2.2569 C.ar      1 RES1    0.0000
      5 H1         3.6621    7.9344    2.6008 H         1 RES1    0.0000
      6 C5         5.4792    6.0665    0.7205 C.ar      1 RES1    0.0000
      7 C6         1.8902    6.8812    4.3094 C.2       1 RES1    0.0000
      8 H2         2.0725    7.6726    3.8570 H         1 RES1    0.0000
      9 C7         4.1900    4.7663    2.2306 C.ar      1 RES1    0.0000
     10 H3         3.9497    3.9336    2.5690 H         1 RES1    0.0000
     11 C8         4.9629    7.2335    1.2452 C.ar      1 RES1    0.0000
     12 H4         5.2407    8.0601    0.9222 H         1 RES1    0.0000
     13 C9        -1.0561    7.4908    7.3682 C.ar      1 RES1    0.0000
     14 C10        0.2269    8.2642    5.4595 C.ar      1 RES1    0.0000
     15 C11       -0.7199    8.4972    6.4394 C.ar      1 RES1    0.0000
     16 H5        -1.1397    9.3260    6.4873 H         1 RES1    0.0000
     17 C12        5.1095    4.8332    1.2005 C.ar      1 RES1    0.0000
     18 H6         5.4717    4.0559    0.8382 H         1 RES1    0.0000
     19 C13        2.4262    4.4997    4.4028 C.1       1 RES1    0.0000
     20 C14       -2.5824    9.0379    8.5325 C.3       1 RES1    0.0000
     21 H7        -3.4064    8.9385    9.0336 H         1 RES1    0.0000
     22 H8        -2.8112    9.3932    7.6594 H         1 RES1    0.0000
     23 C15       -0.2179   10.4143    4.4532 C.3       1 RES1    0.0000
     24 H9        -0.1250   10.9449    5.2607 H         1 RES1    0.0000
     25 H10       -1.1552   10.1957    4.3317 H         1 RES1    0.0000
     26 C16        0.5251    6.0341    6.2633 C.ar      1 RES1    0.0000
     27 H11        0.9313    5.1995    6.2102 H         1 RES1    0.0000
     28 C17       -0.4126    6.2456    7.2412 C.ar      1 RES1    0.0000
     29 H12       -0.6265    5.5577    7.8275 H         1 RES1    0.0000
     30 C18       -2.3396    6.6823    9.3157 C.3       1 RES1    0.0000
     31 H13       -2.3698    5.8315    8.8496 H         1 RES1    0.0000
     32 H14       -3.2326    6.8649    9.6469 H         1 RES1    0.0000
     33 C19        0.3028   11.1728    3.2632 C.3       1 RES1    0.0000
     34 H15        1.1870   11.4960    3.4504 H         1 RES1    0.0000
     35 H16       -0.2765   11.9162    3.0778 H         1 RES1    0.0000
     36 H17        0.3298   10.5918    2.5009 H         1 RES1    0.0000
     37 C20       -1.4082    6.5511   10.4937 C.3       1 RES1    0.0000
     38 H18       -0.5342    6.3017   10.1853 H         1 RES1    0.0000
     39 H19       -1.7404    5.8763   11.0916 H         1 RES1    0.0000
     40 H20       -1.3569    7.3902   10.9553 H         1 RES1    0.0000
     41 C21       -1.6960   10.0393    9.2481 C.3       1 RES1    0.0000
     42 H21       -1.4772    9.7066   10.1217 H         1 RES1    0.0000
     43 H22       -2.1602   10.8760    9.3312 H         1 RES1    0.0000
     44 H23       -0.8890   10.1699    8.7452 H         1 RES1    0.0000
     45 N1        -1.9799    7.7219    8.3576 N.3       1 RES1    0.0000
     46 N2         6.4552    6.1434   -0.3721 N.pl3     1 RES1    0.0000
     47 N3         2.2961    3.4271    4.7896 N.1       1 RES1    0.0000
     48 O1         0.5732    9.2115    4.5463 O.3       1 RES1    0.0000
     49 O2         6.9308    5.0951   -0.7977 O.2       1 RES1    0.0000
     50 O3         6.7408    7.2502   -0.8241 O.2       1 RES1    0.0000
@<TRIPOS>BOND
     1    1    2 1
     2    2    7 2
     3    3    7 1
     4    4    1 ar
     5    5    4 1
     6    6   11 ar
     7    7    8 1
     8    9    1 ar
     9   10    9 1
    10   11    4 ar
    11   12   11 1
    12   13   15 ar
    13   14    3 ar
    14   15   14 ar
    15   16   15 1
    16   17    6 ar
    17   18   17 1
    18   19    2 1
    19   20   21 1
    20   22   20 1
    21   23   24 1
    22   25   23 1
    23   26    3 ar
    24   27   26 1
    25   28   13 ar
    26   29   28 1
    27   30   31 1
    28   32   30 1
    29   33   23 1
    30   34   33 1
    31   35   33 1
    32   36   33 1
    33   37   30 1
    34   38   37 1
    35   39   37 1
    36   40   37 1
    37   41   20 1
    38   42   41 1
    39   43   41 1
    40   44   41 1
    41   45   13 1
    42   46    6 1
    43   47   19 3
    44   48   14 1
    45   49   46 2
    46   50   46 2
    47    9   17 ar
    48   20   45 1
    49   23   48 1
    50   26   28 ar
    51   30   45 1
@<TRIPOS>SUBSTRUCTURE
     1 RES1 1

@<TRIPOS>CRYSIN
   4.7414   17.2225   22.7210  90.0000  91.3510  90.0000  14 1

