# MOL2 file generated by ConQuest
# Please check atom types

@<TRIPOS>MOLECULE
ANUDIY
    61    48     2
SMALL
NO_CHARGES
****
Generated from CSD

@<TRIPOS>ATOM
      1 C1        13.7599    7.7046    8.7059 C.3       1 RES1    0.0000
      2 H1        14.1762    7.1820    9.3947 H         1 RES1    0.0000
      3 H2        14.4355    8.1739    8.2091 H         1 RES1    0.0000
      4 H3        13.2741    7.1257    8.1145 H         1 RES1    0.0000
      5 C2        12.7985    8.7137    9.3397 C.3       1 RES1    0.0000
      6 H4        13.2964    9.3184    9.9127 H         1 RES1    0.0000
      7 H5        12.3766    9.2394    8.6424 H         1 RES1    0.0000
      8 C3        12.0498    7.7570   11.5529 C.3       1 RES1    0.0000
      9 H6        13.0077    7.6584   11.6658 H         1 RES1    0.0000
     10 H7        11.6289    6.9254   11.8196 H         1 RES1    0.0000
     11 C4        11.5642    8.8522   12.4181 C.3       1 RES1    0.0000
     12 H8        11.7825    8.6589   13.3327 H         1 RES1    0.0000
     13 H9        10.6125    8.9335   12.3263 H         1 RES1    0.0000
     14 H10       11.9819    9.6759   12.1570 H         1 RES1    0.0000
     15 C5        10.6045    7.5763    9.5496 C.ar      1 RES1    0.0000
     16 C6         9.4961    7.1531   10.3031 C.ar      1 RES1    0.0000
     17 H11        9.5415    7.1703   11.2324 H         1 RES1    0.0000
     18 C7         8.3567    6.7181    9.6944 C.ar      1 RES1    0.0000
     19 H12        7.6451    6.4483   10.2303 H         1 RES1    0.0000
     20 C8         8.2030    6.6560    8.3113 C.ar      1 RES1    0.0000
     21 C9         9.3138    7.1061    7.5628 C.ar      1 RES1    0.0000
     22 C10       10.4691    7.5434    8.1600 C.ar      1 RES1    0.0000
     23 H13       11.1769    7.8250    7.6276 H         1 RES1    0.0000
     24 C11        7.0516    6.1566    7.6068 C.2       1 RES1    0.0000
     25 H14        7.1064    6.2441    6.6819 H         1 RES1    0.0000
     26 C12        5.9022    5.5828    8.0383 C.2       1 RES1    0.0000
     27 C13        5.6401    5.3805    9.4324 C.1       1 RES1    0.0000
     28 C14        4.8360    5.0996    7.1331 C.ar      1 RES1    0.0000
     29 C15        3.7582    4.3713    7.6339 C.ar      1 RES1    0.0000
     30 H15        3.7225    4.1805    8.5436 H         1 RES1    0.0000
     31 C16        2.7457    3.9286    6.8116 C.ar      1 RES1    0.0000
     32 H16        2.0308    3.4475    7.1632 H         1 RES1    0.0000
     33 C17        2.8009    4.2024    5.4775 C.ar      1 RES1    0.0000
     34 C18        3.8526    4.9103    4.9417 C.ar      1 RES1    0.0000
     35 H17        3.8814    5.0871    4.0283 H         1 RES1    0.0000
     36 C19        4.8611    5.3546    5.7634 C.ar      1 RES1    0.0000
     37 H18        5.5703    5.8326    5.4003 H         1 RES1    0.0000
     38 C20       10.1599    7.6060    5.3760 C.3       1 RES1    0.0000
     39 H19       10.3219    8.5205    5.6190 H         1 RES1    0.0000
     40 H20        9.8719    7.5646    4.4616 H         1 RES1    0.0000
     41 H21       10.9682    7.0991    5.4793 H         1 RES1    0.0000
     42 N1        11.7496    8.0237   10.1419 N.pl3     1 RES1    0.0000
     43 N2         5.3705    5.2013   10.5298 N.1       1 RES1    0.0000
     44 N3         1.7257    3.7439    4.5983 N.pl3     1 RES1    0.0000
     45 O1         0.7185    3.2855    5.1119 O.2       1 RES1    0.0000
     46 O2         1.8797    3.8456    3.3899 O.2       1 RES1    0.0000
     47 O3         9.1543    7.0661    6.2121 O.3       1 RES1    0.0000
     48 C21       13.4622    9.0829    8.8005 Du        2 SUP2    0.0000
     49 H22       14.2897    8.9507    8.3333 Du        2 SUP2    0.0000
     50 H23       13.5692    9.7823    9.4498 Du        2 SUP2    0.0000
     51 H24       12.7767    9.3294    8.1752 Du        2 SUP2    0.0000
     52 C22       13.0740    7.8227    9.4893 Du        2 SUP2    0.0000
     53 H25       13.0207    7.0968    8.8471 Du        2 SUP2    0.0000
     54 H26       13.7398    7.5911   10.1569 Du        2 SUP2    0.0000
     55 C23       11.7414    8.3367   11.6178 Du        2 SUP2    0.0000
     56 H27       10.8620    8.6676   11.8620 Du        2 SUP2    0.0000
     57 H28       12.3802    9.0454   11.7914 Du        2 SUP2    0.0000
     58 C24       12.0786    7.1429   12.5028 Du        2 SUP2    0.0000
     59 H29       12.0051    7.3971   13.4259 Du        2 SUP2    0.0000
     60 H30       12.9751    6.8535   12.3207 Du        2 SUP2    0.0000
     61 H31       11.4676    6.4256   12.3193 Du        2 SUP2    0.0000
@<TRIPOS>BOND
     1    1    2 1
     2    3    1 1
     3    4    1 1
     4    5    1 1
     5    6    5 1
     6    7    5 1
     7    8    9 1
     8   10    8 1
     9   11    8 1
    10   12   11 1
    11   13   11 1
    12   14   11 1
    13   15   16 ar
    14   16   17 1
    15   18   16 ar
    16   19   18 1
    17   20   18 ar
    18   21   20 ar
    19   22   15 ar
    20   23   22 1
    21   24   20 1
    22   25   24 1
    23   26   24 2
    24   27   26 1
    25   28   26 1
    26   29   28 ar
    27   30   29 1
    28   31   29 ar
    29   32   31 1
    30   33   31 ar
    31   34   33 ar
    32   35   34 1
    33   36   28 ar
    34   37   36 1
    35   38   39 1
    36   40   38 1
    37   41   38 1
    38   42    5 1
    39   43   27 3
    40   44   33 1
    41   45   44 2
    42   46   44 2
    43   47   21 1
    44    8   42 1
    45   15   42 1
    46   21   22 ar
    47   34   36 ar
    48   38   47 1
@<TRIPOS>SUBSTRUCTURE
     1 RES1 1
     2 SUP2 48

@<TRIPOS>CRYSIN
  16.8290    7.8227   14.6038  90.0000 104.8710  90.0000  14 1

