# MOL2 file generated by ConQuest
# Please check atom types

@<TRIPOS>MOLECULE
ANUXUD
    59    63     1
SMALL
NO_CHARGES
****
Generated from CSD

@<TRIPOS>ATOM
      1 C1         4.9129    8.3754    2.9468 C.2       1 RES1    0.0000
      2 C2         3.9275    8.4329    4.0912 C.3       1 RES1    0.0000
      3 H1         4.3418    8.0168    4.9013 H         1 RES1    0.0000
      4 C3         2.5496    7.8000    3.8500 C.3       1 RES1    0.0000
      5 C4         2.6730    6.4757    3.1250 C.2       1 RES1    0.0000
      6 C5         3.8217    5.5459    3.3463 C.3       1 RES1    0.0000
      7 H2         3.5146    4.6079    3.2693 H         1 RES1    0.0000
      8 H3         4.1903    5.6774    4.2553 H         1 RES1    0.0000
      9 C6         4.9163    5.8254    2.2940 C.3       1 RES1    0.0000
     10 H4         4.4637    5.8223    1.4020 H         1 RES1    0.0000
     11 C7         5.6357    7.1723    2.4180 C.3       1 RES1    0.0000
     12 H5         6.4226    7.0243    3.0169 H         1 RES1    0.0000
     13 C8         6.2089    7.5596    1.0096 C.3       1 RES1    0.0000
     14 H6         6.8106    6.8394    0.6962 H         1 RES1    0.0000
     15 H7         5.4599    7.6315    0.3658 H         1 RES1    0.0000
     16 C9         6.9533    8.8377    1.0277 C.3       1 RES1    0.0000
     17 H8         7.3153    9.0072    0.1219 H         1 RES1    0.0000
     18 H9         7.7214    8.7493    1.6469 H         1 RES1    0.0000
     19 C10        6.1173   10.0356    1.4534 C.3       1 RES1    0.0000
     20 H10        5.5687   10.3264    0.6684 H         1 RES1    0.0000
     21 C11        5.1823    9.6247    2.5505 C.2       1 RES1    0.0000
     22 C12        4.4224   10.5596    3.3998 C.2       1 RES1    0.0000
     23 C13        7.0608   11.1791    1.8223 C.3       1 RES1    0.0000
     24 H11        7.6702   10.8843    2.5303 H         1 RES1    0.0000
     25 H12        6.5379   11.9446    2.1389 H         1 RES1    0.0000
     26 H13        7.5797   11.4422    1.0331 H         1 RES1    0.0000
     27 C14        1.6985    6.3308    2.2202 C.2       1 RES1    0.0000
     28 H14        1.5679    5.5510    1.6929 H         1 RES1    0.0000
     29 C15        0.8394    7.5524    2.1421 C.3       1 RES1    0.0000
     30 H15       -0.0456    7.4055    2.5838 H         1 RES1    0.0000
     31 C16        1.6609    8.6117    2.8757 C.3       1 RES1    0.0000
     32 H16        1.0722    9.2353    3.3709 H         1 RES1    0.0000
     33 H17        2.2164    9.1305    2.2405 H         1 RES1    0.0000
     34 C17       -0.2063    7.3182    0.0160 C.2       1 RES1    0.0000
     35 C18       -0.2292    7.8082   -1.3946 C.ar      1 RES1    0.0000
     36 C19        0.6705    8.7452   -1.8576 C.ar      1 RES1    0.0000
     37 H18        1.3333    9.0925   -1.2716 H         1 RES1    0.0000
     38 C20        0.6138    9.1839   -3.1741 C.ar      1 RES1    0.0000
     39 H19        1.2274    9.8312   -3.5024 H         1 RES1    0.0000
     40 C21       -0.3582    8.6528   -3.9890 C.ar      1 RES1    0.0000
     41 C22       -1.2752    7.7260   -3.5548 C.ar      1 RES1    0.0000
     42 H20       -1.9407    7.3901   -4.1452 H         1 RES1    0.0000
     43 C23       -1.2125    7.2925   -2.2458 C.ar      1 RES1    0.0000
     44 H21       -1.8313    6.6473   -1.9261 H         1 RES1    0.0000
     45 C24        5.9104    4.6623    2.2843 C.3       1 RES1    0.0000
     46 H22        6.3550    4.6048    3.1559 H         1 RES1    0.0000
     47 H23        6.5809    4.8123    1.5849 H         1 RES1    0.0000
     48 H24        5.4335    3.8250    2.1047 H         1 RES1    0.0000
     49 C25        1.8354    7.5997    5.2039 C.3       1 RES1    0.0000
     50 H25        2.3764    7.0161    5.7761 H         1 RES1    0.0000
     51 H26        0.9585    7.1877    5.0531 H         1 RES1    0.0000
     52 H27        1.7166    8.4689    5.6424 H         1 RES1    0.0000
     53 N1        -0.4192    9.1408   -5.3793 N.pl3     1 RES1    0.0000
     54 O1         3.7270    9.8486    4.3348 O.3       1 RES1    0.0000
     55 O2         4.3633   11.7696    3.3840 O.2       1 RES1    0.0000
     56 O3         0.6780    7.9934    0.7559 O.3       1 RES1    0.0000
     57 O4        -0.8916    6.4202    0.4332 O.2       1 RES1    0.0000
     58 O5         0.3209   10.0017   -5.7461 O.2       1 RES1    0.0000
     59 O6        -1.2301    8.6219   -6.1247 O.2       1 RES1    0.0000
@<TRIPOS>BOND
     1    1    2 1
     2    2    3 1
     3    4    2 1
     4    5    4 1
     5    6    5 1
     6    7    6 1
     7    8    6 1
     8    9    6 1
     9   10    9 1
    10   11    1 1
    11   12   11 1
    12   13   11 1
    13   14   13 1
    14   15   13 1
    15   16   13 1
    16   17   16 1
    17   18   16 1
    18   19   16 1
    19   20   19 1
    20   21    1 2
    21   22   21 1
    22   23   19 1
    23   24   23 1
    24   25   23 1
    25   26   23 1
    26   27    5 2
    27   28   27 1
    28   29   27 1
    29   30   29 1
    30   31    4 1
    31   32   31 1
    32   33   31 1
    33   34   35 1
    34   35   36 ar
    35   36   37 1
    36   38   36 ar
    37   39   38 1
    38   40   38 ar
    39   41   40 ar
    40   42   41 1
    41   43   35 ar
    42   44   43 1
    43   45    9 1
    44   46   45 1
    45   47   45 1
    46   48   45 1
    47   49    4 1
    48   50   49 1
    49   51   49 1
    50   52   49 1
    51   53   40 1
    52   54    2 1
    53   55   22 2
    54   56   29 1
    55   57   34 2
    56   58   53 2
    57   59   53 2
    58    9   11 1
    59   19   21 1
    60   22   54 1
    61   29   31 1
    62   34   56 1
    63   41   43 ar
@<TRIPOS>SUBSTRUCTURE
     1 RES1 1

@<TRIPOS>CRYSIN
  10.2800   10.2740   10.7580  90.0000  96.2300  90.0000   4 1

