# MOL2 file generated by ConQuest
# Please check atom types

@<TRIPOS>MOLECULE
AOXLPY
    40    40     2
SMALL
NO_CHARGES
****
Generated from CSD

@<TRIPOS>ATOM
      1 C1         6.3633   11.0246    3.6081 C.3       1 RES1    0.0000
      2 C2         7.2726    9.9046    4.0136 C.3       1 RES1    0.0000
      3 C3         6.5831    8.9558    5.0019 C.3       1 RES1    0.0000
      4 C4         5.9524    9.7716    6.0904 C.3       1 RES1    0.0000
      5 C5         5.0265   10.8736    5.5567 C.3       1 RES1    0.0000
      6 C6         6.3498   12.8996    2.1375 C.3       1 RES1    0.0000
      7 C7         8.8548    8.7192    2.6325 C.2       1 RES1    0.0000
      8 C8         8.9466    8.0972    1.2437 C.3       1 RES1    0.0000
      9 C9         5.6362    8.0048    4.3273 C.3       1 RES1    0.0000
     10 C10        4.9242    9.1586    8.2077 C.2       1 RES1    0.0000
     11 C11        4.1971    8.1377    8.9261 C.3       1 RES1    0.0000
     12 N1         7.6459    8.1558    5.6739 N.pl3     1 RES1    0.0000
     13 O1         7.1371   11.9553    2.8998 O.3       1 RES1    0.0000
     14 O2         7.5993    9.2262    2.8020 O.3       1 RES1    0.0000
     15 O3         5.1620    8.8634    6.9016 O.3       1 RES1    0.0000
     16 O4         5.8545   11.7232    4.7236 O.3       1 RES1    0.0000
     17 O5         9.6812    8.7530    3.4639 O.2       1 RES1    0.0000
     18 O6         7.7829    6.9817    5.3518 O.2       1 RES1    0.0000
     19 O7         8.3866    8.6899    6.4732 O.2       1 RES1    0.0000
     20 O8         5.3186   10.2111    8.6487 O.2       1 RES1    0.0000
     21 C12        5.1455    1.5753    7.1554 C.3       2 RES2    0.0000
     22 C13        5.7672    2.6976    7.9446 C.3       2 RES2    0.0000
     23 C14        6.3980    3.7252    6.9851 C.3       2 RES2    0.0000
     24 C15        7.4021    2.9319    6.1267 C.3       2 RES2    0.0000
     25 C16        6.7457    1.7308    5.4496 C.3       2 RES2    0.0000
     26 C17        3.7801   -0.3110    7.3881 C.3       2 RES2    0.0000
     27 C18        4.8113    3.6576    9.9186 C.2       2 RES2    0.0000
     28 C19        3.7153    4.4328   10.5678 C.3       2 RES2    0.0000
     29 C20        5.4270    4.5275    6.1748 C.3       2 RES2    0.0000
     30 C21        9.1543    3.7049    4.6612 C.2       2 RES2    0.0000
     31 C22        9.5036    4.7235    3.5929 C.3       2 RES2    0.0000
     32 N2         7.2124    4.7100    7.8198 N.pl3     2 RES2    0.0000
     33 O9         4.5885    0.6806    8.0112 O.3       2 RES2    0.0000
     34 O10        4.6923    3.3736    8.6420 O.3       2 RES2    0.0000
     35 O11        7.8657    3.8469    5.1098 O.3       2 RES2    0.0000
     36 O12        6.1450    0.9037    6.4404 O.3       2 RES2    0.0000
     37 O13        5.8199    3.3353   10.5122 O.2       2 RES2    0.0000
     38 O14        6.6358    5.7151    8.1571 O.2       2 RES2    0.0000
     39 O15        8.3188    4.4193    8.1892 O.2       2 RES2    0.0000
     40 O16        9.9100    2.8440    5.0761 O.2       2 RES2    0.0000
@<TRIPOS>BOND
     1    1    2 1
     2    2    3 1
     3    3    4 1
     4    4    5 1
     5    5   16 1
     6    6   13 1
     7    7    8 1
     8    9    3 1
     9   10   11 1
    10   12    3 1
    11   13    1 1
    12   14    2 1
    13   15    4 1
    14   16    1 1
    15   17    7 2
    16   18   12 2
    17   19   12 2
    18   20   10 2
    19   21   22 1
    20   22   23 1
    21   23   24 1
    22   24   25 1
    23   25   36 1
    24   26   33 1
    25   27   28 1
    26   29   23 1
    27   30   31 1
    28   32   23 1
    29   33   21 1
    30   34   22 1
    31   35   24 1
    32   36   21 1
    33   37   27 2
    34   38   32 2
    35   39   32 2
    36   40   30 2
    37    7   14 1
    38   10   15 1
    39   27   34 1
    40   30   35 1
@<TRIPOS>SUBSTRUCTURE
     1 RES1 1
     2 RES2 21

@<TRIPOS>CRYSIN
  15.0540   22.5360    8.4320  90.0000  90.0000  90.0000  19 1

