# MOL2 file generated by ConQuest
# Please check atom types

@<TRIPOS>MOLECULE
APALOU
    22    23     1
SMALL
NO_CHARGES
****
Generated from CSD

@<TRIPOS>ATOM
      1 O1        -0.5580    3.6333    3.1667 O.2       1 RES1    0.0000
      2 O2         4.1310    1.2033    7.8917 O.2       1 RES1    0.0000
      3 O3         5.8829    1.8211    6.7851 O.2       1 RES1    0.0000
      4 N1         1.6542    3.7913    2.7542 N.am      1 RES1    0.0000
      5 N2         2.6602    4.0998    1.8442 N.2       1 RES1    0.0000
      6 N3         4.6637    1.7253    6.9187 N.pl3     1 RES1    0.0000
      7 C1         3.7798    3.7515    2.4110 C.2       1 RES1    0.0000
      8 H1         4.5993    3.8686    1.9222 H         1 RES1    0.0000
      9 C2         3.5700    3.2011    3.7172 C.ar      1 RES1    0.0000
     10 C3         4.4158    2.7027    4.7028 C.ar      1 RES1    0.0000
     11 H2         5.3976    2.6946    4.5684 H         1 RES1    0.0000
     12 C4         3.8072    2.2567    5.8563 C.ar      1 RES1    0.0000
     13 C5         2.4216    2.2814    6.0642 C.ar      1 RES1    0.0000
     14 H3         2.0525    1.9272    6.8984 H         1 RES1    0.0000
     15 C6         1.5805    2.7772    5.0903 C.ar      1 RES1    0.0000
     16 H4         0.5940    2.7808    5.2134 H         1 RES1    0.0000
     17 C7         2.1809    3.2396    3.9122 C.ar      1 RES1    0.0000
     18 C8         0.3121    3.9954    2.4045 C.2       1 RES1    0.0000
     19 C9         0.0790    4.6523    1.0809 C.3       1 RES1    0.0000
     20 H5         0.4477    4.1233    0.3578 H         1 RES1    0.0000
     21 H6         0.5106    5.4894    1.0485 H         1 RES1    0.0000
     22 H7        -0.8857    4.7435    0.9403 H         1 RES1    0.0000
@<TRIPOS>BOND
     1    1   18 2
     2    2    6 2
     3    3    6 2
     4    4    5 1
     5    5    7 2
     6    6   12 1
     7    7    8 1
     8    9    7 1
     9   10    9 ar
    10   11   10 1
    11   12   10 ar
    12   13   12 ar
    13   14   13 1
    14   15   13 ar
    15   16   15 1
    16   17    4 1
    17   18    4 1
    18   19   18 1
    19   20   19 1
    20   21   19 1
    21   22   19 1
    22    9   17 ar
    23   15   17 ar
@<TRIPOS>SUBSTRUCTURE
     1 RES1 1

@<TRIPOS>CRYSIN
   7.6004    7.9200    9.3621 113.0200  91.4040 118.3500   2 1

