# MOL2 file generated by ConQuest
# Please check atom types

@<TRIPOS>MOLECULE
APENIU
    42    46     2
SMALL
NO_CHARGES
****
Generated from CSD

@<TRIPOS>ATOM
      1 O1        -5.3083    3.4118    7.5290 O.2       1 RES1    0.0000
      2 O2        -4.6734    4.9328    8.9202 O.2       1 RES1    0.0000
      3 N1         0.1123   -2.0482    4.2732 N.2       1 RES1    0.0000
      4 N2        -0.8015   -2.6351    5.1367 N.2       1 RES1    0.0000
      5 N3        -0.9205   -0.4806    5.4466 N.pl3     1 RES1    0.0000
      6 N4        -1.2382    0.7829    5.8594 N.2       1 RES1    0.0000
      7 N5         0.4626    1.4515    4.2396 N.2       1 RES1    0.0000
      8 N6         0.7172    0.2364    3.8669 N.2       1 RES1    0.0000
      9 N7        -0.6295    3.0077    5.4770 N.pl3     1 RES1    0.0000
     10 H1        -0.5729    3.6939    4.8984 H         1 RES1    0.0000
     11 N8        -1.4494    3.4268    6.5052 N.pl3     1 RES1    0.0000
     12 N9        -2.7967    3.2704    6.5128 N.2       1 RES1    0.0000
     13 N10       -2.0777    4.5884    8.2333 N.2       1 RES1    0.0000
     14 N11       -4.4541    4.1200    8.0437 N.pl3     1 RES1    0.0000
     15 C1         0.0149   -0.7556    4.4715 C.2       1 RES1    0.0000
     16 C2        -1.4132   -1.6721    5.8139 C.2       1 RES1    0.0000
     17 H2        -2.0955   -1.8065    6.4607 H         1 RES1    0.0000
     18 C3        -0.5171    1.6580    5.2245 C.2       1 RES1    0.0000
     19 C4        -1.0413    4.2255    7.5193 C.2       1 RES1    0.0000
     20 H3        -0.1429    4.4820    7.6872 H         1 RES1    0.0000
     21 C5        -3.0885    3.9918    7.5778 C.2       1 RES1    0.0000
     22 O3         6.1396    3.3609    8.0556 O.2       2 RES2    0.0000
     23 O4         4.8422    4.9020    8.8563 O.2       2 RES2    0.0000
     24 N12        3.4804   -2.0323    2.3262 N.2       2 RES2    0.0000
     25 N13        3.7546   -2.6149    3.5505 N.2       2 RES2    0.0000
     26 N14        3.6686   -0.4631    3.8777 N.pl3     2 RES2    0.0000
     27 N15        3.7147    0.8022    4.3740 N.2       2 RES2    0.0000
     28 N16        3.1975    1.4586    2.0868 N.2       2 RES2    0.0000
     29 N17        3.1931    0.2460    1.6415 N.2       2 RES2    0.0000
     30 N18        3.4137    3.0314    3.7174 N.pl3     2 RES2    0.0000
     31 H4         3.8448    3.6262    3.1984 H         2 RES2    0.0000
     32 N19        3.5165    3.4443    5.0306 N.pl3     2 RES2    0.0000
     33 N20        4.6263    3.2642    5.7998 N.2       2 RES2    0.0000
     34 N21        3.0990    4.6086    6.8205 N.2       2 RES2    0.0000
     35 N22        5.1574    4.0954    8.0025 N.pl3     2 RES2    0.0000
     36 C6         3.4402   -0.7354    2.5418 C.2       2 RES2    0.0000
     37 C7         3.8754   -1.6484    4.4542 C.2       2 RES2    0.0000
     38 H5         4.0776   -1.7810    5.3719 H         2 RES2    0.0000
     39 C8         3.4682    1.6738    3.4498 C.2       2 RES2    0.0000
     40 C9         2.6224    4.2624    5.6427 C.2       2 RES2    0.0000
     41 H6         1.7895    4.5400    5.2808 H         2 RES2    0.0000
     42 C10        4.2820    3.9856    6.8486 C.2       2 RES2    0.0000
@<TRIPOS>BOND
     1    1   14 2
     2    2   14 2
     3    3    4 1
     4    4   16 2
     5    5    6 1
     6    6   18 2
     7    7    8 2
     8    8   15 1
     9    9   10 1
    10   11    9 1
    11   12   11 1
    12   13   19 2
    13   14   21 1
    14   15    3 2
    15   16    5 1
    16   17   16 1
    17   18    7 1
    18   19   11 1
    19   20   19 1
    20   21   12 2
    21   22   35 2
    22   23   35 2
    23   24   25 1
    24   25   37 2
    25   26   27 1
    26   27   39 2
    27   28   29 2
    28   29   36 1
    29   30   31 1
    30   32   30 1
    31   33   32 1
    32   34   40 2
    33   35   42 1
    34   36   24 2
    35   37   26 1
    36   38   37 1
    37   39   28 1
    38   40   32 1
    39   41   40 1
    40   42   33 2
    41    5   15 1
    42    9   18 1
    43   13   21 1
    44   26   36 1
    45   30   39 1
    46   34   42 1
@<TRIPOS>SUBSTRUCTURE
     1 RES1 1
     2 RES2 22

@<TRIPOS>CRYSIN
  19.4610    8.7866   11.3296  90.0000 106.9970  90.0000   9 1

