# MOL2 file generated by ConQuest
# Please check atom types

@<TRIPOS>MOLECULE
APESIZ
    33    33     1
SMALL
NO_CHARGES
****
Generated from CSD

@<TRIPOS>ATOM
      1 O1         5.8027    5.4944   13.4669 O.2       1 RES1    0.0000
      2 N1         2.6301   11.4668   13.5250 N.2       1 RES1    0.0000
      3 N2         3.6428    6.0904   13.4366 N.am      1 RES1    0.0000
      4 H1         2.8389    5.8797   13.2122 H         1 RES1    0.0000
      5 N3         5.1555    3.1300   12.0160 N.pl3     1 RES1    0.0000
      6 H2         5.9213    3.0401   12.3963 H         1 RES1    0.0000
      7 C1         1.7201    9.3105   13.2533 C.2       1 RES1    0.0000
      8 O2         0.8485    7.2834   12.9986 O.3       1 RES1    0.0000
      9 H3         0.1685    6.8527   13.1544 H         1 RES1    0.0000
     10 O3         2.4456   12.7089   14.1914 O.3       1 RES1    0.0000
     11 H4         3.0796   13.2025   14.0302 H         1 RES1    0.0000
     12 C2         4.2934    4.1732   12.2023 C.2       1 RES1    0.0000
     13 C3         3.1940    3.9450   11.4103 C.2       1 RES1    0.0000
     14 H5         2.4463    4.4936   11.3366 H         1 RES1    0.0000
     15 C4         3.4028    2.7435   10.7390 C.2       1 RES1    0.0000
     16 H6         2.8236    2.3436   10.1323 H         1 RES1    0.0000
     17 C5         4.6090    2.2646   11.1360 C.2       1 RES1    0.0000
     18 H7         4.9953    1.4691   10.8491 H         1 RES1    0.0000
     19 C6         1.6709   10.6676   13.8381 C.2       1 RES1    0.0000
     20 N4         0.7262    8.5641   13.5547 N.2       1 RES1    0.0000
     21 C7         4.6284    5.2820   13.0792 C.2       1 RES1    0.0000
     22 C8         2.9055    8.9080   12.4299 C.3       1 RES1    0.0000
     23 H8         3.1587    9.6456   11.8530 H         1 RES1    0.0000
     24 H9         2.6620    8.1576   11.8654 H         1 RES1    0.0000
     25 N5         0.6721   10.9588   14.6915 N.3       1 RES1    0.0000
     26 H10        0.6437   11.7282   15.0734 H         1 RES1    0.0000
     27 H11        0.0624   10.3750   14.8544 H         1 RES1    0.0000
     28 C9         3.8529    7.3117   14.1870 C.3       1 RES1    0.0000
     29 H12        4.6124    7.1915   14.7780 H         1 RES1    0.0000
     30 H13        3.0733    7.4818   14.7367 H         1 RES1    0.0000
     31 C10        4.1033    8.5146   13.3000 C.3       1 RES1    0.0000
     32 H14        4.8594    8.3235   12.7226 H         1 RES1    0.0000
     33 H15        4.3440    9.2706   13.8588 H         1 RES1    0.0000
@<TRIPOS>BOND
     1    1   21 2
     2    2   10 1
     3    3    4 1
     4    5    6 1
     5    7   19 1
     6    8    9 1
     7   10   11 1
     8   12    5 1
     9   13   12 2
    10   14   13 1
    11   15   13 1
    12   16   15 1
    13   17    5 1
    14   18   17 1
    15   19    2 2
    16   20    7 2
    17   21    3 1
    18   22    7 1
    19   23   22 1
    20   24   22 1
    21   25   19 1
    22   26   25 1
    23   27   25 1
    24   28    3 1
    25   29   28 1
    26   30   28 1
    27   31   22 1
    28   32   31 1
    29   33   31 1
    30    8   20 1
    31   12   21 1
    32   15   17 2
    33   28   31 1
@<TRIPOS>SUBSTRUCTURE
     1 RES1 1

@<TRIPOS>CRYSIN
   6.9360   17.2830   20.6570  90.0000  90.0000  90.0000  61 1

