# MOL2 file generated by ConQuest
# Please check atom types

@<TRIPOS>MOLECULE
APHSYD
    40    42     2
SMALL
USER_CHARGES
****
Generated from CSD

@<TRIPOS>ATOM
      1 N1         7.1770    3.6612    0.3494 N.pl3     1 RES1    1.0000
      2 N2         6.5745    4.0017   -0.7650 N.2       1 RES1    0.0000
      3 N3         4.5097    4.8906    0.6203 N.3       1 RES1    0.0000
      4 O1         9.3638    2.3930   -1.9332 O.2       1 RES1   -1.0000
      5 C1         8.5119    2.8971   -1.2096 C.2       1 RES1    0.0000
      6 C2         8.3247    2.9983    0.1633 C.2       1 RES1    0.0000
      7 C3         6.5694    4.0078    1.6107 C.ar      1 RES1    0.0000
      8 C4         5.2902    4.5721    1.6934 C.ar      1 RES1    0.0000
      9 C5         4.8193    4.8552    2.9877 C.ar      1 RES1    0.0000
     10 C6         5.5468    4.5869    4.1022 C.ar      1 RES1    0.0000
     11 C7         6.8017    4.0070    3.9926 C.ar      1 RES1    0.0000
     12 C8         7.3123    3.7346    2.7603 C.ar      1 RES1    0.0000
     13 H1         8.8379    2.6445    0.8932 H         1 RES1    0.0000
     14 H2         4.0146    5.2585    3.0394 H         1 RES1    0.0000
     15 H3         5.2100    4.8514    5.0036 H         1 RES1    0.0000
     16 H4         7.2842    3.8545    4.7762 H         1 RES1    0.0000
     17 H5         8.1376    3.2381    2.6259 H         1 RES1    0.0000
     18 H6         3.9815    5.4792    0.6823 H         1 RES1    0.0000
     19 H7         4.7580    4.5584   -0.1034 H         1 RES1    0.0000
     20 N4         8.0750    2.0140    6.8149 N.2       2 RES2    0.0000
     21 N5         9.1463    1.8055    7.5427 N.pl3     2 RES2    1.0000
     22 N6         9.8073    1.9657    4.6997 N.3       2 RES2    0.0000
     23 O2         7.0591    1.4417    7.5634 O.3       2 RES2    0.0000
     24 O3         6.7981    0.3710    9.5379 O.2       2 RES2   -1.0000
     25 C9         7.5471    0.9216    8.7502 C.2       2 RES2    0.0000
     26 C10        8.9127    1.1936    8.6902 C.2       2 RES2    0.0000
     27 C11       10.4228    2.2682    7.0506 C.ar      2 RES2    0.0000
     28 C12       10.6905    2.3005    5.6694 C.ar      2 RES2    0.0000
     29 C13       11.9832    2.7426    5.3138 C.ar      2 RES2    0.0000
     30 C14       12.9076    3.1053    6.2566 C.ar      2 RES2    0.0000
     31 C15       12.6203    3.0497    7.6047 C.ar      2 RES2    0.0000
     32 C16       11.3700    2.6338    8.0017 C.ar      2 RES2    0.0000
     33 H8         9.5091    0.9817    9.2216 H         2 RES2    0.0000
     34 H9        11.8215    2.8538    4.3834 H         2 RES2    0.0000
     35 H10       13.7056    3.4093    5.9341 H         2 RES2    0.0000
     36 H11       13.2649    3.4397    8.2705 H         2 RES2    0.0000
     37 H12       11.1293    2.7092    8.9735 H         2 RES2    0.0000
     38 H13       10.0989    1.6476    3.8871 H         2 RES2    0.0000
     39 H14        8.9873    1.7769    4.9623 H         2 RES2    0.0000
     40 O4         7.4092    3.5223   -1.7554 O.3       1 RES1    0.0000
@<TRIPOS>BOND
     1    1    2 2
     2    2   40 1
     3    3    8 1
     4    4    5 1
     5    5    6 2
     6    6    1 1
     7    7    1 1
     8    8    7 ar
     9    9    8 ar
    10   10    9 ar
    11   11   10 ar
    12   12    7 ar
    13   13    6 1
    14   14    9 1
    15   15   10 1
    16   16   11 1
    17   17   12 1
    18   18    3 1
    19   19    3 1
    20   20   21 2
    21   21   26 1
    22   22   28 1
    23   23   20 1
    24   24   25 1
    25   25   23 1
    26   26   25 2
    27   27   21 1
    28   28   27 ar
    29   29   28 ar
    30   30   29 ar
    31   31   30 ar
    32   32   27 ar
    33   33   26 1
    34   34   29 1
    35   35   30 1
    36   36   31 1
    37   37   32 1
    38   38   22 1
    39   39   22 1
    40   40    5 1
    41   11   12 ar
    42   31   32 ar
@<TRIPOS>SUBSTRUCTURE
     1 RES1 1
     2 RES2 20

@<TRIPOS>CRYSIN
  19.8520    3.8050   20.8480  90.0000  97.3600  90.0000 231 1

