# MOL2 file generated by ConQuest
# Please check atom types

@<TRIPOS>MOLECULE
APILUI
    98    98     2
SMALL
NO_CHARGES
****
Generated from CSD

@<TRIPOS>ATOM
      1 O1         9.5422   10.1214    3.5545 O.3       1 RES1    0.0000
      2 O2        14.3776   13.7943    1.7346 O.2       1 RES1    0.0000
      3 O3        16.0511   10.4919    2.9044 O.3       1 RES1    0.0000
      4 H1        15.3358   11.0139    2.7488 H         1 RES1    0.0000
      5 N1        12.7125   12.4071    2.5149 N.am      1 RES1    0.0000
      6 N2        13.6033   11.4611    2.9283 N.2       1 RES1    0.0000
      7 N3        13.8633    6.2970    6.0041 N.2       1 RES1    0.0000
      8 N4        14.6119    5.3762    6.1530 N.2       1 RES1    0.0000
      9 N5         9.2460   12.0731    7.8743 N.3       1 RES1    0.0000
     10 N6         9.5577    7.7464   -0.5583 N.3       1 RES1    0.0000
     11 C1        10.6452   12.2420    3.8973 C.ar      1 RES1    0.0000
     12 C2        10.9095   13.2303    4.8264 C.ar      1 RES1    0.0000
     13 H2        11.4068   13.9676    4.5553 H         1 RES1    0.0000
     14 C3        10.4786   13.1818    6.1224 C.ar      1 RES1    0.0000
     15 H3        10.7070   13.8649    6.7099 H         1 RES1    0.0000
     16 C4         9.7058   12.1229    6.5677 C.ar      1 RES1    0.0000
     17 C5         9.3965   11.1310    5.6452 C.ar      1 RES1    0.0000
     18 H4         8.8681   10.4101    5.9018 H         1 RES1    0.0000
     19 C6         9.8696   11.2087    4.3426 C.ar      1 RES1    0.0000
     20 C7         9.9802   10.1011    2.2411 C.ar      1 RES1    0.0000
     21 C8         9.5753    8.9956    1.5087 C.ar      1 RES1    0.0000
     22 H5         9.0331    8.3551    1.9101 H         1 RES1    0.0000
     23 C9         9.9664    8.8288    0.1887 C.ar      1 RES1    0.0000
     24 C10       10.7742    9.8276   -0.3629 C.ar      1 RES1    0.0000
     25 H6        11.0629    9.7504   -1.2428 H         1 RES1    0.0000
     26 C11       11.1474   10.9221    0.3788 C.ar      1 RES1    0.0000
     27 H7        11.6685   11.5783   -0.0239 H         1 RES1    0.0000
     28 C12       10.7764   11.0854    1.7067 C.ar      1 RES1    0.0000
     29 C13       11.2152   12.2884    2.4963 C.3       1 RES1    0.0000
     30 C14       10.8760   13.5792    1.7758 C.ar      1 RES1    0.0000
     31 C15        9.6226   14.0524    1.4409 C.ar      1 RES1    0.0000
     32 H8         8.8544   13.6038    1.7081 H         1 RES1    0.0000
     33 C16        9.5459   15.2235    0.6925 C.ar      1 RES1    0.0000
     34 H9         8.7150   15.5586    0.4440 H         1 RES1    0.0000
     35 C17       10.6853   15.8840    0.3177 C.ar      1 RES1    0.0000
     36 H10       10.6098   16.6609   -0.1874 H         1 RES1    0.0000
     37 C18       11.9318   15.4379    0.6646 C.ar      1 RES1    0.0000
     38 H11       12.6957   15.9018    0.4107 H         1 RES1    0.0000
     39 C19       12.0157   14.2655    1.4076 C.ar      1 RES1    0.0000
     40 C20       13.2043   13.5313    1.8636 C.2       1 RES1    0.0000
     41 C21       13.2200   10.4312    3.5756 C.2       1 RES1    0.0000
     42 H12       12.3183   10.3226    3.7750 H         1 RES1    0.0000
     43 C22       14.1733    9.4328    4.0050 C.ar      1 RES1    0.0000
     44 C23       15.5347    9.4989    3.6673 C.ar      1 RES1    0.0000
     45 C24       16.3929    8.5084    4.1339 C.ar      1 RES1    0.0000
     46 H13       17.2997    8.5499    3.9292 H         1 RES1    0.0000
     47 C25       15.9123    7.4647    4.8982 C.ar      1 RES1    0.0000
     48 H14       16.5012    6.8132    5.2066 H         1 RES1    0.0000
     49 C26       14.5674    7.3743    5.2132 C.ar      1 RES1    0.0000
     50 C27       13.7313    8.3659    4.7839 C.ar      1 RES1    0.0000
     51 H15       12.8325    8.3267    5.0192 H         1 RES1    0.0000
     52 C28       13.9549    4.3318    6.9572 C.ar      1 RES1    0.0000
     53 C29       14.5823    3.1343    6.9917 C.ar      1 RES1    0.0000
     54 H16       15.3546    2.9963    6.4919 H         1 RES1    0.0000
     55 C30       14.0851    2.1490    7.7481 C.ar      1 RES1    0.0000
     56 H17       14.5227    1.3282    7.7813 H         1 RES1    0.0000
     57 C31       12.9361    2.3343    8.4751 C.ar      1 RES1    0.0000
     58 C32       12.2361    3.5039    8.4366 C.ar      1 RES1    0.0000
     59 H18       11.4441    3.6115    8.9111 H         1 RES1    0.0000
     60 C33       12.7607    4.5336    7.6537 C.ar      1 RES1    0.0000
     61 H19       12.3183    5.3484    7.5965 H         1 RES1    0.0000
     62 N7        12.4340    1.2355    9.2873 N.pl3     1 RES1    0.0000
     63 O4        11.3699    1.3633    9.8323 O.2       1 RES1    0.0000
     64 O5        13.1170    0.2424    9.3989 O.2       1 RES1    0.0000
     65 C34        9.7367   12.9900    8.8938 C.3       1 RES1    0.0000
     66 H20        9.1301   12.9532    9.6502 H         1 RES1    0.0000
     67 H21        9.6965   13.8906    8.5350 H         1 RES1    0.0000
     68 C35       11.1253   12.7487    9.3950 C.3       1 RES1    0.0000
     69 H22       11.3595   13.4300   10.0290 H         1 RES1    0.0000
     70 H23       11.7408   12.7717    8.6586 H         1 RES1    0.0000
     71 H24       11.1671   11.8885    9.8190 H         1 RES1    0.0000
     72 C36        8.2578   11.0352    8.2851 C.3       1 RES1    0.0000
     73 H25        7.7415   11.3347    9.0507 H         1 RES1    0.0000
     74 H26        7.6503   10.8311    7.5580 H         1 RES1    0.0000
     75 C37        9.0385    9.9083    8.6187 C.3       1 RES1    0.0000
     76 H27        8.4623    9.1854    8.8779 H         1 RES1    0.0000
     77 H28        9.6233   10.1284    9.3458 H         1 RES1    0.0000
     78 H29        9.5599    9.6446    7.8570 H         1 RES1    0.0000
     79 C38        9.9352    7.5768   -1.9327 C.3       1 RES1    0.0000
     80 H30        9.9848    8.4353   -2.3580 H         1 RES1    0.0000
     81 H31        9.2781    7.0500   -2.3939 H         1 RES1    0.0000
     82 C39        8.7556    6.6942    0.0319 C.3       1 RES1    0.0000
     83 H32        8.1360    7.1045    0.6553 H         1 RES1    0.0000
     84 H33        8.2259    6.2915   -0.6739 H         1 RES1    0.0000
     85 C40        9.4224    5.6783    0.6978 C.3       1 RES1    0.0000
     86 H34        8.7828    5.0655    1.0700 H         1 RES1    0.0000
     87 H35        9.9543    6.0529    1.4037 H         1 RES1    0.0000
     88 H36        9.9908    5.2107    0.0811 H         1 RES1    0.0000
     89 C41       11.2223    6.9438   -1.9912 C.3       1 RES1    0.0000
     90 H37       11.5138    6.8945   -2.9044 H         1 RES1    0.0000
     91 H38       11.1617    6.0583   -1.6256 H         1 RES1    0.0000
     92 H39       11.8540    7.4571   -1.4821 H         1 RES1    0.0000
     93 H40        9.9470    6.6540   -2.1959 Du        2 SUP2    0.0000
     94 H41       10.7901    7.9714   -2.1148 Du        2 SUP2    0.0000
     95 C42        8.9282    8.2997   -2.5308 Du        2 SUP2    0.0000
     96 H42        8.0974    7.8188   -2.4524 Du        2 SUP2    0.0000
     97 H43        9.1323    8.4306   -3.4586 Du        2 SUP2    0.0000
     98 H44        8.8430    9.1523   -2.0975 Du        2 SUP2    0.0000
@<TRIPOS>BOND
     1    1   19 1
     2    2   40 2
     3    3    4 1
     4    5    6 1
     5    6   41 2
     6    7    8 2
     7    8   52 1
     8    9   16 1
     9   10   23 1
    10   11   12 ar
    11   12   13 1
    12   14   12 ar
    13   15   14 1
    14   16   14 ar
    15   17   16 ar
    16   18   17 1
    17   19   11 ar
    18   20    1 1
    19   21   20 ar
    20   22   21 1
    21   23   21 ar
    22   24   23 ar
    23   25   24 1
    24   26   24 ar
    25   27   26 1
    26   28   20 ar
    27   29    5 1
    28   30   29 1
    29   31   30 ar
    30   32   31 1
    31   33   31 ar
    32   34   33 1
    33   35   33 ar
    34   36   35 1
    35   37   35 ar
    36   38   37 1
    37   39   30 ar
    38   40    5 1
    39   41   42 1
    40   43   41 1
    41   44    3 1
    42   45   44 ar
    43   46   45 1
    44   47   45 ar
    45   48   47 1
    46   49    7 1
    47   50   43 ar
    48   51   50 1
    49   52   53 ar
    50   53   54 1
    51   55   53 ar
    52   56   55 1
    53   57   55 ar
    54   58   57 ar
    55   59   58 1
    56   60   52 ar
    57   61   60 1
    58   62   57 1
    59   63   62 2
    60   64   62 2
    61   65    9 1
    62   66   65 1
    63   67   65 1
    64   68   65 1
    65   69   68 1
    66   70   68 1
    67   71   68 1
    68   72    9 1
    69   73   72 1
    70   74   72 1
    71   75   72 1
    72   76   75 1
    73   77   75 1
    74   78   75 1
    75   79   10 1
    76   80   79 1
    77   81   79 1
    78   82   10 1
    79   83   82 1
    80   84   82 1
    81   85   82 1
    82   86   85 1
    83   87   85 1
    84   88   85 1
    85   89   79 1
    86   90   89 1
    87   91   89 1
    88   92   89 1
    89   11   29 1
    90   17   19 ar
    91   26   28 ar
    92   28   29 1
    93   37   39 ar
    94   39   40 1
    95   43   44 ar
    96   47   49 ar
    97   49   50 ar
    98   58   60 ar
@<TRIPOS>SUBSTRUCTURE
     1 RES1 1
     2 SUP2 93

@<TRIPOS>CRYSIN
  10.2440   13.8307   14.5665  72.3415  70.1280  75.9246   2 1

