# MOL2 file generated by ConQuest
# Please check atom types

@<TRIPOS>MOLECULE
APIWOM
    96    98     2
SMALL
NO_CHARGES
****
Generated from CSD

@<TRIPOS>ATOM
      1 O1         6.7209    6.9023    0.5216 O.3       1 RES1    0.0000
      2 O2         4.8519    9.2415    0.7512 O.3       1 RES1    0.0000
      3 O3         6.1204   11.5057    1.8185 O.3       1 RES1    0.0000
      4 O4         8.4972   10.2021    2.8038 O.3       1 RES1    0.0000
      5 O5        14.1736   10.6514   -3.1794 O.2       1 RES1    0.0000
      6 O6        13.0595    9.2976   -4.4389 O.2       1 RES1    0.0000
      7 O7         5.0691    8.1268    4.5938 O.3       2 RES2    0.0000
      8 O8         7.3856    6.9114    6.1523 O.3       2 RES2    0.0000
      9 O9         6.0245    4.4328    6.1683 O.3       2 RES2    0.0000
     10 O10        3.3527    4.6656    7.0157 O.3       2 RES2    0.0000
     11 O11       -2.0080    4.4601    1.0503 O.2       2 RES2    0.0000
     12 O12       -0.8594    5.8518   -0.1317 O.2       2 RES2    0.0000
     13 N1        10.0477    8.3926    1.0031 N.3       1 RES1    0.0000
     14 N2        13.2605    9.8388   -3.3343 N.pl3     1 RES1    0.0000
     15 N3         1.8183    6.7144    5.5043 N.3       2 RES2    0.0000
     16 N4        -1.1158    5.3090    0.9479 N.pl3     2 RES2    0.0000
     17 C1        10.7980    8.7792   -0.0659 C.ar      1 RES1    0.0000
     18 C2        11.9013    9.6630    0.0952 C.ar      1 RES1    0.0000
     19 C3        12.6851   10.0253   -0.9836 C.ar      1 RES1    0.0000
     20 C4        12.4053    9.5068   -2.2359 C.ar      1 RES1    0.0000
     21 C5        11.3222    8.6639   -2.4308 C.ar      1 RES1    0.0000
     22 C6        10.5235    8.3289   -1.3796 C.ar      1 RES1    0.0000
     23 C7         8.9859    7.3935    0.8634 C.3       1 RES1    0.0000
     24 C8         7.6379    7.9848    0.4415 C.3       1 RES1    0.0000
     25 C9         5.4694    7.1207   -0.1255 C.3       1 RES1    0.0000
     26 C10        4.4935    7.8847    0.7477 C.3       1 RES1    0.0000
     27 C11        4.1833   10.0192    1.7241 C.3       1 RES1    0.0000
     28 C12        4.7019   11.4306    1.6449 C.3       1 RES1    0.0000
     29 C13        6.4960   11.4503    3.1856 C.3       1 RES1    0.0000
     30 C14        8.0030   11.4519    3.2560 C.3       1 RES1    0.0000
     31 C15        9.9122   10.2072    2.7415 C.3       1 RES1    0.0000
     32 C16       10.3896    8.8277    2.3552 C.3       1 RES1    0.0000
     33 C17        1.1167    6.3763    4.4015 C.ar      2 RES2    0.0000
     34 C18       -0.0074    5.4879    4.4674 C.ar      2 RES2    0.0000
     35 C19       -0.7152    5.1453    3.3450 C.ar      2 RES2    0.0000
     36 C20       -0.3573    5.6653    2.1104 C.ar      2 RES2    0.0000
     37 C21        0.7128    6.5446    1.9911 C.ar      2 RES2    0.0000
     38 C22        1.4410    6.8690    3.1020 C.ar      2 RES2    0.0000
     39 C23        2.9280    7.6649    5.4242 C.3       2 RES2    0.0000
     40 C24        4.2312    7.0479    4.9640 C.3       2 RES2    0.0000
     41 C25        6.3505    7.7528    4.0944 C.3       2 RES2    0.0000
     42 C26        7.4313    7.9044    5.1376 C.3       2 RES2    0.0000
     43 C27        7.9742    5.6774    5.7473 C.3       2 RES2    0.0000
     44 C28        7.3799    4.5738    6.5591 C.3       2 RES2    0.0000
     45 C29        5.3844    3.4186    6.8991 C.3       2 RES2    0.0000
     46 C30        3.9166    3.4504    6.5546 C.3       2 RES2    0.0000
     47 C31        1.9400    4.6981    6.9365 C.3       2 RES2    0.0000
     48 C32        1.4916    6.1307    6.7816 C.3       2 RES2    0.0000
     49 H1        12.1355   10.0208    0.8990 H         1 RES1    0.0000
     50 H2        13.3744   10.5817   -0.9435 H         1 RES1    0.0000
     51 H3        11.1172    8.3380   -3.2844 H         1 RES1    0.0000
     52 H4         9.8689    7.8074   -1.5221 H         1 RES1    0.0000
     53 H5         8.8697    6.9736    1.7357 H         1 RES1    0.0000
     54 H6         9.2253    6.6249    0.2225 H         1 RES1    0.0000
     55 H7         7.4382    8.6564    0.9880 H         1 RES1    0.0000
     56 H8         7.7061    8.2774   -0.4539 H         1 RES1    0.0000
     57 H9         5.1806    6.1853   -0.2581 H         1 RES1    0.0000
     58 H10        5.6087    7.5952   -0.9613 H         1 RES1    0.0000
     59 H11        3.6394    7.7164    0.4361 H         1 RES1    0.0000
     60 H12        4.5471    7.4436    1.6912 H         1 RES1    0.0000
     61 H13        4.3980    9.5660    2.5724 H         1 RES1    0.0000
     62 H14        3.2142    9.9753    1.5577 H         1 RES1    0.0000
     63 H15        4.4968   11.7945    0.8011 H         1 RES1    0.0000
     64 H16        4.2466   12.0522    2.3676 H         1 RES1    0.0000
     65 H17        6.1183   10.6575    3.4981 H         1 RES1    0.0000
     66 H18        6.1960   12.1735    3.6494 H         1 RES1    0.0000
     67 H19        8.3123   12.1886    2.7326 H         1 RES1    0.0000
     68 H20        8.2594   11.4610    4.2991 H         1 RES1    0.0000
     69 H21       10.2853   10.4604    3.6761 H         1 RES1    0.0000
     70 H22       10.2048   10.9000    2.0917 H         1 RES1    0.0000
     71 H23       11.2921    8.7170    2.5012 H         1 RES1    0.0000
     72 H24        9.9193    8.1712    2.9017 H         1 RES1    0.0000
     73 H25       -0.2275    5.1241    5.4385 H         2 RES2    0.0000
     74 H26       -1.4814    4.5480    3.4714 H         2 RES2    0.0000
     75 H27        0.9697    6.8523    1.0770 H         2 RES2    0.0000
     76 H28        2.1926    7.5497    3.0263 H         2 RES2    0.0000
     77 H29        3.0537    8.0954    6.3108 H         2 RES2    0.0000
     78 H30        2.7153    8.3835    4.7887 H         2 RES2    0.0000
     79 H31        4.7231    6.5340    5.6432 H         2 RES2    0.0000
     80 H32        4.1454    6.4885    4.2101 H         2 RES2    0.0000
     81 H33        6.5990    8.3380    3.3289 H         2 RES2    0.0000
     82 H34        6.3243    6.7462    3.8185 H         2 RES2    0.0000
     83 H35        8.4243    7.8832    4.7531 H         2 RES2    0.0000
     84 H36        7.2636    8.7473    5.6521 H         2 RES2    0.0000
     85 H37        8.9361    5.7305    5.9013 H         2 RES2    0.0000
     86 H38        7.7425    5.4576    4.7442 H         2 RES2    0.0000
     87 H39        7.8742    3.7597    6.3286 H         2 RES2    0.0000
     88 H40        7.4176    4.7299    7.5836 H         2 RES2    0.0000
     89 H41        5.4784    3.5020    8.0197 H         2 RES2    0.0000
     90 H42        5.8450    2.6075    6.5422 H         2 RES2    0.0000
     91 H43        3.7830    3.3504    5.5631 H         2 RES2    0.0000
     92 H44        3.5020    2.6682    7.0317 H         2 RES2    0.0000
     93 H45        1.5535    4.3206    7.8862 H         2 RES2    0.0000
     94 H46        1.6505    4.1690    6.2395 H         2 RES2    0.0000
     95 H47        0.5363    6.1550    6.9160 H         2 RES2    0.0000
     96 H48        1.9251    6.7007    7.4857 H         2 RES2    0.0000
@<TRIPOS>BOND
     1    1   24 1
     2    2   26 1
     3    3   28 1
     4    4   30 1
     5    5   14 2
     6    6   14 2
     7    7   40 1
     8    8   42 1
     9    9   44 1
    10   10   46 1
    11   11   16 2
    12   12   16 2
    13   13   17 1
    14   14   20 1
    15   15   33 1
    16   16   36 1
    17   17   18 ar
    18   18   19 ar
    19   19   20 ar
    20   20   21 ar
    21   21   22 ar
    22   22   17 ar
    23   23   13 1
    24   24   23 1
    25   25    1 1
    26   26   25 1
    27   27    2 1
    28   28   27 1
    29   29    3 1
    30   30   29 1
    31   31    4 1
    32   32   13 1
    33   33   34 ar
    34   34   35 ar
    35   35   36 ar
    36   36   37 ar
    37   37   38 ar
    38   38   33 ar
    39   39   15 1
    40   40   39 1
    41   41    7 1
    42   42   41 1
    43   43    8 1
    44   44   43 1
    45   45    9 1
    46   46   45 1
    47   47   10 1
    48   48   15 1
    49   49   18 1
    50   50   19 1
    51   51   21 1
    52   52   22 1
    53   53   23 1
    54   54   23 1
    55   55   24 1
    56   56   24 1
    57   57   25 1
    58   58   25 1
    59   59   26 1
    60   60   26 1
    61   61   27 1
    62   62   27 1
    63   63   28 1
    64   64   28 1
    65   65   29 1
    66   66   29 1
    67   67   30 1
    68   68   30 1
    69   69   31 1
    70   70   31 1
    71   71   32 1
    72   72   32 1
    73   73   34 1
    74   74   35 1
    75   75   37 1
    76   76   38 1
    77   77   39 1
    78   78   39 1
    79   79   40 1
    80   80   40 1
    81   81   41 1
    82   82   41 1
    83   83   42 1
    84   84   42 1
    85   85   43 1
    86   86   43 1
    87   87   44 1
    88   88   44 1
    89   89   45 1
    90   90   45 1
    91   91   46 1
    92   92   46 1
    93   93   47 1
    94   94   47 1
    95   95   48 1
    96   96   48 1
    97   31   32 1
    98   47   48 1
@<TRIPOS>SUBSTRUCTURE
     1 RES1 1
     2 RES2 7

@<TRIPOS>CRYSIN
  24.3610   15.1600    8.9060  90.0000  91.9340  90.0000  14 1

