# MOL2 file generated by ConQuest
# Please check atom types

@<TRIPOS>MOLECULE
APOREE
    50    52     1
SMALL
NO_CHARGES
****
Generated from CSD

@<TRIPOS>ATOM
      1 O1         8.7364   -1.6047    4.5132 O.2       1 RES1    0.0000
      2 O2        10.3487    0.3105    0.6910 O.3       1 RES1    0.0000
      3 N1         8.4612    1.2069    2.8937 N.3       1 RES1    0.0000
      4 O3         7.0148   -2.4052    2.2181 O.2       1 RES1    0.0000
      5 O4         8.4564   -2.9369    0.7270 O.2       1 RES1    0.0000
      6 C1         6.5646   -0.6694    4.5634 C.ar      1 RES1    0.0000
      7 C2         4.3286    0.2763    4.4777 C.ar      1 RES1    0.0000
      8 C3         8.3008   -0.1082    2.7295 C.2       1 RES1    0.0000
      9 N2         7.9561   -2.1146    1.4899 N.pl3     1 RES1    0.0000
     10 C4         5.6332    0.1225    3.9470 C.ar      1 RES1    0.0000
     11 H1         5.8620    0.5688    3.1642 H         1 RES1    0.0000
     12 C5         3.9812   -0.4282    5.6548 C.ar      1 RES1    0.0000
     13 C6         7.9116   -0.8840    4.0000 C.2       1 RES1    0.0000
     14 C7         8.4942   -0.8052    1.5571 C.2       1 RES1    0.0000
     15 C8         8.4696    2.1830    1.7912 C.3       1 RES1    0.0000
     16 H2         8.1617    1.7576    0.9749 H         1 RES1    0.0000
     17 H3         9.3729    2.5020    1.6426 H         1 RES1    0.0000
     18 O5         8.9354   -0.6457   -0.7599 O.2       1 RES1    0.0000
     19 C9         2.6563   -0.3029    6.1509 C.ar      1 RES1    0.0000
     20 H4         2.4071   -0.7663    6.9182 H         1 RES1    0.0000
     21 C10        9.2545   -0.3969    0.3620 C.2       1 RES1    0.0000
     22 C11        8.7903    1.7889    4.2126 C.3       1 RES1    0.0000
     23 H5         9.7143    2.0823    4.2112 H         1 RES1    0.0000
     24 H6         8.6942    1.1072    4.8962 H         1 RES1    0.0000
     25 C12        3.3622    1.0977    3.8622 C.ar      1 RES1    0.0000
     26 H7         3.5853    1.5800    3.0978 H         1 RES1    0.0000
     27 C13        6.2153   -1.3512    5.7500 C.ar      1 RES1    0.0000
     28 H8         6.8431   -1.8848    6.1798 H         1 RES1    0.0000
     29 C14        7.8961    2.9607    4.5501 C.3       1 RES1    0.0000
     30 H9         8.1889    3.3623    5.3822 H         1 RES1    0.0000
     31 H10        6.9852    2.6483    4.6712 H         1 RES1    0.0000
     32 C15        1.7591    0.4776    5.5250 C.ar      1 RES1    0.0000
     33 H11        0.8949    0.5422    5.8625 H         1 RES1    0.0000
     34 C16        7.5591    3.3557    2.1330 C.3       1 RES1    0.0000
     35 H12        7.6156    4.0185    1.4263 H         1 RES1    0.0000
     36 H13        6.6418    3.0452    2.1777 H         1 RES1    0.0000
     37 C17        4.9535   -1.2268    6.2649 C.ar      1 RES1    0.0000
     38 H14        4.7371   -1.6873    7.0422 H         1 RES1    0.0000
     39 C18        2.1043    1.1898    4.3799 C.ar      1 RES1    0.0000
     40 H15        1.4714    1.7320    3.9660 H         1 RES1    0.0000
     41 C19       11.0759    1.0208   -0.3750 C.3       1 RES1    0.0000
     42 H16       10.5754    0.9524   -1.2028 H         1 RES1    0.0000
     43 H17       11.1432    1.9599   -0.1428 H         1 RES1    0.0000
     44 C20        7.9294    4.0004    3.4497 C.3       1 RES1    0.0000
     45 H18        7.3056    4.7145    3.6516 H         1 RES1    0.0000
     46 H19        8.8191    4.3840    3.3877 H         1 RES1    0.0000
     47 C21       12.3683    0.4966   -0.5697 C.3       1 RES1    0.0000
     48 H20       12.8294    1.0198   -1.2287 H         1 RES1    0.0000
     49 H21       12.3022   -0.4121   -0.8711 H         1 RES1    0.0000
     50 H22       12.8531    0.5251    0.2582 H         1 RES1    0.0000
@<TRIPOS>BOND
     1    1   13 2
     2    2   21 1
     3    3    8 1
     4    4    9 2
     5    5    9 2
     6    6   10 ar
     7    7   10 ar
     8    8   13 1
     9    9   14 1
    10   10   11 1
    11   12    7 ar
    12   13    6 1
    13   14    8 2
    14   15    3 1
    15   16   15 1
    16   17   15 1
    17   18   21 2
    18   19   12 ar
    19   20   19 1
    20   21   14 1
    21   22    3 1
    22   23   22 1
    23   24   22 1
    24   25    7 ar
    25   26   25 1
    26   27    6 ar
    27   28   27 1
    28   29   22 1
    29   30   29 1
    30   31   29 1
    31   32   19 ar
    32   33   32 1
    33   34   15 1
    34   35   34 1
    35   36   34 1
    36   37   12 ar
    37   38   37 1
    38   39   25 ar
    39   40   39 1
    40   41    2 1
    41   42   41 1
    42   43   41 1
    43   44   29 1
    44   45   44 1
    45   46   44 1
    46   47   41 1
    47   48   47 1
    48   49   47 1
    49   50   47 1
    50   27   37 ar
    51   32   39 ar
    52   34   44 1
@<TRIPOS>SUBSTRUCTURE
     1 RES1 1

@<TRIPOS>CRYSIN
  14.2787    9.4954   14.5637  90.0000  98.0030  90.0000 231 1

