# MOL2 file generated by ConQuest
# Please check atom types

@<TRIPOS>MOLECULE
APOXAG
    64    70     2
SMALL
NO_CHARGES
****
Generated from CSD

@<TRIPOS>ATOM
      1 O1         4.4869    6.8006    3.7845 O.2       1 RES1    0.0000
      2 O2         6.5184    6.4214    4.3778 O.2       1 RES1    0.0000
      3 O3        10.0253    8.7755    0.6386 O.3       1 RES1    0.0000
      4 O4         7.5066   10.8857    0.2200 O.3       1 RES1    0.0000
      5 N1         5.6936    6.9924    3.6794 N.pl3     1 RES1    0.0000
      6 C1         9.3167   12.6925   -1.9823 C.ar      1 RES1    0.0000
      7 H1         8.8684   13.0176   -1.2348 H         1 RES1    0.0000
      8 C2         9.4584   13.4986   -3.0999 C.ar      1 RES1    0.0000
      9 H2         9.1015   14.3571   -3.0957 H         1 RES1    0.0000
     10 C3        10.1201   13.0456   -4.2142 C.ar      1 RES1    0.0000
     11 H3        10.2182   13.5929   -4.9588 H         1 RES1    0.0000
     12 C4        10.6391   11.7665   -4.2132 C.ar      1 RES1    0.0000
     13 H4        11.0935   11.4521   -4.9609 H         1 RES1    0.0000
     14 C5        10.4874   10.9541   -3.1165 C.ar      1 RES1    0.0000
     15 H5        10.8238   10.0875   -3.1425 H         1 RES1    0.0000
     16 C6         9.8373   11.4009   -1.9639 C.ar      1 RES1    0.0000
     17 C7         9.7203   10.5521   -0.7775 C.2       1 RES1    0.0000
     18 C8        10.2446    9.3482   -0.5732 C.2       1 RES1    0.0000
     19 H6        10.7403    8.9167   -1.2316 H         1 RES1    0.0000
     20 C9         9.2658    9.7466    1.4145 C.3       1 RES1    0.0000
     21 H7         9.7553   10.0454    2.2089 H         1 RES1    0.0000
     22 C10        7.9095    9.2256    1.7575 C.ar      1 RES1    0.0000
     23 C11        7.5153    8.2497    2.6421 C.ar      1 RES1    0.0000
     24 H8         8.1320    7.7908    3.1664 H         1 RES1    0.0000
     25 C12        6.1627    7.9828    2.7166 C.ar      1 RES1    0.0000
     26 C13        5.2283    8.6449    1.9378 C.ar      1 RES1    0.0000
     27 H9         4.3276    8.4242    2.0074 H         1 RES1    0.0000
     28 C14        5.6269    9.6280    1.0623 C.ar      1 RES1    0.0000
     29 H10        5.0115   10.0831    0.5338 H         1 RES1    0.0000
     30 C15        6.9748    9.9139    0.9990 C.ar      1 RES1    0.0000
     31 C16        8.9600   10.9073    0.4598 C.3       1 RES1    0.0000
     32 H11        9.2523   11.7660    0.8298 H         1 RES1    0.0000
     33 O5         4.1119    6.7468   -1.5179 O.2       2 RES2    0.0000
     34 O6         2.6287    8.1768   -0.9148 O.2       2 RES2    0.0000
     35 O7        -0.8589    5.6676    2.9209 O.3       2 RES2    0.0000
     36 O8         1.9147    4.1085    3.6652 O.3       2 RES2    0.0000
     37 N2         3.2173    7.1099   -0.7722 N.pl3     2 RES2    0.0000
     38 C17       -1.7584    2.7013    6.0253 C.ar      2 RES2    0.0000
     39 H12       -2.5218    3.0235    5.6026 H         2 RES2    0.0000
     40 C18       -1.8781    1.7255    6.9984 C.ar      2 RES2    0.0000
     41 H13       -2.7173    1.3876    7.2133 H         2 RES2    0.0000
     42 C19       -0.7640    1.2519    7.6516 C.ar      2 RES2    0.0000
     43 H14       -0.8481    0.5976    8.3069 H         2 RES2    0.0000
     44 C20        0.4665    1.7507    7.3317 C.ar      2 RES2    0.0000
     45 H15        1.2201    1.4449    7.7814 H         2 RES2    0.0000
     46 C21        0.5983    2.7077    6.3431 C.ar      2 RES2    0.0000
     47 H16        1.4450    3.0248    6.1250 H         2 RES2    0.0000
     48 C22       -0.5112    3.2041    5.6699 C.ar      2 RES2    0.0000
     49 C23       -0.3557    4.2240    4.6290 C.2       2 RES2    0.0000
     50 C24        0.9150    4.9496    4.3423 C.3       2 RES2    0.0000
     51 H17        1.2837    5.3540    5.1551 H         2 RES2    0.0000
     52 C25        2.2703    4.7465    2.5290 C.ar      2 RES2    0.0000
     53 C26        3.3145    4.3560    1.7052 C.ar      2 RES2    0.0000
     54 H18        3.8085    3.5904    1.8911 H         2 RES2    0.0000
     55 C27        3.6004    5.1298    0.6096 C.ar      2 RES2    0.0000
     56 H19        4.3018    4.8974    0.0436 H         2 RES2    0.0000
     57 C28        2.8395    6.2595    0.3476 C.ar      2 RES2    0.0000
     58 C29        1.7800    6.6389    1.1477 C.ar      2 RES2    0.0000
     59 H20        1.2731    7.3933    0.9492 H         2 RES2    0.0000
     60 C30        1.5000    5.8656    2.2464 C.ar      2 RES2    0.0000
     61 C31        0.4892    6.0178    3.3377 C.3       2 RES2    0.0000
     62 H21        0.5199    6.9145    3.7323 H         2 RES2    0.0000
     63 C32       -1.2618    4.6819    3.7708 C.2       2 RES2    0.0000
     64 H22       -2.1290    4.3459    3.7521 H         2 RES2    0.0000
@<TRIPOS>BOND
     1    1    5 2
     2    2    5 2
     3    3   18 1
     4    4   30 1
     5    5   25 1
     6    6    7 1
     7    8    6 ar
     8    9    8 1
     9   10    8 ar
    10   11   10 1
    11   12   10 ar
    12   13   12 1
    13   14   12 ar
    14   15   14 1
    15   16    6 ar
    16   17   16 1
    17   18   17 2
    18   19   18 1
    19   20    3 1
    20   21   20 1
    21   22   20 1
    22   23   22 ar
    23   24   23 1
    24   25   23 ar
    25   26   25 ar
    26   27   26 1
    27   28   26 ar
    28   29   28 1
    29   30   22 ar
    30   31    4 1
    31   32   31 1
    32   33   37 2
    33   34   37 2
    34   35   61 1
    35   36   50 1
    36   37   57 1
    37   38   39 1
    38   40   38 ar
    39   41   40 1
    40   42   40 ar
    41   43   42 1
    42   44   42 ar
    43   45   44 1
    44   46   44 ar
    45   47   46 1
    46   48   38 ar
    47   49   48 1
    48   50   49 1
    49   51   50 1
    50   52   36 1
    51   53   52 ar
    52   54   53 1
    53   55   53 ar
    54   56   55 1
    55   57   55 ar
    56   58   57 ar
    57   59   58 1
    58   60   52 ar
    59   61   50 1
    60   62   61 1
    61   63   35 1
    62   64   63 1
    63   14   16 ar
    64   17   31 1
    65   20   31 1
    66   28   30 ar
    67   46   48 ar
    68   49   63 2
    69   58   60 ar
    70   60   61 1
@<TRIPOS>SUBSTRUCTURE
     1 RES1 1
     2 RES2 33

@<TRIPOS>CRYSIN
  10.6863   11.6232   11.9288  76.2550  64.1090  88.5710   2 1

