# MOL2 file generated by ConQuest
# Please check atom types

@<TRIPOS>MOLECULE
APOYUA
    62    62     2
SMALL
NO_CHARGES
****
Generated from CSD

@<TRIPOS>ATOM
      1 O1         7.3893    4.6156    4.9634 O.3       1 RES1    0.0000
      2 H1         7.9790    5.0234    4.5266 H         1 RES1    0.0000
      3 O2         3.8135    5.3924    1.7772 O.3       1 RES1    0.0000
      4 H2         3.5218    5.1022    1.0446 H         1 RES1    0.0000
      5 O3        10.1514    6.9716   -0.7632 O.2       1 RES1    0.0000
      6 O4        10.4035    8.9742   -1.5379 O.2       1 RES1    0.0000
      7 N1         6.4888    5.9757    2.5952 N.2       1 RES1    0.0000
      8 N2         9.8113    8.1431   -0.8486 N.pl3     1 RES1    0.0000
      9 C1         6.4368    4.0491    4.0635 C.3       1 RES1    0.0000
     10 H3         5.8520    3.4228    4.5600 H         1 RES1    0.0000
     11 H4         6.9140    3.5309    3.3686 H         1 RES1    0.0000
     12 C2         4.6611    4.4141    2.3701 C.3       1 RES1    0.0000
     13 H5         5.2090    3.9722    1.6732 H         1 RES1    0.0000
     14 H6         4.1154    3.7232    2.8223 H         1 RES1    0.0000
     15 C3         4.7319    5.8446    4.4486 C.3       1 RES1    0.0000
     16 H7         5.3253    6.2999    5.0806 H         1 RES1    0.0000
     17 H8         4.1794    5.1937    4.9305 H         1 RES1    0.0000
     18 H9         4.1539    6.5032    4.0104 H         1 RES1    0.0000
     19 C4         5.5730    5.1174    3.3901 C.3       1 RES1    0.0000
     20 C5         6.1588    7.1809    2.3800 C.2       1 RES1    0.0000
     21 H10        5.3862    7.5196    2.8179 H         1 RES1    0.0000
     22 C6         6.9077    8.0900    1.4861 C.ar      1 RES1    0.0000
     23 C7         6.4513    9.4053    1.3465 C.ar      1 RES1    0.0000
     24 H11        5.7000    9.6971    1.8489 H         1 RES1    0.0000
     25 C8         7.0847   10.2946    0.4796 C.ar      1 RES1    0.0000
     26 H12        6.7554   11.1805    0.3905 H         1 RES1    0.0000
     27 C9         8.1927    9.8941   -0.2536 C.ar      1 RES1    0.0000
     28 H13        8.6320   10.4900   -0.8477 H         1 RES1    0.0000
     29 C10        8.6344    8.5867   -0.0845 C.ar      1 RES1    0.0000
     30 C11        8.0212    7.6721    0.7490 C.ar      1 RES1    0.0000
     31 H14        8.3464    6.7834    0.8199 H         1 RES1    0.0000
     32 O5         2.3029    4.7053    7.0845 O.3       2 RES2    0.0000
     33 H15        1.6792    4.2909    7.4647 H         2 RES2    0.0000
     34 O6         5.9747    2.7450    8.3724 O.3       2 RES2    0.0000
     35 H16        6.7484    2.9796    8.1433 H         2 RES2    0.0000
     36 O7        -0.0200    1.8737   13.1557 O.2       2 RES2    0.0000
     37 O8        -1.0032   -0.0423   13.0084 O.2       2 RES2    0.0000
     38 N3         3.1282    3.2536    9.4285 N.2       2 RES2    0.0000
     39 N4        -0.1525    0.7613   12.6520 N.pl3     2 RES2    0.0000
     40 C12        3.1742    5.2547    8.0655 C.3       2 RES2    0.0000
     41 H17        2.6308    5.7267    8.7440 H         2 RES2    0.0000
     42 H18        3.7593    5.9244    7.6315 H         2 RES2    0.0000
     43 C13        5.0151    3.6010    7.7535 C.3       2 RES2    0.0000
     44 H19        4.4950    3.0822    7.0898 H         2 RES2    0.0000
     45 H20        5.4867    4.3257    7.2722 H         2 RES2    0.0000
     46 C14        4.8315    4.9178    9.8885 C.3       2 RES2    0.0000
     47 H21        4.2028    5.2670   10.5540 H         2 RES2    0.0000
     48 H22        5.3498    5.6571    9.5083 H         2 RES2    0.0000
     49 H23        5.4401    4.2799   10.3170 H         2 RES2    0.0000
     50 C15        4.0567    4.2145    8.7765 C.3       2 RES2    0.0000
     51 C16        3.2944    2.0011    9.2871 C.2       2 RES2    0.0000
     52 H24        4.0055    1.6922    8.7384 H         2 RES2    0.0000
     53 C17        2.4140    1.0067    9.9507 C.ar      2 RES2    0.0000
     54 C18        2.4446   -0.3179    9.5157 C.ar      2 RES2    0.0000
     55 H25        3.0332   -0.5659    8.8119 H         2 RES2    0.0000
     56 C19        1.6236   -1.2838   10.0984 C.ar      2 RES2    0.0000
     57 H26        1.6573   -2.1811    9.7897 H         2 RES2    0.0000
     58 C20        0.7619   -0.9404   11.1236 C.ar      2 RES2    0.0000
     59 H27        0.1916   -1.5878   11.5218 H         2 RES2    0.0000
     60 C21        0.7550    0.3826   11.5552 C.ar      2 RES2    0.0000
     61 C22        1.5626    1.3570   11.0065 C.ar      2 RES2    0.0000
     62 H28        1.5415    2.2471   11.3383 H         2 RES2    0.0000
@<TRIPOS>BOND
     1    1    2 1
     2    3    4 1
     3    5    8 2
     4    6    8 2
     5    7   19 1
     6    8   29 1
     7    9    1 1
     8   10    9 1
     9   11    9 1
    10   12    3 1
    11   13   12 1
    12   14   12 1
    13   15   16 1
    14   17   15 1
    15   18   15 1
    16   19    9 1
    17   20    7 2
    18   21   20 1
    19   22   20 1
    20   23   22 ar
    21   24   23 1
    22   25   23 ar
    23   26   25 1
    24   27   25 ar
    25   28   27 1
    26   29   27 ar
    27   30   22 ar
    28   31   30 1
    29   32   33 1
    30   34   35 1
    31   36   39 2
    32   37   39 2
    33   38   50 1
    34   39   60 1
    35   40   32 1
    36   41   40 1
    37   42   40 1
    38   43   34 1
    39   44   43 1
    40   45   43 1
    41   46   47 1
    42   48   46 1
    43   49   46 1
    44   50   40 1
    45   51   38 2
    46   52   51 1
    47   53   51 1
    48   54   53 ar
    49   55   54 1
    50   56   54 ar
    51   57   56 1
    52   58   56 ar
    53   59   58 1
    54   60   58 ar
    55   61   53 ar
    56   62   61 1
    57   12   19 1
    58   15   19 1
    59   29   30 ar
    60   43   50 1
    61   46   50 1
    62   60   61 ar
@<TRIPOS>SUBSTRUCTURE
     1 RES1 1
     2 RES2 32

@<TRIPOS>CRYSIN
  10.9105   18.3136   11.3030  90.0000 100.1910  90.0000 231 1

