# MOL2 file generated by ConQuest
# Please check atom types

@<TRIPOS>MOLECULE
APOZAH
    47    47     1
SMALL
NO_CHARGES
****
Generated from CSD

@<TRIPOS>ATOM
      1 C1         3.2457    6.7936    0.7263 C.ar      1 RES1    0.0000
      2 C2         2.9407    8.1535    0.8273 C.ar      1 RES1    0.0000
      3 H1         3.4899    8.7234    1.3535 H         1 RES1    0.0000
      4 C3         1.8441    8.6747    0.1653 C.ar      1 RES1    0.0000
      5 H2         1.6376    9.6004    0.2178 H         1 RES1    0.0000
      6 C4         1.0519    7.8116   -0.5767 C.ar      1 RES1    0.0000
      7 C5         1.3112    6.4648   -0.6814 C.ar      1 RES1    0.0000
      8 H3         0.7421    5.8965   -1.1870 H         1 RES1    0.0000
      9 C6         2.4253    5.9592   -0.0293 C.ar      1 RES1    0.0000
     10 H4         2.6312    5.0344   -0.0987 H         1 RES1    0.0000
     11 C7         4.3990    6.1916    1.4329 C.2       1 RES1    0.0000
     12 H5         4.5992    5.2749    1.2849 H         1 RES1    0.0000
     13 C8         6.1571    6.1566    3.0239 C.3       1 RES1    0.0000
     14 C9         7.2612    7.1952    3.2163 C.3       1 RES1    0.0000
     15 H6         7.6432    7.4526    2.3401 H         1 RES1    0.0000
     16 H7         6.8937    8.0071    3.6486 H         1 RES1    0.0000
     17 C10        9.3275    7.3916    4.3609 C.2       1 RES1    0.0000
     18 C11       10.3629    6.6844    5.1718 C.3       1 RES1    0.0000
     19 H8        11.0717    6.3531    4.5815 H         1 RES1    0.0000
     20 H9         9.9505    5.9306    5.6422 H         1 RES1    0.0000
     21 H10       10.7464    7.3057    5.8253 H         1 RES1    0.0000
     22 C12        6.7033    4.8510    2.4420 C.3       1 RES1    0.0000
     23 H11        7.3019    4.4117    3.0962 H         1 RES1    0.0000
     24 H12        5.9575    4.2319    2.2367 H         1 RES1    0.0000
     25 C13        7.7963    4.1038    0.4844 C.2       1 RES1    0.0000
     26 C14        8.6711    4.5031   -0.6550 C.3       1 RES1    0.0000
     27 H13        9.6090    4.3521   -0.4151 H         1 RES1    0.0000
     28 H14        8.5347    5.4527   -0.8555 H         1 RES1    0.0000
     29 H15        8.4446    3.9668   -1.4435 H         1 RES1    0.0000
     30 C15        5.5373    5.8569    4.3885 C.3       1 RES1    0.0000
     31 H16        6.2304    5.5304    5.0164 H         1 RES1    0.0000
     32 H17        5.1283    6.6745    4.7677 H         1 RES1    0.0000
     33 C16        4.0579    4.2256    5.2783 C.2       1 RES1    0.0000
     34 C17        3.2000    3.0658    4.8884 C.3       1 RES1    0.0000
     35 H18        2.8482    2.6343    5.6951 H         1 RES1    0.0000
     36 H19        3.7342    2.4203    4.3802 H         1 RES1    0.0000
     37 H20        2.4564    3.3814    4.3345 H         1 RES1    0.0000
     38 N1        -0.1055    8.3544   -1.3063 N.pl3     1 RES1    0.0000
     39 N2         5.1253    6.8542    2.2254 N.2       1 RES1    0.0000
     40 O1        -0.4294    9.5170   -1.0921 O.2       1 RES1    0.0000
     41 O2        -0.6911    7.6272   -2.0956 O.2       1 RES1    0.0000
     42 O3         8.2836    6.6026    4.0529 O.3       1 RES1    0.0000
     43 O4         9.3967    8.5249    3.9982 O.2       1 RES1    0.0000
     44 O5         7.4325    5.1672    1.2351 O.3       1 RES1    0.0000
     45 O6         7.4760    2.9739    0.7596 O.2       1 RES1    0.0000
     46 O7         4.5308    4.8432    4.1795 O.3       1 RES1    0.0000
     47 O8         4.3169    4.5830    6.3984 O.2       1 RES1    0.0000
@<TRIPOS>BOND
     1    1    2 ar
     2    2    3 1
     3    4    2 ar
     4    5    4 1
     5    6    4 ar
     6    7    6 ar
     7    8    7 1
     8    9    1 ar
     9   10    9 1
    10   11    1 1
    11   12   11 1
    12   13   14 1
    13   14   15 1
    14   16   14 1
    15   17   18 1
    16   18   19 1
    17   20   18 1
    18   21   18 1
    19   22   13 1
    20   23   22 1
    21   24   22 1
    22   25   26 1
    23   26   27 1
    24   28   26 1
    25   29   26 1
    26   30   13 1
    27   31   30 1
    28   32   30 1
    29   33   34 1
    30   34   35 1
    31   36   34 1
    32   37   34 1
    33   38    6 1
    34   39   11 2
    35   40   38 2
    36   41   38 2
    37   42   14 1
    38   43   17 2
    39   44   22 1
    40   45   25 2
    41   46   30 1
    42   47   33 2
    43    7    9 ar
    44   13   39 1
    45   17   42 1
    46   25   44 1
    47   33   46 1
@<TRIPOS>SUBSTRUCTURE
     1 RES1 1

@<TRIPOS>CRYSIN
  21.8720   10.6435    7.9620  90.0000  97.5860  90.0000  14 1

