# MOL2 file generated by ConQuest
# Please check atom types

@<TRIPOS>MOLECULE
APUCOE
    74    74     2
SMALL
NO_CHARGES
****
Generated from CSD

@<TRIPOS>ATOM
      1 O1         0.1578    6.7260   10.9648 O.3       1 RES1    0.0000
      2 O2         1.2788   10.7699   17.2950 O.2       1 RES1    0.0000
      3 O3         2.0996    6.6406    9.8832 O.2       1 RES1    0.0000
      4 O4         0.9910    8.6653   17.6314 O.2       1 RES1    0.0000
      5 C1         0.6552    9.4512   15.4977 C.ar      1 RES1    0.0000
      6 N1         1.0004    9.6538   16.9073 N.pl3     1 RES1    0.0000
      7 C2         0.1365    9.1147   12.8116 C.ar      1 RES1    0.0000
      8 C3         0.2696   10.3808   13.3671 C.ar      1 RES1    0.0000
      9 H1         0.1724   11.1322   12.8102 H         1 RES1    0.0000
     10 C4        -0.1235    9.0347   11.3703 C.2       1 RES1    0.0000
     11 H2        -0.3759    9.8533   10.9842 H         1 RES1    0.0000
     12 C5         0.5356   10.5773   14.6943 C.ar      1 RES1    0.0000
     13 H3         0.6330   11.4421   15.0496 H         1 RES1    0.0000
     14 C6        -0.0714    8.0340   10.5109 C.2       1 RES1    0.0000
     15 C7         0.4954    8.1901   15.0062 C.ar      1 RES1    0.0000
     16 H4         0.5542    7.4458   15.5788 H         1 RES1    0.0000
     17 C8         1.2584    6.0880   10.5019 C.2       1 RES1    0.0000
     18 C9         0.1788    8.9885    8.2597 C.2       1 RES1    0.0000
     19 C10       -0.4259    8.1376    9.0768 C.2       1 RES1    0.0000
     20 C11        0.2464    8.0142   13.6536 C.ar      1 RES1    0.0000
     21 H5         0.1508    7.1466   13.3048 H         1 RES1    0.0000
     22 C12        1.3808    9.8237    8.6170 C.3       1 RES1    0.0000
     23 H6         1.6368    9.6452    9.5351 H         1 RES1    0.0000
     24 H7         1.1629   10.7638    8.5183 H         1 RES1    0.0000
     25 H8         2.1175    9.5994    8.0272 H         1 RES1    0.0000
     26 C13       -0.2456    9.1747    6.8258 C.3       1 RES1    0.0000
     27 H9        -0.8900    8.4892    6.5884 H         1 RES1    0.0000
     28 H10        0.5292    9.1052    6.2478 H         1 RES1    0.0000
     29 H11       -0.6511   10.0504    6.7198 H         1 RES1    0.0000
     30 C14        1.2514    4.6520   10.9114 C.3       1 RES1    0.0000
     31 H12        2.0392    4.2107   10.5570 H         1 RES1    0.0000
     32 H13        0.4549    4.2208   10.5640 H         1 RES1    0.0000
     33 H14        1.2549    4.5915   11.8799 H         1 RES1    0.0000
     34 C15       -1.5551    7.2027    8.6601 C.3       1 RES1    0.0000
     35 H15       -2.2215    7.7023    8.1620 H         1 RES1    0.0000
     36 H16       -1.9640    6.8162    9.4486 H         1 RES1    0.0000
     37 H17       -1.1993    6.4950    8.0998 H         1 RES1    0.0000
     38 O5        -0.4347    3.8227    1.9215 O.3       2 RES2    0.0000
     39 N2        -0.3527   -2.2622    4.4570 N.pl3     2 RES2    0.0000
     40 C16       -0.5698    1.9352    4.1907 C.ar      2 RES2    0.0000
     41 O6        -0.2770   -2.8998    3.4272 O.2       2 RES2    0.0000
     42 C17       -0.4613   -0.8173    4.3778 C.ar      2 RES2    0.0000
     43 C18       -0.6815   -0.2347    3.1464 C.ar      2 RES2    0.0000
     44 H18       -0.7949   -0.7653    2.3794 H         2 RES2    0.0000
     45 C19       -0.7330    1.1359    3.0649 C.ar      2 RES2    0.0000
     46 H19       -0.8820    1.5422    2.2307 H         2 RES2    0.0000
     47 O7        -2.3547    4.7842    1.2715 O.2       2 RES2    0.0000
     48 C20       -0.3735    1.2950    5.4203 C.ar      2 RES2    0.0000
     49 H20       -0.2758    1.8178    6.1959 H         2 RES2    0.0000
     50 C21       -0.3201   -0.0646    5.5282 C.ar      2 RES2    0.0000
     51 H21       -0.1915   -0.4779    6.3619 H         2 RES2    0.0000
     52 O8        -0.3298   -2.7909    5.5607 O.2       2 RES2    0.0000
     53 C22       -0.6053    3.3936    4.2052 C.2       2 RES2    0.0000
     54 H22       -0.6339    3.7677    5.0667 H         2 RES2    0.0000
     55 C23       -0.7050    5.7553    3.4810 C.2       2 RES2    0.0000
     56 C24       -0.6043    4.2825    3.2333 C.2       2 RES2    0.0000
     57 C25       -1.3623    4.1972    0.9706 C.2       2 RES2    0.0000
     58 C26        1.2781    6.2158    2.0198 C.3       2 RES2    0.0000
     59 H23        1.4600    5.2679    2.1131 H         2 RES2    0.0000
     60 H24        2.0681    6.7227    2.2636 H         2 RES2    0.0000
     61 H25        1.0416    6.4098    1.0998 H         2 RES2    0.0000
     62 C27        0.1348    6.6000    2.9224 C.2       2 RES2    0.0000
     63 C28        0.0100    8.0832    3.1564 C.3       2 RES2    0.0000
     64 H26       -0.9025    8.2958    3.4066 H         2 RES2    0.0000
     65 H27        0.2408    8.5599    2.3431 H         2 RES2    0.0000
     66 H28        0.6120    8.3498    3.8683 H         2 RES2    0.0000
     67 C29       -1.8085    6.1535    4.4023 C.3       2 RES2    0.0000
     68 H29       -1.6955    7.0817    4.6603 H         2 RES2    0.0000
     69 H30       -1.7875    5.5934    5.1929 H         2 RES2    0.0000
     70 H31       -2.6612    6.0457    3.9513 H         2 RES2    0.0000
     71 C30       -0.9745    3.7304   -0.3538 C.3       2 RES2    0.0000
     72 H32       -1.2314    2.8008   -0.4565 H         2 RES2    0.0000
     73 H33       -0.0134    3.8142   -0.4565 H         2 RES2    0.0000
     74 H34       -1.4200    4.2659   -1.0289 H         2 RES2    0.0000
@<TRIPOS>BOND
     1    1   14 1
     2    2    6 2
     3    3   17 2
     4    4    6 2
     5    5    6 1
     6    7    8 ar
     7    8    9 1
     8   10    7 1
     9   11   10 1
    10   12    5 ar
    11   13   12 1
    12   14   10 2
    13   15    5 ar
    14   16   15 1
    15   17    1 1
    16   18   19 2
    17   19   14 1
    18   20    7 ar
    19   21   20 1
    20   22   18 1
    21   23   22 1
    22   24   22 1
    23   25   22 1
    24   26   18 1
    25   27   26 1
    26   28   26 1
    27   29   26 1
    28   30   17 1
    29   31   30 1
    30   32   30 1
    31   33   30 1
    32   34   19 1
    33   35   34 1
    34   36   34 1
    35   37   34 1
    36   38   56 1
    37   39   41 2
    38   40   45 ar
    39   42   39 1
    40   43   42 ar
    41   44   43 1
    42   45   43 ar
    43   46   45 1
    44   47   57 2
    45   48   40 ar
    46   49   48 1
    47   50   42 ar
    48   51   50 1
    49   52   39 2
    50   53   40 1
    51   54   53 1
    52   55   56 1
    53   56   53 2
    54   57   38 1
    55   58   59 1
    56   60   58 1
    57   61   58 1
    58   62   55 2
    59   63   62 1
    60   64   63 1
    61   65   63 1
    62   66   63 1
    63   67   55 1
    64   68   67 1
    65   69   67 1
    66   70   67 1
    67   71   57 1
    68   72   71 1
    69   73   71 1
    70   74   71 1
    71    8   12 ar
    72   15   20 ar
    73   48   50 ar
    74   58   62 1
@<TRIPOS>SUBSTRUCTURE
     1 RES1 1
     2 RES2 38

@<TRIPOS>CRYSIN
   6.9990   12.2770   17.3400  93.4300  91.4500 106.0600   2 1

