# MOL2 file generated by ConQuest
# Please check atom types

@<TRIPOS>MOLECULE
APUHOK
    77    81     1
SMALL
NO_CHARGES
****
Generated from CSD

@<TRIPOS>ATOM
      1 O1         2.8775    4.8709   14.6290 O.2       1 RES1    0.0000
      2 O2         1.0120    4.0873    7.2769 O.2       1 RES1    0.0000
      3 O3         3.2009    4.1987    7.5086 O.3       1 RES1    0.0000
      4 O4         4.4198   -1.1880    4.6103 O.2       1 RES1    0.0000
      5 O5         3.9996   -1.8952    6.5464 O.2       1 RES1    0.0000
      6 N1         3.4421    5.5024   13.6714 N.3       1 RES1    0.0000
      7 N2         5.7548    7.7906   12.2502 N.2       1 RES1    0.0000
      8 N3         4.1307   -1.0214    5.7406 N.pl3     1 RES1    0.0000
      9 C1         2.9928    5.5600   12.3700 C.ar      1 RES1    0.0000
     10 C2         1.8951    4.8788   11.8617 C.ar      1 RES1    0.0000
     11 H1         1.3742    4.3240   12.3968 H         1 RES1    0.0000
     12 C3         1.6187    5.0676   10.5272 C.ar      1 RES1    0.0000
     13 H2         0.9028    4.6081   10.1517 H         1 RES1    0.0000
     14 C4         2.3683    5.9183    9.7124 C.ar      1 RES1    0.0000
     15 C5         3.4349    6.5958   10.2730 C.ar      1 RES1    0.0000
     16 H3         3.9306    7.1855    9.7520 H         1 RES1    0.0000
     17 C6         3.7707    6.4090   11.5948 C.ar      1 RES1    0.0000
     18 C7         4.8292    6.9609   12.4581 C.2       1 RES1    0.0000
     19 C8         4.6668    6.3271   13.8553 C.3       1 RES1    0.0000
     20 C9         5.8626    5.4030   14.1388 C.ar      1 RES1    0.0000
     21 C10        5.7283    4.0284   14.2984 C.ar      1 RES1    0.0000
     22 H4         4.8866    3.6372   14.2333 H         1 RES1    0.0000
     23 C11        6.8338    3.2322   14.5513 C.ar      1 RES1    0.0000
     24 H5         6.7371    2.3117   14.6433 H         1 RES1    0.0000
     25 C12        8.0779    3.8149   14.6662 C.ar      1 RES1    0.0000
     26 H6         8.8196    3.2842   14.8489 H         1 RES1    0.0000
     27 C13        8.2324    5.1497   14.5143 C.ar      1 RES1    0.0000
     28 H7         9.0737    5.5382   14.5998 H         1 RES1    0.0000
     29 C14        7.1382    5.9273   14.2346 C.ar      1 RES1    0.0000
     30 H8         7.2582    6.8394   14.1043 H         1 RES1    0.0000
     31 C15        4.4739    7.2910   15.0404 C.3       1 RES1    0.0000
     32 H9         4.3133    6.7354   15.8195 H         1 RES1    0.0000
     33 H10        5.3310    7.7202   15.1835 H         1 RES1    0.0000
     34 C16        3.4188    8.4080   15.0851 C.3       1 RES1    0.0000
     35 C17        2.0181    7.9155   14.7493 C.3       1 RES1    0.0000
     36 H11        1.3801    8.6028   14.9523 H         1 RES1    0.0000
     37 H12        1.8219    7.1319   15.2678 H         1 RES1    0.0000
     38 H13        1.9703    7.6992   13.8144 H         1 RES1    0.0000
     39 C18        3.4064    8.9286   16.5244 C.3       1 RES1    0.0000
     40 H14        4.2760    9.2666   16.7505 H         1 RES1    0.0000
     41 H15        3.1752    8.2130   17.1208 H         1 RES1    0.0000
     42 H16        2.7589    9.6327   16.6036 H         1 RES1    0.0000
     43 C19        3.7394    9.5566   14.1580 C.3       1 RES1    0.0000
     44 H17        3.6279    9.2747   13.2474 H         1 RES1    0.0000
     45 H18        4.6471    9.8374   14.2972 H         1 RES1    0.0000
     46 H19        3.1469   10.2893   14.3393 H         1 RES1    0.0000
     47 C20        5.9190    8.3220   10.9384 C.ar      1 RES1    0.0000
     48 C21        5.5402    9.6130   10.6753 C.ar      1 RES1    0.0000
     49 H20        5.2270   10.1456   11.3700 H         1 RES1    0.0000
     50 C22        5.6137   10.1405    9.3995 C.ar      1 RES1    0.0000
     51 H21        5.3193   11.0076    9.2360 H         1 RES1    0.0000
     52 C23        6.1177    9.3904    8.3829 C.ar      1 RES1    0.0000
     53 H22        6.1597    9.7340    7.5196 H         1 RES1    0.0000
     54 C24        6.5612    8.1233    8.6473 C.ar      1 RES1    0.0000
     55 H23        6.9252    7.6157    7.9589 H         1 RES1    0.0000
     56 C25        6.4812    7.5863    9.9167 C.ar      1 RES1    0.0000
     57 H24        6.8052    6.7300   10.0814 H         1 RES1    0.0000
     58 C26        1.9758    6.0721    8.2552 C.3       1 RES1    0.0000
     59 C27        0.5814    6.6592    8.1300 C.3       1 RES1    0.0000
     60 H25       -0.0509    6.0791    8.5604 H         1 RES1    0.0000
     61 H26        0.3531    6.7487    7.2016 H         1 RES1    0.0000
     62 H27        0.5593    7.5226    8.5489 H         1 RES1    0.0000
     63 C28        2.9405    6.9597    7.4570 C.3       1 RES1    0.0000
     64 H28        2.9199    7.8517    7.8082 H         1 RES1    0.0000
     65 H29        2.6748    6.9722    6.5337 H         1 RES1    0.0000
     66 H30        3.8310    6.6081    7.5272 H         1 RES1    0.0000
     67 C29        1.9561    4.6840    7.6256 C.2       1 RES1    0.0000
     68 C30        3.3443    2.8845    7.0471 C.ar      1 RES1    0.0000
     69 C31        3.8610    2.6870    5.7955 C.ar      1 RES1    0.0000
     70 H31        4.0519    3.4132    5.2463 H         1 RES1    0.0000
     71 C32        4.0977    1.3922    5.3536 C.ar      1 RES1    0.0000
     72 H32        4.4305    1.2355    4.4992 H         1 RES1    0.0000
     73 C33        3.8321    0.3587    6.1939 C.ar      1 RES1    0.0000
     74 C34        3.3324    0.5411    7.4430 C.ar      1 RES1    0.0000
     75 H33        3.1704   -0.1842    8.0010 H         1 RES1    0.0000
     76 C35        3.0669    1.8389    7.8708 C.ar      1 RES1    0.0000
     77 H34        2.7018    1.9901    8.7137 H         1 RES1    0.0000
@<TRIPOS>BOND
     1    1    6 1
     2    2   67 2
     3    3   67 1
     4    4    8 2
     5    5    8 2
     6    6    9 1
     7    7   18 2
     8    8   73 1
     9    9   10 ar
    10   10   11 1
    11   12   10 ar
    12   13   12 1
    13   14   12 ar
    14   15   14 ar
    15   16   15 1
    16   17    9 ar
    17   18   17 1
    18   19    6 1
    19   20   19 1
    20   21   20 ar
    21   22   21 1
    22   23   21 ar
    23   24   23 1
    24   25   23 ar
    25   26   25 1
    26   27   25 ar
    27   28   27 1
    28   29   20 ar
    29   30   29 1
    30   31   19 1
    31   32   31 1
    32   33   31 1
    33   34   31 1
    34   35   34 1
    35   36   35 1
    36   37   35 1
    37   38   35 1
    38   39   34 1
    39   40   39 1
    40   41   39 1
    41   42   39 1
    42   43   34 1
    43   44   43 1
    44   45   43 1
    45   46   43 1
    46   47    7 1
    47   48   47 ar
    48   49   48 1
    49   50   48 ar
    50   51   50 1
    51   52   50 ar
    52   53   52 1
    53   54   52 ar
    54   55   54 1
    55   56   47 ar
    56   57   56 1
    57   58   14 1
    58   59   58 1
    59   60   59 1
    60   61   59 1
    61   62   59 1
    62   63   58 1
    63   64   63 1
    64   65   63 1
    65   66   63 1
    66   67   58 1
    67   68    3 1
    68   69   68 ar
    69   70   69 1
    70   71   69 ar
    71   72   71 1
    72   73   71 ar
    73   74   73 ar
    74   75   74 1
    75   76   68 ar
    76   77   76 1
    77   15   17 ar
    78   18   19 1
    79   27   29 ar
    80   54   56 ar
    81   74   76 ar
@<TRIPOS>SUBSTRUCTURE
     1 RES1 1

@<TRIPOS>CRYSIN
   9.1861   13.0550   13.3338  75.8720  81.1660  89.5900   2 1

