# MOL2 file generated by ConQuest
# Please check atom types

@<TRIPOS>MOLECULE
APUMIJ
    31    31     1
SMALL
USER_CHARGES
****
Generated from CSD

@<TRIPOS>ATOM
      1 O1         0.7681    3.0895    1.7035 O.2       1 RES1   -1.0000
      2 O2         4.3777    1.4853   -3.1271 O.2       1 RES1    0.0000
      3 O3         5.4222    0.6547   -1.4358 O.2       1 RES1    0.0000
      4 N1         1.6415    2.6718    0.8090 N.pl3     1 RES1    1.0000
      5 N2         4.4933    1.2829   -1.9192 N.pl3     1 RES1    0.0000
      6 N3         2.7011    1.6363    2.5784 N.3       1 RES1    0.0000
      7 C1         2.6978    1.9070    1.2647 C.ar      1 RES1    0.0000
      8 C2         3.6378    1.4941    0.3351 C.ar      1 RES1    0.0000
      9 H1         4.3774    1.0025    0.6104 H         1 RES1    0.0000
     10 C3         3.4765    1.8139   -1.0051 C.ar      1 RES1    0.0000
     11 C4         2.4092    2.5850   -1.4669 C.ar      1 RES1    0.0000
     12 C5         1.5213    2.9851   -0.4964 C.ar      1 RES1    0.0000
     13 H2         0.7943    3.5040   -0.7550 H         1 RES1    0.0000
     14 C6         2.1283    3.0252   -2.8819 C.3       1 RES1    0.0000
     15 H3         2.8836    3.5112   -3.2212 H         1 RES1    0.0000
     16 H4         1.3529    3.5908   -2.8927 H         1 RES1    0.0000
     17 H5         1.9705    2.2549   -3.4320 H         1 RES1    0.0000
     18 C7         3.8256    1.0081    3.2538 C.3       1 RES1    0.0000
     19 H6         4.6136    1.5640    3.1501 H         1 RES1    0.0000
     20 H7         4.0087    0.1494    2.8412 H         1 RES1    0.0000
     21 C8         3.5422    0.8089    4.7276 C.3       1 RES1    0.0000
     22 H8         2.7413    0.2699    4.8269 H         1 RES1    0.0000
     23 H9         3.3718    1.6709    5.1382 H         1 RES1    0.0000
     24 C9         4.6898    0.1301    5.4569 C.3       1 RES1    0.0000
     25 H10        5.4702    0.7053    5.4202 H         1 RES1    0.0000
     26 H11        4.9097   -0.6965    5.0010 H         1 RES1    0.0000
     27 C10        4.3676   -0.1775    6.9116 C.3       1 RES1    0.0000
     28 H12        5.1217   -0.6065    7.3225 H         1 RES1    0.0000
     29 H13        3.6056   -0.7599    6.9548 H         1 RES1    0.0000
     30 H14        4.1723    0.6402    7.3764 H         1 RES1    0.0000
     31 H15        2.1173    1.9761    2.9638 H         1 RES1    0.0000
@<TRIPOS>BOND
     1    1    4 1
     2    2    5 2
     3    3    5 2
     4    4    7 ar
     5    5   10 1
     6    6    7 1
     7    7    8 ar
     8    8    9 1
     9   10    8 ar
    10   11   10 ar
    11   12    4 ar
    12   13   12 1
    13   14   11 1
    14   15   14 1
    15   16   14 1
    16   17   14 1
    17   18    6 1
    18   19   18 1
    19   20   18 1
    20   21   18 1
    21   22   21 1
    22   23   21 1
    23   24   21 1
    24   25   24 1
    25   26   24 1
    26   27   24 1
    27   28   27 1
    28   29   27 1
    29   30   27 1
    30   31    6 1
    31   11   12 ar
@<TRIPOS>SUBSTRUCTURE
     1 RES1 1

@<TRIPOS>CRYSIN
   5.7280    8.0330   24.5750  90.0000  94.0200  90.0000  14 1

