# MOL2 file generated by ConQuest
# Please check atom types

@<TRIPOS>MOLECULE
APUVOY
    29    29     1
SMALL
NO_CHARGES
****
Generated from CSD

@<TRIPOS>ATOM
      1 O1         1.6611   13.8558   -0.5924 O.2       1 RES1    0.0000
      2 N1         4.1866    5.8165    3.2203 N.2       1 RES1    0.0000
      3 N2         2.4114   14.0040    0.3589 N.pl3     1 RES1    0.0000
      4 N3         3.8022    3.2101    2.3330 N.pl3     1 RES1    0.0000
      5 H1         3.4500    3.8652    1.8616 H         1 RES1    0.0000
      6 H2         3.7025    2.3771    2.0696 H         1 RES1    0.0000
      7 O2         2.8095   15.0918    0.7134 O.2       1 RES1    0.0000
      8 C1         3.8775   11.8474    2.9724 C.ar      1 RES1    0.0000
      9 H3         4.3152   11.9352    3.8102 H         1 RES1    0.0000
     10 C2         3.6331   10.5768    2.4648 C.ar      1 RES1    0.0000
     11 C3         2.8679   12.8309    1.0896 C.ar      1 RES1    0.0000
     12 C4         3.8721    8.1272    2.8866 C.2       1 RES1    0.0000
     13 H4         3.3645    7.9479    2.1036 H         1 RES1    0.0000
     14 N4         5.9639    5.1778    6.1317 N.1       1 RES1    0.0000
     15 C5         4.6988    4.7333    3.9371 C.2       1 RES1    0.0000
     16 C6         2.6100   11.5803    0.5400 C.ar      1 RES1    0.0000
     17 H5         2.1735   11.5002   -0.2993 H         1 RES1    0.0000
     18 N5         5.4485    1.4747    4.7465 N.1       1 RES1    0.0000
     19 C7         4.0776    9.3959    3.2224 C.2       1 RES1    0.0000
     20 H6         4.5566    9.5562    4.0267 H         1 RES1    0.0000
     21 C8         3.5047   12.9692    2.2959 C.ar      1 RES1    0.0000
     22 H7         3.6825   13.8316    2.6533 H         1 RES1    0.0000
     23 C9         4.4869    3.4817    3.4445 C.2       1 RES1    0.0000
     24 C10        2.9975   10.4700    1.2324 C.ar      1 RES1    0.0000
     25 H8         2.8299    9.6096    0.8660 H         1 RES1    0.0000
     26 C11        4.3710    7.0112    3.6355 C.2       1 RES1    0.0000
     27 H9         4.8423    7.1600    4.4470 H         1 RES1    0.0000
     28 C12        5.4034    4.9202    5.1617 C.1       1 RES1    0.0000
     29 C13        5.0307    2.3561    4.1566 C.1       1 RES1    0.0000
@<TRIPOS>BOND
     1    1    3 2
     2    2   15 1
     3    3    7 2
     4    4    5 1
     5    6    4 1
     6    8    9 1
     7   10    8 ar
     8   11    3 1
     9   12   13 1
    10   14   28 3
    11   15   23 2
    12   16   11 ar
    13   17   16 1
    14   18   29 3
    15   19   10 1
    16   20   19 1
    17   21    8 ar
    18   22   21 1
    19   23    4 1
    20   24   10 ar
    21   25   24 1
    22   26    2 2
    23   27   26 1
    24   28   15 1
    25   29   23 1
    26   11   21 ar
    27   12   19 2
    28   12   26 1
    29   16   24 ar
@<TRIPOS>SUBSTRUCTURE
     1 RES1 1

@<TRIPOS>CRYSIN
   3.8512   19.0780   21.2300  90.0000  91.0150  90.0000  14 1

