# MOL2 file generated by ConQuest
# Please check atom types

@<TRIPOS>MOLECULE
APUXUE
   178   158     3
SMALL
NO_CHARGES
****
Generated from CSD

@<TRIPOS>ATOM
      1 C1         3.0893    0.0198    6.8129 C.2       1 RES1    0.0000
      2 C2         4.5778    0.0946    6.9707 C.ar      1 RES1    0.0000
      3 C3         5.3206    1.1858    6.5247 C.ar      1 RES1    0.0000
      4 H1         4.8722    1.9126    6.1075 H         1 RES1    0.0000
      5 C4         6.7006    1.2378    6.6754 C.ar      1 RES1    0.0000
      6 H2         7.1875    1.9905    6.3596 H         1 RES1    0.0000
      7 C5         7.3700    0.1776    7.2941 C.ar      1 RES1    0.0000
      8 C6         6.6423   -0.9100    7.7613 C.ar      1 RES1    0.0000
      9 H3         7.0907   -1.6308    8.1866 H         1 RES1    0.0000
     10 C7         5.2658   -0.9481    7.6090 C.ar      1 RES1    0.0000
     11 H4         4.7792   -1.6922    7.9424 H         1 RES1    0.0000
     12 C8         9.7123    1.3098    7.4489 C.3       1 RES1    0.0000
     13 C9         9.1102    2.4081    8.3238 C.3       1 RES1    0.0000
     14 H5         8.3553    2.8230    7.8552 H         1 RES1    0.0000
     15 H6         9.7916    3.0878    8.5102 H         1 RES1    0.0000
     16 H7         8.7985    2.0199    9.1668 H         1 RES1    0.0000
     17 C10       11.0071    0.8272    8.0991 C.3       1 RES1    0.0000
     18 H8        10.8178    0.5078    9.0066 H         1 RES1    0.0000
     19 H9        11.6472    1.5676    8.1406 H         1 RES1    0.0000
     20 H10       11.3870    0.0963    7.5681 H         1 RES1    0.0000
     21 C11       10.0043    1.7847    6.0313 C.3       1 RES1    0.0000
     22 H11       10.3620    1.0412    5.5048 H         1 RES1    0.0000
     23 H12       10.6609    2.5126    6.0583 H         1 RES1    0.0000
     24 H13        9.1757    2.1090    5.6190 H         1 RES1    0.0000
     25 C12        2.3564    0.7456    7.9024 C.ar      1 RES1    0.0000
     26 C13        2.3263    2.1441    7.9205 C.ar      1 RES1    0.0000
     27 H14        2.7136    2.6248    7.1986 H         1 RES1    0.0000
     28 C14        1.7466    2.8456    8.9626 C.ar      1 RES1    0.0000
     29 H15        1.7491    3.7963    8.9511 H         1 RES1    0.0000
     30 C15        1.1573    2.1623   10.0355 C.ar      1 RES1    0.0000
     31 C16        1.1557    0.7652   10.0121 C.ar      1 RES1    0.0000
     32 H16        0.7434    0.2822   10.7178 H         1 RES1    0.0000
     33 C17        1.7520    0.0787    8.9655 C.ar      1 RES1    0.0000
     34 H17        1.7485   -0.8715    8.9733 H         1 RES1    0.0000
     35 C18       -0.0874    2.4108   12.3115 C.3       1 RES1    0.0000
     36 C19       -0.4805    3.6128   13.1532 C.3       1 RES1    0.0000
     37 H18        0.3199    4.1360   13.3695 H         1 RES1    0.0000
     38 H19       -0.9047    3.3071   13.9817 H         1 RES1    0.0000
     39 H20       -1.1094    4.1722   12.6511 H         1 RES1    0.0000
     40 C20        0.8646    1.5425   13.1375 C.3       1 RES1    0.0000
     41 H21        1.1554    0.7757   12.6019 H         1 RES1    0.0000
     42 H22        0.4010    1.2234   13.9404 H         1 RES1    0.0000
     43 H23        1.6456    2.0732   13.3996 H         1 RES1    0.0000
     44 C21       -1.3456    1.6639   11.8906 C.3       1 RES1    0.0000
     45 H24       -1.8946    2.2444   11.3220 H         1 RES1    0.0000
     46 H25       -1.8566    1.4093   12.6875 H         1 RES1    0.0000
     47 H26       -1.0967    0.8594   11.3918 H         1 RES1    0.0000
     48 C22        2.4970   -0.6388    5.8049 C.2       1 RES1    0.0000
     49 C23        0.9865   -0.7378    5.7216 C.3       1 RES1    0.0000
     50 H27        0.6322   -0.0405    6.3438 H         1 RES1    0.0000
     51 C24        0.4042   -0.4018    4.3379 C.3       1 RES1    0.0000
     52 H28        0.4305   -1.2195    3.7809 H         1 RES1    0.0000
     53 H29       -0.5466   -0.1493    4.4502 H         1 RES1    0.0000
     54 C25        1.1161    0.7186    3.5860 C.3       1 RES1    0.0000
     55 H30        1.4049    1.4043    4.2376 H         1 RES1    0.0000
     56 H31        0.4718    1.1452    2.9673 H         1 RES1    0.0000
     57 C26        2.3375    0.2570    2.7830 C.3       1 RES1    0.0000
     58 H32        2.0606   -0.4997    2.2092 H         1 RES1    0.0000
     59 H33        2.6090    0.9972    2.1838 H         1 RES1    0.0000
     60 C27        3.5584   -0.1753    3.5812 C.3       1 RES1    0.0000
     61 H34        4.4176    0.1891    3.4066 H         1 RES1    0.0000
     62 C28        3.3454   -1.2305    4.6866 C.3       1 RES1    0.0000
     63 H35        4.2476   -1.3942    5.0861 H         1 RES1    0.0000
     64 C29        2.8810   -2.5849    4.1290 C.3       1 RES1    0.0000
     65 H36        2.1930   -2.4200    3.4367 H         1 RES1    0.0000
     66 H37        3.6511   -3.0222    3.6857 H         1 RES1    0.0000
     67 C30        2.3034   -3.5538    5.1645 C.3       1 RES1    0.0000
     68 H38        2.4317   -4.4799    4.8403 H         1 RES1    0.0000
     69 H39        2.8119   -3.4587    6.0091 H         1 RES1    0.0000
     70 C31        0.8222   -3.3364    5.4556 C.3       1 RES1    0.0000
     71 H40        0.1575   -3.9461    5.1559 H         1 RES1    0.0000
     72 C32        0.4648   -2.0840    6.2562 C.3       1 RES1    0.0000
     73 H41       -0.0562   -2.1336    7.0495 H         1 RES1    0.0000
     74 C33        2.2986    4.8847   16.8898 C.2       2 RES2    0.0000
     75 C34        0.8253    4.6035   16.8502 C.ar      2 RES2    0.0000
     76 C35       -0.0709    5.5907   16.4407 C.ar      2 RES2    0.0000
     77 H42        0.2623    6.4483   16.2036 H         2 RES2    0.0000
     78 C36       -1.4307    5.3545   16.3699 C.ar      2 RES2    0.0000
     79 H43       -2.0179    6.0418   16.0799 H         2 RES2    0.0000
     80 C37       -1.9364    4.1148   16.7223 C.ar      2 RES2    0.0000
     81 C38       -1.0528    3.1141   17.1328 C.ar      2 RES2    0.0000
     82 H44       -1.3895    2.2598   17.3788 H         2 RES2    0.0000
     83 C39        0.3065    3.3558   17.1848 C.ar      2 RES2    0.0000
     84 H45        0.8957    2.6607   17.4533 H         2 RES2    0.0000
     85 C40       -4.3448    4.4070   15.8103 C.3       2 RES2    0.0000
     86 C41       -4.7187    5.8589   16.2654 C.3       2 RES2    0.0000
     87 H46       -4.8524    5.8717   17.2360 H         2 RES2    0.0000
     88 H47       -5.5446    6.1394   15.8182 H         2 RES2    0.0000
     89 H48       -3.9925    6.4722   16.0275 H         2 RES2    0.0000
     90 C42       -5.5966    3.5652   15.9038 C.3       2 RES2    0.0000
     91 H49       -5.3885    2.6418   15.6533 H         2 RES2    0.0000
     92 H50       -6.2771    3.9245   15.2964 H         2 RES2    0.0000
     93 H51       -5.9363    3.5859   16.8221 H         2 RES2    0.0000
     94 C43       -3.8204    4.4494   14.3991 C.3       2 RES2    0.0000
     95 H52       -3.0601    5.0662   14.3528 H         2 RES2    0.0000
     96 H53       -4.5289    4.7588   13.7961 H         2 RES2    0.0000
     97 H54       -3.5311    3.5531   14.1308 H         2 RES2    0.0000
     98 C44        3.0732    4.2305   15.8452 C.ar      2 RES2    0.0000
     99 C45        3.0626    4.7185   14.5336 C.ar      2 RES2    0.0000
    100 H55        2.6431    5.5537   14.3671 H         2 RES2    0.0000
    101 C46        3.6433    4.0323   13.4504 C.ar      2 RES2    0.0000
    102 H56        3.5990    4.3881   12.5718 H         2 RES2    0.0000
    103 C47        4.2794    2.8271   13.6962 C.ar      2 RES2    0.0000
    104 C48        4.3258    2.3059   15.0046 C.ar      2 RES2    0.0000
    105 H57        4.7630    1.4809   15.1775 H         2 RES2    0.0000
    106 C49        3.7333    3.0060   16.0228 C.ar      2 RES2    0.0000
    107 H58        3.7704    2.6412   16.8998 H         2 RES2    0.0000
    108 C50        5.7007    2.3556   11.5504 C.3       2 RES2    0.0000
    109 C51        7.0425    1.8056   12.0389 C.3       2 RES2    0.0000
    110 H59        6.9793    0.8322   12.1388 H         2 RES2    0.0000
    111 H60        7.2669    2.2091   12.9032 H         2 RES2    0.0000
    112 H61        7.7407    2.0218   11.3855 H         2 RES2    0.0000
    113 C52        6.0177    3.8358   11.4458 C.3       2 RES2    0.0000
    114 H62        5.2201    4.3215   11.1460 Du        3 SUP3    0.0000
    115 H63        6.7432    3.9699   10.7987 H         2 RES2    0.0000
    116 H64        6.2951    4.1742   12.3228 H         2 RES2    0.0000
    117 C53        5.3009    1.6930   10.2468 C.3       2 RES2    0.0000
    118 H65        4.4480    2.0646    9.9391 H         2 RES2    0.0000
    119 H66        5.2050    0.7272   10.3863 H         2 RES2    0.0000
    120 H67        5.9908    1.8581    9.5712 H         2 RES2    0.0000
    121 O1         4.6731    0.7003   12.8668 O.2       2 RES2    0.0000
    122 N1         4.7990    1.9806   12.6606 N.3       2 RES2    0.0000
    123 C54        2.9477    4.4919   15.5343 Du        3 SUP3    0.0000
    124 C55        3.7621    3.4141   15.4439 Du        3 SUP3    0.0000
    125 H68        3.9414    2.8962   16.2194 Du        3 SUP3    0.0000
    126 C56        4.3400    3.0542   14.2275 Du        3 SUP3    0.0000
    127 H69        4.9018    2.2896   14.1767 Du        3 SUP3    0.0000
    128 C57        4.0960    3.8119   13.0904 Du        3 SUP3    0.0000
    129 C58        3.2146    4.9027   13.1792 Du        3 SUP3    0.0000
    130 H70        3.0066    5.4131   12.4052 Du        3 SUP3    0.0000
    131 C59        2.6558    5.2258   14.3908 Du        3 SUP3    0.0000
    132 H71        2.0595    5.9628   14.4495 Du        3 SUP3    0.0000
    133 C60        5.4093    2.3779   11.3712 Du        3 SUP3    0.0000
    134 C61        5.6925    2.4657    9.8804 Du        3 SUP3    0.0000
    135 H72        6.2266    3.2651    9.6949 Du        3 SUP3    0.0000
    136 H73        4.8464    2.5168    9.3904 Du        3 SUP3    0.0000
    137 H74        6.1869    1.6692    9.5950 Du        3 SUP3    0.0000
    138 C62        4.5913    1.1286   11.6932 Du        3 SUP3    0.0000
    139 H75        3.7253    1.1786   11.2364 Du        3 SUP3    0.0000
    140 H76        4.4490    1.0710   12.6606 Du        3 SUP3    0.0000
    141 H77        5.0770    0.3327   11.3871 Du        3 SUP3    0.0000
    142 C63        6.7741    2.2975   12.0674 Du        3 SUP3    0.0000
    143 H78        7.2922    3.1048   11.8676 Du        3 SUP3    0.0000
    144 H79        7.2610    1.5093   11.7439 Du        3 SUP3    0.0000
    145 H80        6.6444    2.2241   13.0365 Du        3 SUP3    0.0000
    146 N2         4.6897    3.5939   11.8169 Du        3 SUP3    0.0000
    147 O2         4.5916    4.5342   10.9541 Du        3 SUP3    0.0000
    148 C64        2.8969    5.5290   17.9066 C.2       2 RES2    0.0000
    149 C65        2.1045    5.8684   19.1590 C.3       2 RES2    0.0000
    150 H81        1.1449    5.8856   18.8791 H         2 RES2    0.0000
    151 C66        2.2218    4.7346   20.1897 C.3       2 RES2    0.0000
    152 H82        1.4748    4.1996   20.4317 H         2 RES2    0.0000
    153 C67        3.6068    4.5060   20.8090 C.3       2 RES2    0.0000
    154 H83        3.7338    4.4745   21.7496 H         2 RES2    0.0000
    155 C68        4.7655    4.3333   19.8390 C.3       2 RES2    0.0000
    156 H84        4.5196    3.6447   19.1725 H         2 RES2    0.0000
    157 H85        5.5497    3.9985   20.3413 H         2 RES2    0.0000
    158 C69        5.1680    5.6074   19.0981 C.3       2 RES2    0.0000
    159 H86        6.1253    5.5413   18.8569 H         2 RES2    0.0000
    160 H87        5.0697    6.3746   19.7164 H         2 RES2    0.0000
    161 C70        4.3646    5.9013   17.8249 C.3       2 RES2    0.0000
    162 H88        4.7579    5.3226   17.1107 H         2 RES2    0.0000
    163 C71        4.5318    7.3576   17.3367 C.3       2 RES2    0.0000
    164 H89        4.9050    7.5556   16.4859 H         2 RES2    0.0000
    165 C72        4.0720    8.4639   18.2813 C.3       2 RES2    0.0000
    166 H90        4.6484    9.1707   18.5444 H         2 RES2    0.0000
    167 C73        2.6262    8.3712   18.7812 C.3       2 RES2    0.0000
    168 H91        2.3814    9.2298   19.2089 H         2 RES2    0.0000
    169 H92        2.0275    8.2425   18.0036 H         2 RES2    0.0000
    170 C74        2.3867    7.2441   19.7750 C.3       2 RES2    0.0000
    171 H93        1.6199    7.4924   20.3492 H         2 RES2    0.0000
    172 H94        3.1829    7.1670   20.3588 H         2 RES2    0.0000
    173 N3         8.7876    0.1252    7.3938 N.3       1 RES1    0.0000
    174 N4         0.6200    2.9395   11.0905 N.3       1 RES1    0.0000
    175 N5        -3.3328    3.8450   16.7491 N.3       2 RES2    0.0000
    176 O3         9.3241   -1.0505    7.4332 O.2       1 RES1    0.0000
    177 O4         0.7542    4.2069   11.0011 O.2       1 RES1    0.0000
    178 O5        -3.7259    2.9770   17.5754 O.2       2 RES2    0.0000
@<TRIPOS>BOND
     1    1    2 1
     2    2    3 ar
     3    3    4 1
     4    5    3 ar
     5    6    5 1
     6    7    5 ar
     7    8    7 ar
     8    9    8 1
     9   10    2 ar
    10   11   10 1
    11   12   13 1
    12   13   14 1
    13   15   13 1
    14   16   13 1
    15   17   12 1
    16   18   17 1
    17   19   17 1
    18   20   17 1
    19   21   12 1
    20   22   21 1
    21   23   21 1
    22   24   21 1
    23   25    1 1
    24   26   25 ar
    25   27   26 1
    26   28   26 ar
    27   29   28 1
    28   30   28 ar
    29   31   30 ar
    30   32   31 1
    31   33   25 ar
    32   34   33 1
    33   35   36 1
    34   36   37 1
    35   38   36 1
    36   39   36 1
    37   40   35 1
    38   41   40 1
    39   42   40 1
    40   43   40 1
    41   44   35 1
    42   45   44 1
    43   46   44 1
    44   47   44 1
    45   48    1 2
    46   49   48 1
    47   50   49 1
    48   51   49 1
    49   52   51 1
    50   53   51 1
    51   54   51 1
    52   55   54 1
    53   56   54 1
    54   57   54 1
    55   58   57 1
    56   59   57 1
    57   60   57 1
    58   61   60 1
    59   62   48 1
    60   63   62 1
    61   64   62 1
    62   65   64 1
    63   66   64 1
    64   67   64 1
    65   68   67 1
    66   69   67 1
    67   70   67 1
    68   71   70 1
    69   72   49 1
    70   73   72 1
    71   74   75 1
    72   75   76 ar
    73   76   77 1
    74   78   76 ar
    75   79   78 1
    76   80   78 ar
    77   81   80 ar
    78   82   81 1
    79   83   75 ar
    80   84   83 1
    81   85   86 1
    82   86   87 1
    83   88   86 1
    84   89   86 1
    85   90   85 1
    86   91   90 1
    87   92   90 1
    88   93   90 1
    89   94   85 1
    90   95   94 1
    91   96   94 1
    92   97   94 1
    93   98   74 1
    94   99   98 ar
    95  100   99 1
    96  101   99 ar
    97  102  101 1
    98  103  101 ar
    99  104  103 ar
   100  105  104 1
   101  106   98 ar
   102  107  106 1
   103  108  109 1
   104  109  110 1
   105  111  109 1
   106  112  109 1
   107  113  108 1
   108  115  113 1
   109  116  113 1
   110  117  108 1
   111  118  117 1
   112  119  117 1
   113  120  117 1
   114  121  122 1
   115  122  103 1
   116  148   74 2
   117  149  148 1
   118  150  149 1
   119  151  149 1
   120  152  151 1
   121  153  151 1
   122  154  153 1
   123  155  153 1
   124  156  155 1
   125  157  155 1
   126  158  155 1
   127  159  158 1
   128  160  158 1
   129  161  148 1
   130  162  161 1
   131  163  161 1
   132  164  163 1
   133  165  163 1
   134  166  165 1
   135  167  165 1
   136  168  167 1
   137  169  167 1
   138  170  149 1
   139  171  170 1
   140  172  170 1
   141  173    7 1
   142  174   30 1
   143  175   80 1
   144  176  173 1
   145  177  174 1
   146  178  175 1
   147    8   10 ar
   148   12  173 1
   149   31   33 ar
   150   35  174 1
   151   60   62 1
   152   70   72 1
   153   81   83 ar
   154   85  175 1
   155  104  106 ar
   156  108  122 1
   157  158  161 1
   158  167  170 1
@<TRIPOS>SUBSTRUCTURE
     1 RES1 1
     2 RES2 74
     3 SUP3 114

@<TRIPOS>CRYSIN
  12.8650   14.4830   16.8750 108.4240  91.4250 108.1590   2 1

