# MOL2 file generated by ConQuest
# Please check atom types

@<TRIPOS>MOLECULE
AQADOM
    30    31     1
SMALL
NO_CHARGES
****
Generated from CSD

@<TRIPOS>ATOM
      1 O1         3.5253    4.9937    4.7805 O.3       1 RES1    0.0000
      2 O2         3.6891    7.5039    4.4359 O.3       1 RES1    0.0000
      3 H1         3.7548    8.3275    4.1154 H         1 RES1    0.0000
      4 O3         3.6706    0.9047    3.8245 O.2       1 RES1    0.0000
      5 N1         4.1924    6.7274    3.3669 N.2       1 RES1    0.0000
      6 C1         6.9198    3.7524    3.2072 C.ar      1 RES1    0.0000
      7 H2         6.6266    3.2572    3.9381 H         1 RES1    0.0000
      8 C2         8.2708    3.8115    2.9151 C.ar      1 RES1    0.0000
      9 H3         8.8814    3.3347    3.4295 H         1 RES1    0.0000
     10 C3         8.7016    4.5649    1.8756 C.ar      1 RES1    0.0000
     11 H4         9.6122    4.6156    1.6923 H         1 RES1    0.0000
     12 C4         7.8185    5.2538    1.0915 C.ar      1 RES1    0.0000
     13 H5         8.1223    5.7656    0.3761 H         1 RES1    0.0000
     14 C5         6.4638    5.1782    1.3765 C.ar      1 RES1    0.0000
     15 H6         5.8575    5.6466    0.8503 H         1 RES1    0.0000
     16 C6         6.0069    4.4201    2.4267 C.ar      1 RES1    0.0000
     17 C7         4.5213    4.3804    2.7235 C.3       1 RES1    0.0000
     18 H7         4.0241    4.4376    1.8803 H         1 RES1    0.0000
     19 C8         4.0899    5.4991    3.6235 C.2       1 RES1    0.0000
     20 C9         3.4810    3.6215    4.6417 C.2       1 RES1    0.0000
     21 C10        4.0249    3.1936    3.5088 C.2       1 RES1    0.0000
     22 C11        2.8281    2.9455    5.7746 C.3       1 RES1    0.0000
     23 H8         2.2892    2.2216    5.4471 H         1 RES1    0.0000
     24 H9         2.2716    3.5717    6.2429 H         1 RES1    0.0000
     25 H10        3.4968    2.6024    6.3707 H         1 RES1    0.0000
     26 C12        4.0581    1.7992    3.0996 C.2       1 RES1    0.0000
     27 C13        4.5818    1.4820    1.7278 C.3       1 RES1    0.0000
     28 H11        4.6183    0.5293    1.6131 H         1 RES1    0.0000
     29 H12        5.4620    1.8509    1.6284 H         1 RES1    0.0000
     30 H13        3.9985    1.8619    1.0667 H         1 RES1    0.0000
@<TRIPOS>BOND
     1    1   19 1
     2    2    3 1
     3    4   26 2
     4    5    2 1
     5    6    7 1
     6    8    6 ar
     7    9    8 1
     8   10    8 ar
     9   11   10 1
    10   12   10 ar
    11   13   12 1
    12   14   12 ar
    13   15   14 1
    14   16    6 ar
    15   17   16 1
    16   18   17 1
    17   19    5 2
    18   20    1 1
    19   21   17 1
    20   22   20 1
    21   23   22 1
    22   24   22 1
    23   25   22 1
    24   26   21 1
    25   27   26 1
    26   28   27 1
    27   29   27 1
    28   30   27 1
    29   14   16 ar
    30   17   19 1
    31   20   21 2
@<TRIPOS>SUBSTRUCTURE
     1 RES1 1

@<TRIPOS>CRYSIN
  10.9050    9.2220   11.8730  90.0000  95.1000  90.0000 231 1

