# MOL2 file generated by ConQuest
# Please check atom types

@<TRIPOS>MOLECULE
AQAFEF
    84    88     2
SMALL
NO_CHARGES
****
Generated from CSD

@<TRIPOS>ATOM
      1 O1        12.4189    8.9655    5.0628 O.2       1 RES1    0.0000
      2 O2         8.2954   13.0910    2.3043 O.3       1 RES1    0.0000
      3 O3        10.3125   12.8249    1.3861 O.2       1 RES1    0.0000
      4 N1         9.1388   10.2304    4.9702 N.2       1 RES1    0.0000
      5 O4        16.0233   12.4805    1.2866 O.2       1 RES1    0.0000
      6 N2         8.7668   11.2068    4.1582 N.pl3     1 RES1    0.0000
      7 H1         8.0051   11.6028    4.2124 H         1 RES1    0.0000
      8 O5        14.7222   13.5795    2.5743 O.2       1 RES1    0.0000
      9 N3        14.9904   12.5995    1.9221 N.pl3     1 RES1    0.0000
     10 C1        10.3694    9.8989    4.5588 C.2       1 RES1    0.0000
     11 C2        11.9978   10.5794    2.6664 C.ar      1 RES1    0.0000
     12 C3        10.7611   10.6764    3.4597 C.2       1 RES1    0.0000
     13 C4         9.4966   12.5411    2.2141 C.2       1 RES1    0.0000
     14 C5        11.2178    8.9295    5.2760 C.2       1 RES1    0.0000
     15 C6         9.6987   11.5166    3.2411 C.2       1 RES1    0.0000
     16 C7        12.2668    9.4415    1.9331 C.ar      1 RES1    0.0000
     17 H2        11.6666    8.7306    1.9474 H         1 RES1    0.0000
     18 C8        10.6846    7.9345    6.2432 C.ar      1 RES1    0.0000
     19 C9        12.8940   11.6206    2.6470 C.ar      1 RES1    0.0000
     20 H3        12.7284   12.3979    3.1301 H         1 RES1    0.0000
     21 C10       14.0384   11.4938    1.9014 C.ar      1 RES1    0.0000
     22 C11       14.3203   10.3770    1.1571 C.ar      1 RES1    0.0000
     23 H4        15.1001   10.3207    0.6541 H         1 RES1    0.0000
     24 C12       13.4187    9.3476    1.1781 C.ar      1 RES1    0.0000
     25 H5        13.5828    8.5788    0.6805 H         1 RES1    0.0000
     26 C13        9.3401    7.7325    6.5168 C.ar      1 RES1    0.0000
     27 H6         8.6923    8.2413    6.0857 H         1 RES1    0.0000
     28 C14       11.6201    7.1557    6.8996 C.ar      1 RES1    0.0000
     29 H7        12.5240    7.2776    6.7185 H         1 RES1    0.0000
     30 C15        8.9691    6.7692    7.4338 C.ar      1 RES1    0.0000
     31 H8         8.0680    6.6344    7.6175 H         1 RES1    0.0000
     32 C16        9.9084    6.0104    8.0755 C.ar      1 RES1    0.0000
     33 H9         9.6453    5.3628    8.6898 H         1 RES1    0.0000
     34 C17        7.9746   14.0809    1.2876 C.3       1 RES1    0.0000
     35 H10        7.9871   13.6737    0.4068 H         1 RES1    0.0000
     36 H11        8.6238   14.8019    1.3033 H         1 RES1    0.0000
     37 C18       11.2420    6.2082    7.8105 C.ar      1 RES1    0.0000
     38 H12       11.8849    5.7002    8.2491 H         1 RES1    0.0000
     39 C19        6.6171   14.6056    1.5946 C.3       1 RES1    0.0000
     40 H13        6.3727   15.2638    0.9404 H         1 RES1    0.0000
     41 H14        6.6185   15.0065    2.4672 H         1 RES1    0.0000
     42 H15        5.9830   13.8846    1.5745 H         1 RES1    0.0000
     43 O6         6.1994   12.2798    4.6382 O.2       2 RES2    0.0000
     44 O7         2.0556    7.4514    3.6571 O.3       2 RES2    0.0000
     45 O8         3.9234    7.4826    2.4398 O.2       2 RES2    0.0000
     46 O9         8.0632    6.5450    3.8614 O.2       2 RES2    0.0000
     47 N4         2.9110   11.0767    5.0701 N.2       2 RES2    0.0000
     48 N5         2.5136    9.8909    4.6452 N.pl3     2 RES2    0.0000
     49 H16        1.7447    9.5509    4.8314 H         2 RES2    0.0000
     50 O10        9.5161    7.1140    2.4045 O.2       2 RES2    0.0000
     51 N6         8.4707    7.2917    2.9963 N.pl3     2 RES2    0.0000
     52 C20        4.1540   11.2192    4.5886 C.2       2 RES2    0.0000
     53 C21        5.0133   12.3774    4.9066 C.2       2 RES2    0.0000
     54 C22        4.5295   10.0969    3.8332 C.2       2 RES2    0.0000
     55 C23        5.7706    9.8188    3.0805 C.ar      2 RES2    0.0000
     56 C24        4.5292   13.6355    5.5236 C.ar      2 RES2    0.0000
     57 C25        3.4401    9.2686    3.8896 C.2       2 RES2    0.0000
     58 C26        6.5305    8.7104    3.3948 C.ar      2 RES2    0.0000
     59 H17        6.2860    8.1507    4.0957 H         2 RES2    0.0000
     60 C27        6.1573   10.6258    2.0296 C.ar      2 RES2    0.0000
     61 H18        5.6521   11.3772    1.8155 H         2 RES2    0.0000
     62 C28        8.0484    9.2342    1.5970 C.ar      2 RES2    0.0000
     63 H19        8.8087    9.0279    1.1024 H         2 RES2    0.0000
     64 C29        3.1926    7.9754    3.2459 C.2       2 RES2    0.0000
     65 C30        7.2833   10.3295    1.2951 C.ar      2 RES2    0.0000
     66 H20        7.5267   10.8795    0.5863 H         2 RES2    0.0000
     67 C31        7.6573    8.4529    2.6490 C.ar      2 RES2    0.0000
     68 C32        3.2405   13.8580    5.9590 C.ar      2 RES2    0.0000
     69 H21        2.5883   13.2056    5.8409 H         2 RES2    0.0000
     70 C33        0.3573    5.8035    3.5884 C.3       2 RES2    0.0000
     71 H22        0.0870    4.9684    3.1979 H         2 RES2    0.0000
     72 H23       -0.2880    6.4805    3.3750 H         2 RES2    0.0000
     73 H24        0.4158    5.7065    4.5414 H         2 RES2    0.0000
     74 C34        3.8460   16.0308    6.7338 C.ar      2 RES2    0.0000
     75 H25        3.6173   16.8264    7.1555 H         2 RES2    0.0000
     76 C35        1.6830    6.1949    3.0485 C.3       2 RES2    0.0000
     77 H26        2.3418    5.5146    3.2569 H         2 RES2    0.0000
     78 H27        1.6359    6.2907    2.0855 H         2 RES2    0.0000
     79 C36        5.4535   14.6514    5.6701 C.ar      2 RES2    0.0000
     80 H28        6.3195   14.5278    5.3525 H         2 RES2    0.0000
     81 C37        2.9218   15.0504    6.5691 C.ar      2 RES2    0.0000
     82 H29        2.0544   15.1879    6.8742 H         2 RES2    0.0000
     83 C38        5.1234   15.8346    6.2715 C.ar      2 RES2    0.0000
     84 H30        5.7616   16.5038    6.3670 H         2 RES2    0.0000
@<TRIPOS>BOND
     1    1   14 2
     2    2   13 1
     3    3   13 2
     4    4    6 1
     5    5    9 2
     6    6    7 1
     7    8    9 2
     8    9   21 1
     9   10    4 2
    10   11   12 1
    11   12   10 1
    12   13   15 1
    13   14   10 1
    14   15    6 1
    15   16   11 ar
    16   17   16 1
    17   18   14 1
    18   19   11 ar
    19   20   19 1
    20   21   19 ar
    21   22   21 ar
    22   23   22 1
    23   24   16 ar
    24   25   24 1
    25   26   18 ar
    26   27   26 1
    27   28   18 ar
    28   29   28 1
    29   30   26 ar
    30   31   30 1
    31   32   30 ar
    32   33   32 1
    33   34    2 1
    34   35   34 1
    35   36   34 1
    36   37   28 ar
    37   38   37 1
    38   39   34 1
    39   40   39 1
    40   41   39 1
    41   42   39 1
    42   43   53 2
    43   44   64 1
    44   45   64 2
    45   46   51 2
    46   47   48 1
    47   48   49 1
    48   50   51 2
    49   51   67 1
    50   52   47 2
    51   53   52 1
    52   54   52 1
    53   55   54 1
    54   56   53 1
    55   57   48 1
    56   58   55 ar
    57   59   58 1
    58   60   55 ar
    59   61   60 1
    60   62   63 1
    61   64   57 1
    62   65   60 ar
    63   66   65 1
    64   67   58 ar
    65   68   56 ar
    66   69   68 1
    67   70   71 1
    68   72   70 1
    69   73   70 1
    70   74   75 1
    71   76   44 1
    72   77   76 1
    73   78   76 1
    74   79   56 ar
    75   80   79 1
    76   81   68 ar
    77   82   81 1
    78   83   74 ar
    79   84   83 1
    80   12   15 2
    81   22   24 ar
    82   32   37 ar
    83   54   57 2
    84   62   65 ar
    85   62   67 ar
    86   70   76 1
    87   74   81 ar
    88   79   83 ar
@<TRIPOS>SUBSTRUCTURE
     1 RES1 1
     2 RES2 43

@<TRIPOS>CRYSIN
  12.6224   21.0884   13.2451  90.0000 108.5680  90.0000 231 1

