# MOL2 file generated by ConQuest
# Please check atom types

@<TRIPOS>MOLECULE
AQETIZ
    30    23     2
SMALL
NO_CHARGES
****
Generated from CSD

@<TRIPOS>ATOM
      1 O1         1.3171    0.4726    2.6049 O.2       1 RES1    0.0000
      2 O2         2.5357   -2.2801   -0.2279 O.2       1 RES1    0.0000
      3 O3        -1.8174   -3.5228   -0.6408 O.3       1 RES1    0.0000
      4 N1         3.1414   -0.4017    1.5837 N.am      1 RES1    0.0000
      5 N2         0.9877   -1.1265    1.0248 N.am      1 RES1    0.0000
      6 N3        -0.9059   -2.6878   -0.0737 N.2       1 RES1    0.0000
      7 N4         0.9832   -4.6946   -2.1721 N.1       1 RES1    0.0000
      8 C1         5.5032   -0.1465    2.1920 C.3       1 RES1    0.0000
      9 C2         4.1206    0.3247    2.3977 C.3       1 RES1    0.0000
     10 C3         1.8371   -0.2688    1.7935 C.2       1 RES1    0.0000
     11 C4         1.3854   -2.0551    0.1076 C.2       1 RES1    0.0000
     12 C5         0.2986   -2.8765   -0.4712 C.2       1 RES1    0.0000
     13 C6        -3.1133   -3.2948   -0.0552 C.3       1 RES1    0.0000
     14 C7         0.6695   -3.8973   -1.4277 C.1       1 RES1    0.0000
     15 H1         3.4437   -0.8939    0.8063 H         1 RES1    0.0000
     16 H2        -0.0377   -0.8879    1.2179 H         1 RES1    0.0000
     17 H3         4.5630    0.9906    1.8284 H         1 RES1    0.0000
     18 H4         3.6845    0.7565    3.1263 H         1 RES1    0.0000
     19 H5         5.9754    0.4062    2.7618 H         1 RES1    0.0000
     20 H6         5.6240    0.0076    1.2871 H         1 RES1    0.0000
     21 H7         5.4375   -1.0313    2.4457 H         1 RES1    0.0000
     22 H8        -3.7500   -3.8852   -0.4649 H         1 RES1    0.0000
     23 H9        -3.3765   -2.3843   -0.2121 H         1 RES1    0.0000
     24 H10       -3.0726   -3.4639    0.8841 H         1 RES1    0.0000
     25 C8         5.1894   -0.5995    2.9228 Du        2 SUP2    0.0000
     26 H11        5.8268   -0.1027    3.4433 Du        2 SUP2    0.0000
     27 H12        5.6494   -1.0268    2.1888 Du        2 SUP2    0.0000
     28 H13        4.7867   -1.2759    3.4736 Du        2 SUP2    0.0000
     29 H14        4.0984    1.2593    2.1476 Du        2 SUP2    0.0000
     30 H15        3.9073    0.2159    3.3230 Du        2 SUP2    0.0000
@<TRIPOS>BOND
     1    1   10 2
     2    2   11 2
     3    3    6 1
     4    4    9 1
     5    5   10 1
     6    6   12 2
     7    7   14 3
     8    8    9 1
     9    9   17 1
    10   10    4 1
    11   11    5 1
    12   12   11 1
    13   13    3 1
    14   14   12 1
    15   15    4 1
    16   16    5 1
    17   18    9 1
    18   19    8 1
    19   20    8 1
    20   21    8 1
    21   22   13 1
    22   23   13 1
    23   24   13 1
@<TRIPOS>SUBSTRUCTURE
     1 RES1 1
     2 SUP2 25

@<TRIPOS>CRYSIN
  14.5870   15.1000    4.5440  90.0000  95.6000  90.0000 231 1

