# MOL2 file generated by ConQuest
# Please check atom types

@<TRIPOS>MOLECULE
AQEYUS
   136   144     2
SMALL
NO_CHARGES
****
Generated from CSD

@<TRIPOS>ATOM
      1 N1         1.9491    6.3754    7.0258 N.pl3     1 RES1    0.0000
      2 C1         3.3246    4.7184    3.3808 C.ar      1 RES1    0.0000
      3 C2         1.4215    5.6566    8.1144 C.ar      1 RES1    0.0000
      4 C3        -0.1780    3.5339   11.4598 C.2       1 RES1    0.0000
      5 H1        -0.6107    2.7560   11.1903 H         1 RES1    0.0000
      6 C4         0.3529    4.3157   10.3587 C.ar      1 RES1    0.0000
      7 C5         0.2389    3.7987    9.0663 C.ar      1 RES1    0.0000
      8 H2        -0.1976    2.9856    8.9460 H         1 RES1    0.0000
      9 C6         3.3535    3.9854    4.5657 C.ar      1 RES1    0.0000
     10 H3         3.6831    3.1166    4.5485 H         1 RES1    0.0000
     11 C7        -1.8435    1.0027   15.5969 C.ar      1 RES1    0.0000
     12 C8         1.0105    5.5451   10.4871 C.ar      1 RES1    0.0000
     13 H4         1.1048    5.9243   11.3309 H         1 RES1    0.0000
     14 C9         2.9126    4.5043    5.7576 C.ar      1 RES1    0.0000
     15 H5         2.9599    3.9883    6.5299 H         1 RES1    0.0000
     16 C10        1.5191    6.1980    9.4014 C.ar      1 RES1    0.0000
     17 H6         1.9405    7.0199    9.5188 H         1 RES1    0.0000
     18 C11        3.8116    4.0802    2.1753 C.2       1 RES1    0.0000
     19 H7         4.2057    3.2495    2.3198 H         1 RES1    0.0000
     20 C12        4.3475    3.6385   -0.2231 C.ar      1 RES1    0.0000
     21 C13        2.4004    5.7875    5.8206 C.ar      1 RES1    0.0000
     22 C14       -0.7623    2.7687   13.7648 C.ar      1 RES1    0.0000
     23 O1         5.3595    1.1923   -4.3975 O.2       1 RES1    0.0000
     24 C15        2.0168    7.8027    7.1467 C.ar      1 RES1    0.0000
     25 C16        0.7459    4.4457    7.9663 C.ar      1 RES1    0.0000
     26 H8         0.6386    4.0753    7.1209 H         1 RES1    0.0000
     27 C17        3.8035    4.4623    0.8824 C.2       1 RES1    0.0000
     28 C18        2.8218    6.0113    3.4706 C.ar      1 RES1    0.0000
     29 H9         2.7933    6.5381    2.7052 H         1 RES1    0.0000
     30 C19       -0.1684    3.7117   12.7983 C.2       1 RES1    0.0000
     31 C20        5.2595    1.9751   -2.2245 C.ar      1 RES1    0.0000
     32 C21        0.4612    4.8542   13.4008 C.1       1 RES1    0.0000
     33 C22        3.2029    5.6908    0.4905 C.1       1 RES1    0.0000
     34 C23        2.3663    6.5351    4.6490 C.ar      1 RES1    0.0000
     35 H10        2.0297    7.4010    4.6657 H         1 RES1    0.0000
     36 N2        -2.3634    0.0332   16.5572 N.pl3     1 RES1    0.0000
     37 C24        3.2328    8.4340    7.1849 C.ar      1 RES1    0.0000
     38 H11        4.0168    7.9366    7.1339 H         1 RES1    0.0000
     39 C25        3.9032    3.7743   -1.5307 C.ar      1 RES1    0.0000
     40 H12        3.2912    4.4447   -1.7340 H         1 RES1    0.0000
     41 N3         5.6804    0.9968   -3.2483 N.pl3     1 RES1    0.0000
     42 C26       -1.2290    2.1070   16.0255 C.ar      1 RES1    0.0000
     43 H13       -1.1678    2.2820   16.9365 H         1 RES1    0.0000
     44 C27        0.8609    8.5308    7.2305 C.ar      1 RES1    0.0000
     45 H14        0.0381    8.0988    7.2016 H         1 RES1    0.0000
     46 O2         6.3102    0.0088   -2.8924 O.2       1 RES1    0.0000
     47 C28        5.3244    2.7022    0.0237 C.ar      1 RES1    0.0000
     48 H15        5.6847    2.6348    0.8774 H         1 RES1    0.0000
     49 C29        3.2897    9.8159    7.3003 C.ar      1 RES1    0.0000
     50 H16        4.1120   10.2488    7.3214 H         1 RES1    0.0000
     51 O3        -2.8394   -0.9704   16.1682 O.2       1 RES1    0.0000
     52 C30       -1.9705    0.7545   14.2821 C.ar      1 RES1    0.0000
     53 H17       -2.4261   -0.0029   13.9918 H         1 RES1    0.0000
     54 C31        4.3438    2.9397   -2.5359 C.ar      1 RES1    0.0000
     55 H18        4.0258    3.0325   -3.4055 H         1 RES1    0.0000
     56 O4        -2.2435    0.2433   17.7220 O.2       1 RES1    0.0000
     57 C32       -0.6889    2.9846   15.1148 C.ar      1 RES1    0.0000
     58 H19       -0.2604    3.7489   15.4264 H         1 RES1    0.0000
     59 C33        2.1373   10.5352    7.3833 C.ar      1 RES1    0.0000
     60 H20        2.1748   11.4617    7.4594 H         1 RES1    0.0000
     61 C34       -1.4233    1.6272   13.3688 C.ar      1 RES1    0.0000
     62 H21       -1.5034    1.4415   12.4609 H         1 RES1    0.0000
     63 C35        0.9139    9.9029    7.3568 C.ar      1 RES1    0.0000
     64 H22        0.1279   10.3984    7.4229 H         1 RES1    0.0000
     65 C36        5.7818    1.8617   -0.9693 C.ar      1 RES1    0.0000
     66 H23        6.4357    1.2285   -0.7863 H         1 RES1    0.0000
     67 N4         2.7346    6.6720    0.1705 N.1       1 RES1    0.0000
     68 N5         0.9227    5.7435   13.9476 N.1       1 RES1    0.0000
     69 N6       -11.1475    7.0326   19.5271 N.pl3     2 RES2    0.0000
     70 C37      -12.5865    9.5550   21.8094 C.ar      2 RES2    0.0000
     71 H24      -13.0724   10.3456   21.7506 H         2 RES2    0.0000
     72 C38      -13.3033   10.7336   24.6757 C.2       2 RES2    0.0000
     73 C39      -11.1475    5.6028   19.5271 C.ar      2 RES2    0.0000
     74 C40      -12.2415    9.0458   23.0693 C.ar      2 RES2    0.0000
     75 C41      -12.2133    8.8943   20.6591 C.ar      2 RES2    0.0000
     76 H25      -12.4561    9.2471   19.8343 H         2 RES2    0.0000
     77 C42      -11.4869    7.7177   20.7060 C.ar      2 RES2    0.0000
     78 C43      -11.5107    7.8603   23.0938 C.ar      2 RES2    0.0000
     79 H26      -11.2651    7.5027   23.9168 H         2 RES2    0.0000
     80 C44      -11.1403    7.2026   21.9503 C.ar      2 RES2    0.0000
     81 H27      -10.6553    6.4100   22.0057 H         2 RES2    0.0000
     82 C45      -12.6004    9.6468   24.3552 C.2       2 RES2    0.0000
     83 H28      -12.2771    9.1797   25.0910 H         2 RES2    0.0000
     84 C46      -14.1840   12.0666   28.6067 C.ar      2 RES2    0.0000
     85 C47      -13.5895   11.1890   26.0603 C.ar      2 RES2    0.0000
     86 C48      -13.2562   10.4394   27.1726 C.ar      2 RES2    0.0000
     87 H29      -12.8235    9.6234   27.0620 H         2 RES2    0.0000
     88 C49      -14.2337   12.3823   26.2829 C.ar      2 RES2    0.0000
     89 H30      -14.4768   12.9080   25.5545 H         2 RES2    0.0000
     90 O5       -14.2386   11.8281   30.9090 O.2       2 RES2    0.0000
     91 N7       -14.5273   12.5357   29.9775 N.pl3     2 RES2    0.0000
     92 C50      -13.8563   11.5672   23.6569 C.1       2 RES2    0.0000
     93 C51      -12.2409    4.9070   19.9887 C.ar      2 RES2    0.0000
     94 H31      -12.9872    5.3653   20.3004 H         2 RES2    0.0000
     95 C52      -13.5569   10.8860   28.4518 C.ar      2 RES2    0.0000
     96 H32      -13.3260   10.3749   29.1943 H         2 RES2    0.0000
     97 C53      -14.5349   12.8260   27.5605 C.ar      2 RES2    0.0000
     98 H33      -14.9704   13.6371   27.6894 H         2 RES2    0.0000
     99 O6       -15.0649   13.6088   30.0782 O.2       2 RES2    0.0000
    100 C54      -12.2278    3.5222   19.9872 C.ar      2 RES2    0.0000
    101 H34      -12.9643    3.0531   20.3030 H         2 RES2    0.0000
    102 N8       -14.3080   12.2513   22.8717 N.1       2 RES2    0.0000
    103 C55      -11.1475    2.8449   19.5271 C.ar      2 RES2    0.0000
    104 H35      -11.1475    1.9145   19.5271 H         2 RES2    0.0000
    105 C37A      -9.7086    9.5550   17.2448 C.ar      2 RES2    0.0000
    106 H24A      -9.2227   10.3456   17.3036 H         2 RES2    0.0000
    107 C38A      -8.9918   10.7336   14.3785 C.2       2 RES2    0.0000
    108 C40A     -10.0536    9.0458   15.9849 C.ar      2 RES2    0.0000
    109 C41A     -10.0818    8.8943   18.3950 C.ar      2 RES2    0.0000
    110 H25A      -9.8389    9.2471   19.2199 H         2 RES2    0.0000
    111 C42A     -10.8082    7.7177   18.3482 C.ar      2 RES2    0.0000
    112 C43A     -10.7844    7.8603   15.9604 C.ar      2 RES2    0.0000
    113 H26A     -11.0300    7.5027   15.1374 H         2 RES2    0.0000
    114 C44A     -11.1547    7.2026   17.1039 C.ar      2 RES2    0.0000
    115 H27A     -11.6398    6.4100   17.0485 H         2 RES2    0.0000
    116 C45A      -9.6946    9.6468   14.6990 C.2       2 RES2    0.0000
    117 H28A     -10.0180    9.1797   13.9632 H         2 RES2    0.0000
    118 C46A      -8.1111   12.0666   10.4475 C.ar      2 RES2    0.0000
    119 C47A      -8.7055   11.1890   12.9938 C.ar      2 RES2    0.0000
    120 C48A      -9.0389   10.4394   11.8816 C.ar      2 RES2    0.0000
    121 H29A      -9.4716    9.6234   11.9922 H         2 RES2    0.0000
    122 C49A      -8.0614   12.3823   12.7712 C.ar      2 RES2    0.0000
    123 H30A      -7.8182   12.9080   13.4997 H         2 RES2    0.0000
    124 O5A       -8.0565   11.8281    8.1451 O.2       2 RES2    0.0000
    125 N7A       -7.7678   12.5357    9.0767 N.pl3     2 RES2    0.0000
    126 C50A      -8.4388   11.5672   15.3972 C.1       2 RES2    0.0000
    127 C51A     -10.0542    4.9070   19.0655 C.ar      2 RES2    0.0000
    128 H31A      -9.3079    5.3653   18.7538 H         2 RES2    0.0000
    129 C52A      -8.7382   10.8860   10.6024 C.ar      2 RES2    0.0000
    130 H32A      -8.9691   10.3749    9.8599 H         2 RES2    0.0000
    131 C53A      -7.7602   12.8260   11.4936 C.ar      2 RES2    0.0000
    132 H33A      -7.3247   13.6371   11.3648 H         2 RES2    0.0000
    133 O6A       -7.2302   13.6088    8.9760 O.2       2 RES2    0.0000
    134 C54A     -10.0673    3.5222   19.0670 C.ar      2 RES2    0.0000
    135 H34A      -9.3308    3.0531   18.7512 H         2 RES2    0.0000
    136 N8A       -7.9871   12.2513   16.1825 N.1       2 RES2    0.0000
@<TRIPOS>BOND
     1    1    3 1
     2    2    9 ar
     3    3   16 ar
     4    4    5 1
     5    6    4 1
     6    7    6 ar
     7    8    7 1
     8    9   10 1
     9   11   36 1
    10   12    6 ar
    11   13   12 1
    12   14    9 ar
    13   15   14 1
    14   16   12 ar
    15   17   16 1
    16   18    2 1
    17   19   18 1
    18   20   27 1
    19   21    1 1
    20   22   30 1
    21   23   41 2
    22   24    1 1
    23   25    3 ar
    24   26   25 1
    25   27   18 2
    26   28    2 ar
    27   29   28 1
    28   30    4 2
    29   31   41 1
    30   32   30 1
    31   33   27 1
    32   34   21 ar
    33   35   34 1
    34   36   51 2
    35   37   24 ar
    36   38   37 1
    37   39   20 ar
    38   40   39 1
    39   41   46 2
    40   42   11 ar
    41   43   42 1
    42   44   24 ar
    43   45   44 1
    44   47   20 ar
    45   48   47 1
    46   49   37 ar
    47   50   49 1
    48   52   11 ar
    49   53   52 1
    50   54   31 ar
    51   55   54 1
    52   56   36 2
    53   57   22 ar
    54   58   57 1
    55   59   49 ar
    56   60   59 1
    57   61   22 ar
    58   62   61 1
    59   63   44 ar
    60   64   63 1
    61   65   31 ar
    62   66   65 1
    63   67   33 3
    64   68   32 3
    65   69   73 1
    66   70   71 1
    67   72   82 2
    68   73   93 ar
    69   74   70 ar
    70   75   70 ar
    71   76   75 1
    72   77   69 1
    73   78   74 ar
    74   79   78 1
    75   80   77 ar
    76   81   80 1
    77   82   74 1
    78   83   82 1
    79   84   91 1
    80   85   72 1
    81   86   85 ar
    82   87   86 1
    83   88   85 ar
    84   89   88 1
    85   90   91 2
    86   91   99 2
    87   92   72 1
    88   93   94 1
    89   95   84 ar
    90   96   95 1
    91   97   84 ar
    92   98   97 1
    93  100   93 ar
    94  101  100 1
    95  102   92 3
    96  103  100 ar
    97  104  103 1
    98  105  106 1
    99  107  116 2
   100  108  105 ar
   101  109  105 ar
   102  110  109 1
   103  111   69 1
   104  112  108 ar
   105  113  112 1
   106  114  111 ar
   107  115  114 1
   108  116  108 1
   109  117  116 1
   110  118  125 1
   111  119  107 1
   112  120  119 ar
   113  121  120 1
   114  122  119 ar
   115  123  122 1
   116  124  125 2
   117  125  133 2
   118  126  107 1
   119  127   73 ar
   120  128  127 1
   121  129  118 ar
   122  130  129 1
   123  131  118 ar
   124  132  131 1
   125  134  103 ar
   126  135  134 1
   127  136  126 3
   128    7   25 ar
   129   14   21 ar
   130   28   34 ar
   131   39   54 ar
   132   42   57 ar
   133   47   65 ar
   134   52   61 ar
   135   59   63 ar
   136   75   77 ar
   137   78   80 ar
   138   86   95 ar
   139   88   97 ar
   140  109  111 ar
   141  112  114 ar
   142  120  129 ar
   143  122  131 ar
   144  127  134 ar
@<TRIPOS>SUBSTRUCTURE
     1 RES1 1
     2 RES2 69

@<TRIPOS>CRYSIN
  34.8680    9.7729   29.9800  90.0000 119.7210  90.0000  15 1

