# MOL2 file generated by ConQuest
# Please check atom types

@<TRIPOS>MOLECULE
AQIJUF
    60    62     2
SMALL
NO_CHARGES
****
Generated from CSD

@<TRIPOS>ATOM
      1 O1         4.2812    9.8934    1.6497 O.2       1 RES1    0.0000
      2 N1         5.1823    9.8062    2.5675 N.pl3     1 RES1    0.0000
      3 C1         5.6084   10.9614    3.4291 C.3       1 RES1    0.0000
      4 C2         6.5430   11.7877    2.5573 C.3       1 RES1    0.0000
      5 H1         7.3840   11.2448    2.2774 H         1 RES1    0.0000
      6 H2         7.0517   12.5129    3.0783 H         1 RES1    0.0000
      7 H3         6.0587   12.0176    1.7769 H         1 RES1    0.0000
      8 C3         4.3936   11.7550    3.8609 C.3       1 RES1    0.0000
      9 H4         4.0354   12.1563    3.1215 H         1 RES1    0.0000
     10 H5         4.6822   12.4337    4.4092 H         1 RES1    0.0000
     11 H6         3.6368   11.1853    4.3501 H         1 RES1    0.0000
     12 C4         6.3350   10.2095    4.5764 C.3       1 RES1    0.0000
     13 C5         7.5673   10.8772    5.1350 C.3       1 RES1    0.0000
     14 H7         8.2825   11.0367    4.4433 H         1 RES1    0.0000
     15 H8         8.0553   10.2838    5.7720 H         1 RES1    0.0000
     16 H9         7.3284   11.6807    5.5468 H         1 RES1    0.0000
     17 C6         5.4140    9.7706    5.7067 C.3       1 RES1    0.0000
     18 H10        5.9387    9.2138    6.1884 H         1 RES1    0.0000
     19 H11        4.5393    9.3822    5.3215 H         1 RES1    0.0000
     20 H12        5.1055   10.5414    6.1679 H         1 RES1    0.0000
     21 N2         6.7478    8.9503    3.8545 N.pl3     1 RES1    0.0000
     22 O2         7.6455    8.1696    4.2895 O.2       1 RES1    0.0000
     23 C7         5.9847    8.7541    2.7832 C.2       1 RES1    0.0000
     24 N3         6.0104    7.6494    1.9637 N.pl3     1 RES1    0.0000
     25 C8         5.9616    7.6286    0.6077 C.2       1 RES1    0.0000
     26 H13        6.0457    8.3519    0.0637 H         1 RES1    0.0000
     27 N4         5.9385    6.3932    0.1841 N.2       1 RES1    0.0000
     28 C9         5.9649    5.6799    1.3478 C.2       1 RES1    0.0000
     29 H14        5.9134    4.7456    1.3628 H         1 RES1    0.0000
     30 N5         6.0111    6.3654    2.4508 N.2       1 RES1    0.0000
     31 O3         2.6553    8.5371    4.2672 O.2       2 RES2    0.0000
     32 N6         1.7849    8.2558    3.3838 N.pl3     2 RES2    0.0000
     33 C10        1.4125    6.8459    3.0259 C.3       2 RES2    0.0000
     34 C11        2.6524    5.9949    2.9554 C.3       2 RES2    0.0000
     35 H15        3.2720    6.4100    2.4867 H         2 RES2    0.0000
     36 H16        2.3914    5.1320    2.8439 H         2 RES2    0.0000
     37 H17        2.9788    5.8849    3.9064 H         2 RES2    0.0000
     38 C12        0.4752    6.3456    4.1078 C.3       2 RES2    0.0000
     39 H18        0.9079    6.2119    4.9598 H         2 RES2    0.0000
     40 H19        0.1586    5.4490    3.9110 H         2 RES2    0.0000
     41 H20       -0.2807    6.9252    4.1954 H         2 RES2    0.0000
     42 C13        0.6979    7.0827    1.6711 C.3       2 RES2    0.0000
     43 C14        1.6187    7.1233    0.4641 C.3       2 RES2    0.0000
     44 H21        2.3580    7.5593    0.6871 H         2 RES2    0.0000
     45 H22        1.0553    7.4899   -0.3868 H         2 RES2    0.0000
     46 H23        1.9604    6.1921    0.4027 H         2 RES2    0.0000
     47 C15       -0.4779    6.1792    1.3992 C.3       2 RES2    0.0000
     48 H24       -1.1403    6.1921    2.0909 H         2 RES2    0.0000
     49 H25       -0.1670    5.3004    1.4379 H         2 RES2    0.0000
     50 H26       -0.8174    6.3407    0.5051 H         2 RES2    0.0000
     51 N7         0.2226    8.4965    1.8670 N.pl3     2 RES2    0.0000
     52 O4        -0.7213    9.0384    1.1724 O.2       2 RES2    0.0000
     53 C16        0.9944    9.1127    2.7506 C.2       2 RES2    0.0000
     54 N8         0.9639   10.4809    2.9547 N.pl3     2 RES2    0.0000
     55 C17        0.9623   11.4746    2.0317 C.2       2 RES2    0.0000
     56 H27        1.0416   11.3141    1.1967 H         2 RES2    0.0000
     57 N9         0.8736   12.6318    2.5955 N.2       2 RES2    0.0000
     58 C18        0.8277   12.3277    3.9019 C.2       2 RES2    0.0000
     59 H28        0.7943   13.0083    4.5912 H         2 RES2    0.0000
     60 N10        0.8777   11.0417    4.1910 N.2       2 RES2    0.0000
@<TRIPOS>BOND
     1    1    2 1
     2    2    3 1
     3    3    4 1
     4    4    5 1
     5    6    4 1
     6    7    4 1
     7    8    3 1
     8    9    8 1
     9   10    8 1
    10   11    8 1
    11   12    3 1
    12   13   12 1
    13   14   13 1
    14   15   13 1
    15   16   13 1
    16   17   12 1
    17   18   17 1
    18   19   17 1
    19   20   17 1
    20   21   12 1
    21   22   21 1
    22   23    2 1
    23   24   23 1
    24   25   24 1
    25   26   25 1
    26   27   25 2
    27   28   27 1
    28   29   28 1
    29   30   24 1
    30   31   32 1
    31   32   33 1
    32   33   34 1
    33   34   35 1
    34   36   34 1
    35   37   34 1
    36   38   33 1
    37   39   38 1
    38   40   38 1
    39   41   38 1
    40   42   33 1
    41   43   42 1
    42   44   43 1
    43   45   43 1
    44   46   43 1
    45   47   42 1
    46   48   47 1
    47   49   47 1
    48   50   47 1
    49   51   42 1
    50   52   51 1
    51   53   32 1
    52   54   53 1
    53   55   54 1
    54   56   55 1
    55   57   55 2
    56   58   57 1
    57   59   58 1
    58   60   54 1
    59   21   23 2
    60   28   30 2
    61   51   53 2
    62   58   60 2
@<TRIPOS>SUBSTRUCTURE
     1 RES1 1
     2 RES2 31

@<TRIPOS>CRYSIN
   9.9623    9.9073   23.1110  90.0000 100.1210  90.0000 231 1

