# MOL2 file generated by ConQuest
# Please check atom types

@<TRIPOS>MOLECULE
AQIKEQ
    30    31     1
SMALL
NO_CHARGES
****
Generated from CSD

@<TRIPOS>ATOM
      1 O1        -0.5708   10.4702    5.0096 O.2       1 RES1    0.0000
      2 N1         0.2098   10.5100    4.0185 N.pl3     1 RES1    0.0000
      3 C1         1.5797    9.9162    3.9926 C.3       1 RES1    0.0000
      4 C2         1.5552    8.5451    4.6415 C.3       1 RES1    0.0000
      5 H1         0.9084    8.0020    4.1530 H         1 RES1    0.0000
      6 H2         1.2129    8.5572    5.5452 H         1 RES1    0.0000
      7 H3         2.4541    8.2193    4.5424 H         1 RES1    0.0000
      8 C3         2.4642   10.8504    4.8055 C.3       1 RES1    0.0000
      9 H4         3.4420   10.4521    4.8137 H         1 RES1    0.0000
     10 H5         2.4857   11.7315    4.4008 H         1 RES1    0.0000
     11 H6         2.1616   10.8383    5.6868 H         1 RES1    0.0000
     12 C4         1.8357    9.9802    2.4635 C.3       1 RES1    0.0000
     13 C5         3.2561   10.3893    2.0824 C.3       1 RES1    0.0000
     14 H7         3.5085   11.3332    2.5366 H         1 RES1    0.0000
     15 H8         3.8599    9.7883    2.5013 H         1 RES1    0.0000
     16 H9         3.3815   10.4762    1.1444 H         1 RES1    0.0000
     17 C6         1.4671    8.6996    1.7226 C.3       1 RES1    0.0000
     18 H10        0.5655    8.4606    1.9467 H         1 RES1    0.0000
     19 H11        2.1182    8.0020    1.9349 H         1 RES1    0.0000
     20 H12        1.5194    8.8107    0.7551 H         1 RES1    0.0000
     21 N2         0.9082   11.0338    1.9538 N.2       1 RES1    0.0000
     22 C7         0.0172   11.2137    2.8434 C.2       1 RES1    0.0000
     23 N3        -1.0690   12.0742    2.7030 N.pl3     1 RES1    0.0000
     24 C8        -1.5067   12.5992    1.5114 C.2       1 RES1    0.0000
     25 H13       -1.2112   12.2625    0.6725 H         1 RES1    0.0000
     26 C9        -2.4226   13.5141    1.8335 C.2       1 RES1    0.0000
     27 H14       -2.8748   14.0367    1.2506 H         1 RES1    0.0000
     28 N4        -2.5936   13.5998    3.1926 N.2       1 RES1    0.0000
     29 C10       -1.7698   12.7344    3.6846 C.2       1 RES1    0.0000
     30 H15       -1.5572   12.5522    4.5896 H         1 RES1    0.0000
@<TRIPOS>BOND
     1    1    2 1
     2    2    3 1
     3    3    4 1
     4    4    5 1
     5    6    4 1
     6    7    4 1
     7    8    3 1
     8    9    8 1
     9   10    8 1
    10   11    8 1
    11   12    3 1
    12   13   12 1
    13   14   13 1
    14   15   13 1
    15   16   13 1
    16   17   12 1
    17   18   17 1
    18   19   17 1
    19   20   17 1
    20   21   12 1
    21   22    2 1
    22   23   22 1
    23   24   23 1
    24   25   24 1
    25   26   24 2
    26   27   26 1
    27   28   26 1
    28   29   23 1
    29   30   29 1
    30   21   22 2
    31   28   29 2
@<TRIPOS>SUBSTRUCTURE
     1 RES1 1

@<TRIPOS>CRYSIN
   7.7185   12.0694   11.8747  90.0000  96.5000  90.0000 231 1

