# MOL2 file generated by ConQuest
# Please check atom types

@<TRIPOS>MOLECULE
AQIKUG
    48    48     2
SMALL
USER_CHARGES
****
Generated from CSD

@<TRIPOS>ATOM
      1 C1         0.0000    5.3975   -0.5265 C.2       1 RES1    0.0000
      2 O1         0.0000    5.3975   -1.7336 O.2       1 RES1    0.0000
      3 N1         1.0306    5.6857    0.3272 N.am      1 RES1    0.0000
      4 O2         2.1309    6.0862   -0.0915 O.2       1 RES1   -1.0000
      5 C2         0.7668    5.5098    1.7812 C.3       1 RES1    0.0000
      6 C3         1.2129    6.7512    2.5234 C.3       1 RES1    0.0000
      7 H1         0.9330    7.4270    1.8146 H         1 RES1    0.0000
      8 H2         1.0510    6.4878    3.4656 H         1 RES1    0.0000
      9 H3         1.9303    6.8224    2.2385 H         1 RES1    0.0000
     10 C4         1.5882    4.3202    2.2452 C.3       1 RES1    0.0000
     11 H4         1.2869    3.5839    1.9039 H         1 RES1    0.0000
     12 H5         2.5738    4.5771    2.1939 H         1 RES1    0.0000
     13 H6         1.2976    4.1237    3.1905 H         1 RES1    0.0000
     14 C5         0.0000    0.0000    7.9338 C.2       2 RES2    0.0000
     15 O3         0.0000    0.0000    9.1349 O.2       2 RES2    0.0000
     16 N2         0.1051    1.0633    7.0793 N.am      2 RES2    0.0000
     17 O4         0.3003    2.2259    7.4950 O.2       2 RES2   -1.0000
     18 C6        -0.0300    0.7675    5.6365 C.3       2 RES2    0.0000
     19 C7         1.0949    1.4703    4.8898 C.3       2 RES2    0.0000
     20 H7         1.9625    1.2414    5.1613 H         2 RES2    0.0000
     21 H8         1.0724    1.4141    4.0085 H         2 RES2    0.0000
     22 H9         0.9437    2.7095    5.0497 H         2 RES2    0.0000
     23 C8        -1.3587    1.3666    5.1910 C.3       2 RES2    0.0000
     24 H10       -2.0054    1.0903    5.7934 H         2 RES2    0.0000
     25 H11       -1.1796    2.6232    5.2951 H         2 RES2    0.0000
     26 H12       -1.4048    1.5221    4.3283 H         2 RES2    0.0000
     27 C2A       -0.7668    5.2852    1.7812 C.3       1 RES1    0.0000
     28 N1A       -1.0306    5.1093    0.3272 N.pl3     1 RES1    0.0000
     29 O2A       -2.1309    4.7088   -0.0915 O.2       1 RES1   -1.0000
     30 C3A       -1.2129    4.0438    2.5234 C.3       1 RES1    0.0000
     31 H1A       -0.9330    3.3680    1.8146 H         1 RES1    0.0000
     32 H2A       -1.0510    4.3072    3.4656 H         1 RES1    0.0000
     33 H3A       -1.9303    3.9726    2.2385 H         1 RES1    0.0000
     34 C4A       -1.5882    6.4748    2.2452 C.3       1 RES1    0.0000
     35 H4A       -1.2869    7.2111    1.9039 H         1 RES1    0.0000
     36 H5A       -2.5738    6.2179    2.1939 H         1 RES1    0.0000
     37 H6A       -1.2976    6.6713    3.1905 H         1 RES1    0.0000
     38 C6A        0.0300   -0.7675    5.6365 C.3       2 RES2    0.0000
     39 N2A       -0.1051   -1.0633    7.0793 N.pl3     2 RES2    0.0000
     40 O4A       -0.3003   -2.2259    7.4950 O.2       2 RES2   -1.0000
     41 C7A       -1.0949   -1.4703    4.8898 C.3       2 RES2    0.0000
     42 H7A       -1.9625   -1.2414    5.1613 H         2 RES2    0.0000
     43 H8A       -1.0724   -1.4141    4.0085 H         2 RES2    0.0000
     44 H9A       -0.9437   -2.7095    5.0497 H         2 RES2    0.0000
     45 C8A        1.3587   -1.3666    5.1910 C.3       2 RES2    0.0000
     46 H10A       2.0054   -1.0903    5.7934 H         2 RES2    0.0000
     47 H11A       1.1796   -2.6232    5.2951 H         2 RES2    0.0000
     48 H12A       1.4048   -1.5221    4.3283 H         2 RES2    0.0000
@<TRIPOS>BOND
     1    1    2 2
     2    3    1 1
     3    4    3 1
     4    5    3 1
     5    6    5 1
     6    7    6 1
     7    8    6 1
     8    9    6 1
     9   10    5 1
    10   11   10 1
    11   12   10 1
    12   13   10 1
    13   14   15 2
    14   16   14 1
    15   17   16 1
    16   18   16 1
    17   19   18 1
    18   20   19 1
    19   21   19 1
    20   22   19 1
    21   23   18 1
    22   24   23 1
    23   25   23 1
    24   26   23 1
    25   27    5 1
    26   28    1 1
    27   29   28 2
    28   30   27 1
    29   31   30 1
    30   32   30 1
    31   33   30 1
    32   34   27 1
    33   35   34 1
    34   36   34 1
    35   37   34 1
    36   38   18 1
    37   39   14 1
    38   40   39 2
    39   41   38 1
    40   42   41 1
    41   43   41 1
    42   44   41 1
    43   45   38 1
    44   46   45 1
    45   47   45 1
    46   48   45 1
    47   27   28 1
    48   38   39 1
@<TRIPOS>SUBSTRUCTURE
     1 RES1 1
     2 RES2 14

@<TRIPOS>CRYSIN
  10.7240   10.7950    7.4370  90.0000  90.0000  90.0000  32 1

