# MOL2 file generated by ConQuest
# Please check atom types

@<TRIPOS>MOLECULE
AQIKAM
    36    38     1
SMALL
NO_CHARGES
****
Generated from CSD

@<TRIPOS>ATOM
      1 O1         1.8941    0.5322   11.0495 O.2       1 RES1    0.0000
      2 N1         0.9017   -0.1146   10.5575 N.pl3     1 RES1    0.0000
      3 C1         1.0585   -1.4622    9.8890 C.3       1 RES1    0.0000
      4 C2         1.6716   -1.1671    8.5012 C.3       1 RES1    0.0000
      5 H1         0.7376   -0.6379    7.9271 H         1 RES1    0.0000
      6 H2         2.0449   -1.8439    8.1881 H         1 RES1    0.0000
      7 H3         2.6558   -0.5582    8.5732 H         1 RES1    0.0000
      8 C3         2.0429   -2.3203   10.6780 C.3       1 RES1    0.0000
      9 H4         1.6285   -2.5117   11.6049 H         1 RES1    0.0000
     10 H5         2.9325   -1.8638   10.5240 H         1 RES1    0.0000
     11 H6         1.6989   -3.2094   10.3997 H         1 RES1    0.0000
     12 C4        -0.3844   -1.9515    9.8803 C.3       1 RES1    0.0000
     13 C5        -0.8145   -2.7648    8.6652 C.3       1 RES1    0.0000
     14 H7        -0.3853   -2.2725    7.7656 H         1 RES1    0.0000
     15 H8        -1.7161   -3.0200    8.7969 H         1 RES1    0.0000
     16 H9        -0.3016   -3.5184    8.5484 H         1 RES1    0.0000
     17 C6        -0.8508   -2.6403   11.1663 C.3       1 RES1    0.0000
     18 H10       -0.4250   -3.4187   11.1328 H         1 RES1    0.0000
     19 H11       -1.9521   -2.8007   10.9091 H         1 RES1    0.0000
     20 H12       -0.5359   -2.1130   11.8783 H         1 RES1    0.0000
     21 N2        -1.1417   -0.6349    9.8915 N.pl3     1 RES1    0.0000
     22 O2        -2.3548   -0.4964    9.5908 O.2       1 RES1    0.0000
     23 C7        -0.3318    0.3090   10.4072 C.2       1 RES1    0.0000
     24 N3        -0.8251    1.5429   10.8010 N.pl3     1 RES1    0.0000
     25 N4        -0.2786    2.7180   10.2854 N.2       1 RES1    0.0000
     26 N5        -0.9135    3.7007   10.8110 N.2       1 RES1    0.0000
     27 C8        -1.8664    3.2233   11.6857 C.ar      1 RES1    0.0000
     28 C9        -2.7559    3.8881   12.5281 C.ar      1 RES1    0.0000
     29 H13       -2.7193    4.9237   12.5617 H         1 RES1    0.0000
     30 C10       -3.5453    3.1456   13.3419 C.ar      1 RES1    0.0000
     31 H14       -4.1564    3.5682   14.0030 H         1 RES1    0.0000
     32 C11       -3.4800    1.7313   13.3457 C.ar      1 RES1    0.0000
     33 H15       -4.0136    1.3057   13.9036 H         1 RES1    0.0000
     34 C12       -2.6495    1.0595   12.5132 C.ar      1 RES1    0.0000
     35 H16       -2.6916    0.1495   12.5120 H         1 RES1    0.0000
     36 C13       -1.8273    1.8260   11.6894 C.ar      1 RES1    0.0000
@<TRIPOS>BOND
     1    1    2 1
     2    2    3 1
     3    3    4 1
     4    4    5 1
     5    6    4 1
     6    7    4 1
     7    8    3 1
     8    9    8 1
     9   10    8 1
    10   11    8 1
    11   12    3 1
    12   13   12 1
    13   14   13 1
    14   15   13 1
    15   16   13 1
    16   17   12 1
    17   18   17 1
    18   19   17 1
    19   20   17 1
    20   21   12 1
    21   22   21 1
    22   23    2 1
    23   24   23 1
    24   25   24 1
    25   26   25 2
    26   27   26 1
    27   28   27 ar
    28   29   28 1
    29   30   28 ar
    30   31   30 1
    31   32   30 ar
    32   33   32 1
    33   34   32 ar
    34   35   34 1
    35   36   24 1
    36   21   23 2
    37   27   36 ar
    38   34   36 ar
@<TRIPOS>SUBSTRUCTURE
     1 RES1 1

@<TRIPOS>CRYSIN
  10.9040    9.9670   13.1190  90.0000 108.7200  90.0000  14 1

