# MOL2 file generated by ConQuest
# Please check atom types

@<TRIPOS>MOLECULE
AQIKIU
    29    30     1
SMALL
NO_CHARGES
****
Generated from CSD

@<TRIPOS>ATOM
      1 O1         3.4963    4.9014    0.9050 O.2       1 RES1    0.0000
      2 N1         2.7426    5.0251    1.9268 N.pl3     1 RES1    0.0000
      3 C1         1.4714    5.8091    1.9647 C.3       1 RES1    0.0000
      4 C2         0.4351    4.9364    1.2430 C.3       1 RES1    0.0000
      5 H1         0.3354    4.1310    1.6558 H         1 RES1    0.0000
      6 H2         0.6179    4.7670    0.2949 H         1 RES1    0.0000
      7 H3        -0.4448    5.4675    1.3405 H         1 RES1    0.0000
      8 C3         1.6533    7.1048    1.2294 C.3       1 RES1    0.0000
      9 H4         1.7122    6.9612    0.2722 H         1 RES1    0.0000
     10 H5         2.3405    7.5973    1.7715 H         1 RES1    0.0000
     11 H6         0.9093    7.6187    1.3269 H         1 RES1    0.0000
     12 C4         1.2792    5.8641    3.5053 C.3       1 RES1    0.0000
     13 C5         1.8707    7.1306    4.1077 C.3       1 RES1    0.0000
     14 H7         1.7810    7.0898    5.0354 H         1 RES1    0.0000
     15 H8         1.2828    8.0332    3.7743 H         1 RES1    0.0000
     16 H9         2.7613    7.2113    3.8718 H         1 RES1    0.0000
     17 C6        -0.1655    5.7119    3.9467 C.3       1 RES1    0.0000
     18 H10       -0.2154    5.7676    4.9038 H         1 RES1    0.0000
     19 H11       -0.5005    4.8600    3.6586 H         1 RES1    0.0000
     20 H12       -0.6949    6.4123    3.5588 H         1 RES1    0.0000
     21 N2         2.0796    4.7127    4.0417 N.2       1 RES1    0.0000
     22 C7         2.8802    4.3575    3.1301 C.2       1 RES1    0.0000
     23 N3         3.8515    3.3655    3.2732 N.pl3     1 RES1    0.0000
     24 C8         4.4665    2.6022    2.3340 C.2       1 RES1    0.0000
     25 H13        4.2721    2.7730    1.4585 H         1 RES1    0.0000
     26 N4         5.2736    1.7396    2.8954 N.2       1 RES1    0.0000
     27 C9         5.1197    2.0112    4.2198 C.2       1 RES1    0.0000
     28 H14        5.5109    1.4866    4.9038 H         1 RES1    0.0000
     29 N5         4.2782    2.9681    4.5176 N.2       1 RES1    0.0000
@<TRIPOS>BOND
     1    1    2 1
     2    2    3 1
     3    3    4 1
     4    4    5 1
     5    6    4 1
     6    7    4 1
     7    8    3 1
     8    9    8 1
     9   10    8 1
    10   11    8 1
    11   12    3 1
    12   13   12 1
    13   14   13 1
    14   15   13 1
    15   16   13 1
    16   17   12 1
    17   18   17 1
    18   19   17 1
    19   20   17 1
    20   21   12 1
    21   22    2 1
    22   23   22 1
    23   24   23 1
    24   25   24 1
    25   26   24 2
    26   27   26 1
    27   28   27 1
    28   29   23 1
    29   21   22 2
    30   27   29 2
@<TRIPOS>SUBSTRUCTURE
     1 RES1 1

@<TRIPOS>CRYSIN
   6.8660    7.1470   22.8360  90.0000  96.6580  90.0000 231 1

