# MOL2 file generated by ConQuest
# Please check atom types

@<TRIPOS>MOLECULE
AQILES
    54    56     2
SMALL
NO_CHARGES
****
Generated from CSD

@<TRIPOS>ATOM
      1 N1         3.4131    6.0779    2.1728 N.pl3     1 RES1    0.0000
      2 N2        -0.7097    8.1290    3.6424 N.pl3     1 RES1    0.0000
      3 N3         2.3380    5.8857   -0.5334 N.pl3     1 RES1    0.0000
      4 H1         3.1522    5.6405   -0.2382 H         1 RES1    0.0000
      5 N4         0.9442    6.1479   -2.4227 N.ar      1 RES1    0.0000
      6 O1         3.7041    6.0187    3.3650 O.2       1 RES1    0.0000
      7 O2         4.2163    5.7604    1.2781 O.2       1 RES1    0.0000
      8 O3        -1.8531    8.5013    3.3908 O.2       1 RES1    0.0000
      9 O4        -0.1901    8.2196    4.7592 O.2       1 RES1    0.0000
     10 C1         2.0829    6.5448    1.7951 C.ar      1 RES1    0.0000
     11 C2         1.3344    7.0850    2.8202 C.ar      1 RES1    0.0000
     12 H2         1.6803    7.1287    3.6827 H         1 RES1    0.0000
     13 C3         0.0738    7.5573    2.5552 C.ar      1 RES1    0.0000
     14 C4        -0.4616    7.4895    1.2719 C.ar      1 RES1    0.0000
     15 H3        -1.3192    7.8084    1.1050 H         1 RES1    0.0000
     16 C5         0.2822    6.9508    0.2561 C.ar      1 RES1    0.0000
     17 H4        -0.0832    6.9121   -0.5982 H         1 RES1    0.0000
     18 C6         1.5889    6.4504    0.4655 C.ar      1 RES1    0.0000
     19 C7         2.0655    5.6893   -1.8977 C.ar      1 RES1    0.0000
     20 C8         3.0487    5.0173   -2.6358 C.ar      1 RES1    0.0000
     21 H5         3.8152    4.6903   -2.2242 H         1 RES1    0.0000
     22 C9         2.8469    4.8548   -3.9838 C.ar      1 RES1    0.0000
     23 H6         3.4896    4.4351   -4.5093 H         1 RES1    0.0000
     24 C10        1.6779    5.3247   -4.5494 C.ar      1 RES1    0.0000
     25 H7         1.5109    5.2155   -5.4578 H         1 RES1    0.0000
     26 C11        0.7656    5.9568   -3.7384 C.ar      1 RES1    0.0000
     27 H8        -0.0205    6.2713   -4.1243 H         1 RES1    0.0000
     28 O5         1.9337    9.4638    7.3282 O.2       2 RES2    0.0000
     29 O6         2.7377    9.3810    9.3298 O.2       2 RES2    0.0000
     30 O7         6.9378    7.5819   10.3320 O.2       2 RES2    0.0000
     31 O8         8.3413    7.0804    8.7547 O.2       2 RES2    0.0000
     32 N5         2.8612    9.2462    8.1157 N.pl3     2 RES2    0.0000
     33 N6         7.2489    7.5004    9.1441 N.pl3     2 RES2    0.0000
     34 N7         3.5556    9.2686    5.2823 N.pl3     2 RES2    0.0000
     35 H9         2.7867    9.5471    5.6611 H         2 RES2    0.0000
     36 N8         4.7201    9.0062    3.2397 N.ar      2 RES2    0.0000
     37 C12        4.1464    8.7902    7.5932 C.ar      2 RES2    0.0000
     38 C13        5.0511    8.3639    8.5462 C.ar      2 RES2    0.0000
     39 H10        4.8253    8.3700    9.4483 H         2 RES2    0.0000
     40 C14        6.2881    7.9311    8.1398 C.ar      2 RES2    0.0000
     41 C15        6.6411    7.9273    6.7895 C.ar      2 RES2    0.0000
     42 H11        7.4836    7.6348    6.5280 H         2 RES2    0.0000
     43 C16        5.7399    8.3551    5.8493 C.ar      2 RES2    0.0000
     44 H12        5.9839    8.3436    4.9520 H         2 RES2    0.0000
     45 C17        4.4582    8.8106    6.2039 C.ar      2 RES2    0.0000
     46 C18        3.6561    9.4438    3.8955 C.ar      2 RES2    0.0000
     47 C19        2.5743   10.0696    3.2727 C.ar      2 RES2    0.0000
     48 H13        1.8549   10.3821    3.7730 H         2 RES2    0.0000
     49 C20        2.5925   10.2153    1.9085 C.ar      2 RES2    0.0000
     50 H14        1.8800   10.6159    1.4650 H         2 RES2    0.0000
     51 C21        3.6925    9.7561    1.2029 C.ar      2 RES2    0.0000
     52 H15        3.7318    9.8354    0.2773 H         2 RES2    0.0000
     53 C22        4.7242    9.1795    1.9045 C.ar      2 RES2    0.0000
     54 H16        5.4697    8.8929    1.4281 H         2 RES2    0.0000
@<TRIPOS>BOND
     1    1    6 2
     2    2    8 2
     3    3    4 1
     4    5   19 ar
     5    7    1 2
     6    9    2 2
     7   10    1 1
     8   11   10 ar
     9   12   11 1
    10   13    2 1
    11   14   13 ar
    12   15   14 1
    13   16   14 ar
    14   17   16 1
    15   18    3 1
    16   19    3 1
    17   20   19 ar
    18   21   20 1
    19   22   20 ar
    20   23   22 1
    21   24   22 ar
    22   25   24 1
    23   26    5 ar
    24   27   26 1
    25   28   32 2
    26   29   32 2
    27   30   33 2
    28   31   33 2
    29   32   37 1
    30   33   40 1
    31   34   35 1
    32   36   46 ar
    33   37   38 ar
    34   38   39 1
    35   40   38 ar
    36   41   40 ar
    37   42   41 1
    38   43   41 ar
    39   44   43 1
    40   45   34 1
    41   46   34 1
    42   47   46 ar
    43   48   47 1
    44   49   47 ar
    45   50   49 1
    46   51   49 ar
    47   52   51 1
    48   53   36 ar
    49   54   53 1
    50   10   18 ar
    51   11   13 ar
    52   16   18 ar
    53   24   26 ar
    54   37   45 ar
    55   43   45 ar
    56   51   53 ar
@<TRIPOS>SUBSTRUCTURE
     1 RES1 1
     2 RES2 28

@<TRIPOS>CRYSIN
   9.8392   10.1624   10.9012  88.6020  86.3400  87.7030   2 1

