# MOL2 file generated by ConQuest
# Please check atom types

@<TRIPOS>MOLECULE
AQIWOO
   177   185     3
SMALL
NO_CHARGES
****
Generated from CSD

@<TRIPOS>ATOM
      1 N1        -0.6161   -0.0750   -0.4383 N.3       1 RES1    0.0000
      2 O1       -11.6151   -5.4106    1.9140 O.3       1 RES1    0.0000
      3 O2       -13.4774   -5.4938    0.6870 O.2       1 RES1    0.0000
      4 O3        -8.2601   -2.8042   -0.8630 O.3       1 RES1    0.0000
      5 H1        -8.0993   -2.7462   -1.6652 H         1 RES1    0.0000
      6 O4         0.6070   -0.3452    0.2973 O.3       1 RES1    0.0000
      7 O5         0.4220   -0.7987   -2.4099 O.3       1 RES1    0.0000
      8 O6         0.0201    2.6867   -1.3953 O.3       1 RES1    0.0000
      9 H2         0.4196    3.0602   -0.7841 H         1 RES1    0.0000
     10 O7         2.3654    2.7100   -3.0772 O.3       1 RES1    0.0000
     11 H3         2.6769    2.8510   -3.8219 H         1 RES1    0.0000
     12 O8         2.0310    0.7392   -5.2566 O.3       1 RES1    0.0000
     13 H4         2.6109    1.3111   -5.3491 H         1 RES1    0.0000
     14 O9         2.2387   -2.5098   -3.7703 O.3       1 RES1    0.0000
     15 H5         2.1093   -2.5389   -2.9619 H         1 RES1    0.0000
     16 C1        -2.8540   -0.6478    1.5788 C.3       1 RES1    0.0000
     17 H6        -2.4575    0.2361    1.6213 H         1 RES1    0.0000
     18 H7        -3.0949   -0.9069    2.4827 H         1 RES1    0.0000
     19 C2        -1.7935   -1.6498    1.0358 C.3       1 RES1    0.0000
     20 H8        -1.0023   -1.6118    1.5955 H         1 RES1    0.0000
     21 H9        -2.1510   -2.5502    1.0844 H         1 RES1    0.0000
     22 C3        -1.4082   -1.3490   -0.3807 C.3       1 RES1    0.0000
     23 H10       -0.8518   -2.0814   -0.7189 H         1 RES1    0.0000
     24 C4        -2.6423   -1.2243   -1.2618 C.3       1 RES1    0.0000
     25 H11       -2.3619   -0.9297   -2.1415 H         1 RES1    0.0000
     26 H12       -3.0374   -2.1052   -1.3604 H         1 RES1    0.0000
     27 C5        -3.7083   -0.2787   -0.7598 C.3       1 RES1    0.0000
     28 H13       -3.3116    0.6176   -0.7553 H         1 RES1    0.0000
     29 C6        -4.9186   -0.2162   -1.6834 C.3       1 RES1    0.0000
     30 H14       -4.6229   -0.0712   -2.5964 H         1 RES1    0.0000
     31 H15       -5.4836    0.5301   -1.4286 H         1 RES1    0.0000
     32 C7        -5.7241   -1.5143   -1.6091 C.3       1 RES1    0.0000
     33 H16       -5.1801   -2.2454   -1.9413 H         1 RES1    0.0000
     34 H17       -6.5011   -1.4386   -2.1854 H         1 RES1    0.0000
     35 C8        -6.1937   -1.8445   -0.1699 C.3       1 RES1    0.0000
     36 H18       -6.7350   -1.0956    0.1547 H         1 RES1    0.0000
     37 C9        -4.9322   -1.9560    0.7280 C.3       1 RES1    0.0000
     38 H19       -4.3449   -2.6364    0.3382 H         1 RES1    0.0000
     39 C10       -4.1568   -0.5781    0.7052 C.3       1 RES1    0.0000
     40 C11       -5.2943   -2.4071    2.1521 C.3       1 RES1    0.0000
     41 H20       -4.4870   -2.5304    2.6738 H         1 RES1    0.0000
     42 H21       -5.8360   -1.7284    2.5843 H         1 RES1    0.0000
     43 C12       -6.0645   -3.7094    2.0823 C.3       1 RES1    0.0000
     44 H22       -6.2684   -3.9991    2.9847 H         1 RES1    0.0000
     45 H23       -5.4980   -4.3849    1.6774 H         1 RES1    0.0000
     46 C13       -7.3870   -3.6210    1.2770 C.3       1 RES1    0.0000
     47 C14       -7.0465   -3.0861   -0.1501 C.3       1 RES1    0.0000
     48 C15       -6.4804   -4.3373   -0.8523 C.3       1 RES1    0.0000
     49 H24       -5.5155   -4.3698   -0.7553 H         1 RES1    0.0000
     50 H25       -6.6950   -4.3188   -1.7972 H         1 RES1    0.0000
     51 C16       -7.1277   -5.5716   -0.1790 C.3       1 RES1    0.0000
     52 H26       -6.4434   -6.1969    0.1092 H         1 RES1    0.0000
     53 H27       -7.7177   -6.0249   -0.8008 H         1 RES1    0.0000
     54 C17       -7.9429   -5.0430    1.0631 C.3       1 RES1    0.0000
     55 H28       -7.6909   -5.5842    1.8396 H         1 RES1    0.0000
     56 C18       -4.9721    0.5623    1.3452 C.3       1 RES1    0.0000
     57 H29       -4.4665    1.3781    1.3043 H         1 RES1    0.0000
     58 H30       -5.1592    0.3477    2.2613 H         1 RES1    0.0000
     59 H31       -5.7966    0.6734    0.8675 H         1 RES1    0.0000
     60 C19       -8.3537   -2.7142    2.0398 C.3       1 RES1    0.0000
     61 H32       -8.5256   -3.0877    2.9073 H         1 RES1    0.0000
     62 H33       -9.1785   -2.6446    1.5530 H         1 RES1    0.0000
     63 H34       -7.9646   -1.8419    2.1384 H         1 RES1    0.0000
     64 C20       -9.4418   -5.1587    0.8842 C.2       1 RES1    0.0000
     65 C21      -10.2492   -5.3068    2.0065 C.2       1 RES1    0.0000
     66 H35       -9.8513   -5.3362    2.8467 H         1 RES1    0.0000
     67 C22      -10.1005   -5.0591   -0.2957 C.2       1 RES1    0.0000
     68 H36       -9.6132   -4.8910   -1.0692 H         1 RES1    0.0000
     69 C23      -11.4873   -5.2010   -0.3867 C.2       1 RES1    0.0000
     70 H37      -11.9069   -5.1616   -1.2163 H         1 RES1    0.0000
     71 C24      -12.2412   -5.4037    0.7720 C.2       1 RES1    0.0000
     72 C25        0.7122    0.5537    1.3847 C.3       1 RES1    0.0000
     73 H38        1.5224    0.3771    1.8685 H         1 RES1    0.0000
     74 H39       -0.0405    0.4383    1.9686 H         1 RES1    0.0000
     75 H40        0.7257    1.4546    1.0540 H         1 RES1    0.0000
     76 C26       -0.2114    0.3294   -1.7653 C.3       1 RES1    0.0000
     77 H41       -1.0121    0.5735   -2.2749 H         1 RES1    0.0000
     78 C27        0.7386    1.4883   -1.7790 C.3       1 RES1    0.0000
     79 H42        1.4768    1.3251   -1.1557 H         1 RES1    0.0000
     80 C28        1.2850    1.7384   -3.1773 C.3       1 RES1    0.0000
     81 H43        0.5695    2.1297   -3.7202 H         1 RES1    0.0000
     82 C29        1.8157    0.5156   -3.9022 C.3       1 RES1    0.0000
     83 H44        2.6478    0.2147   -3.4806 H         1 RES1    0.0000
     84 C30        0.7083   -0.6004   -3.7536 C.3       1 RES1    0.0000
     85 H45       -0.1064   -0.2734   -4.1889 H         1 RES1    0.0000
     86 C31        1.0972   -1.9033   -4.4194 C.3       1 RES1    0.0000
     87 H46        0.3458   -2.5163   -4.3875 H         1 RES1    0.0000
     88 H47        1.3084   -1.7362   -5.3521 H         1 RES1    0.0000
     89 N2        -7.5395   -4.5826   -8.0062 N.3       2 RES2    0.0000
     90 O10        2.2015    2.9185  -10.3782 O.3       2 RES2    0.0000
     91 O11        2.8552    4.8187   -9.4621 O.2       2 RES2    0.0000
     92 O12       -1.8487    1.2641   -7.3358 O.3       2 RES2    0.0000
     93 H48       -2.0169    1.1351   -6.5427 H         2 RES2    0.0000
     94 O13       -7.7697   -5.8324   -8.7766 O.3       2 RES2    0.0000
     95 O14       -7.3328   -5.8297   -6.0012 O.3       2 RES2    0.0000
     96 O15      -10.3280   -4.0756   -7.1463 O.3       2 RES2    0.0000
     97 H49      -10.7711   -4.2769   -7.8060 H         2 RES2    0.0000
     98 O16      -11.3436   -6.2146   -5.5007 O.3       2 RES2    0.0000
     99 H50      -11.8448   -5.7138   -5.9133 H         2 RES2    0.0000
    100 O17       -9.4707   -6.5976   -3.2137 O.3       2 RES2    0.0000
    101 H51      -10.2258   -6.9090   -3.1424 H         2 RES2    0.0000
    102 O18       -6.5678   -8.1217   -4.5165 O.3       2 RES2    0.0000
    103 H52       -6.4472   -8.0717   -5.3263 H         2 RES2    0.0000
    104 C32       -6.0049   -2.7567   -9.8868 C.3       2 RES2    0.0000
    105 H53       -5.6577   -2.6213  -10.7831 H         2 RES2    0.0000
    106 H54       -6.9731   -2.7539   -9.9474 H         2 RES2    0.0000
    107 C33       -5.5494   -4.1544   -9.3924 C.3       2 RES2    0.0000
    108 H55       -5.8863   -4.8357   -9.9945 H         2 RES2    0.0000
    109 H56       -4.5803   -4.1986   -9.3999 H         2 RES2    0.0000
    110 C34       -6.0555   -4.4271   -7.9895 C.3       2 RES2    0.0000
    111 H57       -5.6492   -5.2544   -7.6558 H         2 RES2    0.0000
    112 C35       -5.6633   -3.2510   -7.0477 C.3       2 RES2    0.0000
    113 H58       -6.0770   -3.3898   -6.1817 H         2 RES2    0.0000
    114 H59       -4.7009   -3.2590   -6.9203 H         2 RES2    0.0000
    115 C36       -6.0795   -1.8714   -7.5815 C.3       2 RES2    0.0000
    116 H60       -7.0591   -1.8555   -7.6073 H         2 RES2    0.0000
    117 C37       -5.6371   -0.7867   -6.5972 C.3       2 RES2    0.0000
    118 H61       -5.8846   -1.0517   -5.6964 H         2 RES2    0.0000
    119 H62       -6.1007    0.0402   -6.8020 H         2 RES2    0.0000
    120 C38       -4.1076   -0.5433   -6.6534 C.3       2 RES2    0.0000
    121 H63       -3.8825    0.2108   -6.0862 H         2 RES2    0.0000
    122 H64       -3.6466   -1.3243   -6.3106 H         2 RES2    0.0000
    123 C39       -3.6386   -0.2665   -8.0532 C.3       2 RES2    0.0000
    124 H65       -4.0971    0.5439   -8.3595 H         2 RES2    0.0000
    125 C40       -4.0078   -1.4126   -9.0435 C.3       2 RES2    0.0000
    126 H66       -3.6229   -2.2396   -8.6856 H         2 RES2    0.0000
    127 C41       -5.5755   -1.5864   -9.0269 C.3       2 RES2    0.0000
    128 C42       -3.4531   -1.2250  -10.3933 C.3       2 RES2    0.0000
    129 H67       -3.8359   -0.4297  -10.7937 H         2 RES2    0.0000
    130 H68       -3.6849   -1.9852  -10.9484 H         2 RES2    0.0000
    131 C43       -1.9212   -1.0815  -10.3281 C.3       2 RES2    0.0000
    132 H69       -1.5404   -1.8809   -9.9323 H         2 RES2    0.0000
    133 H70       -1.5679   -0.9959  -11.2275 H         2 RES2    0.0000
    134 C44       -1.5070    0.1405   -9.5016 C.3       2 RES2    0.0000
    135 C45       -2.0889    0.0272   -8.0957 C.3       2 RES2    0.0000
    136 C46       -1.2256   -1.0228   -7.4208 C.3       2 RES2    0.0000
    137 H71       -1.5458   -1.9131   -7.6331 H         2 RES2    0.0000
    138 H72       -1.2392   -0.9068   -6.4577 H         2 RES2    0.0000
    139 C47        0.2268   -0.8135   -7.9789 C.3       2 RES2    0.0000
    140 H73        0.7791   -0.3493   -7.3298 H         2 RES2    0.0000
    141 H74        0.6403   -1.6654   -8.1867 H         2 RES2    0.0000
    142 C48        0.0549    0.0415   -9.2634 C.3       2 RES2    0.0000
    143 H75        0.4246   -0.4807  -10.0066 H         2 RES2    0.0000
    144 C49       -6.3193   -0.3519   -9.5789 C.3       2 RES2    0.0000
    145 H76       -7.2659   -0.5067   -9.5440 H         2 RES2    0.0000
    146 H77       -6.0533   -0.1981  -10.4889 H         2 RES2    0.0000
    147 H78       -6.1016    0.4176   -9.0481 H         2 RES2    0.0000
    148 C50       -1.8545    1.4139  -10.2735 C.3       2 RES2    0.0000
    149 H79       -2.8039    1.4610  -10.4024 H         2 RES2    0.0000
    150 H80       -1.4154    1.3996  -11.1274 H         2 RES2    0.0000
    151 H81       -1.5598    2.1798   -9.7761 H         2 RES2    0.0000
    152 C51        0.8099    1.3338   -9.2210 C.2       2 RES2    0.0000
    153 C52        1.5039    1.7572  -10.3175 C.2       2 RES2    0.0000
    154 H82        1.4988    1.2125  -11.0712 H         2 RES2    0.0000
    155 C53        0.8908    2.2055   -8.0866 C.2       2 RES2    0.0000
    156 H83        0.4663    1.9657   -7.2949 H         2 RES2    0.0000
    157 C54        1.5525    3.3382   -8.1472 C.2       2 RES2    0.0000
    158 H84        1.5758    3.8681   -7.3829 H         2 RES2    0.0000
    159 C55        2.2372    3.8101   -9.3029 C.2       2 RES2    0.0000
    160 C56       -8.5715   -5.5366   -9.8868 C.3       2 RES2    0.0000
    161 H85       -8.7200   -6.3375  -10.3964 H         2 RES2    0.0000
    162 H86       -8.1299   -4.8861  -10.4373 H         2 RES2    0.0000
    163 H87       -9.4138   -5.1861   -9.5895 H         2 RES2    0.0000
    164 C57       -8.0841   -4.8095   -6.6989 C.3       2 RES2    0.0000
    165 H88       -8.0045   -3.9761   -6.1893 H         2 RES2    0.0000
    166 C58       -9.5670   -5.2121   -6.7171 C.3       2 RES2    0.0000
    167 H89       -9.7054   -5.9637   -7.3298 H         2 RES2    0.0000
    168 C59      -10.0408   -5.5759   -5.3400 C.3       2 RES2    0.0000
    169 H90      -10.1530   -4.7543   -4.8167 H         2 RES2    0.0000
    170 C60       -9.1228   -6.5096   -4.5893 C.3       2 RES2    0.0000
    171 H91       -9.1416   -7.4000   -4.9987 H         2 RES2    0.0000
    172 C61       -7.6980   -5.9295   -4.6499 C.3       2 RES2    0.0000
    173 H92       -7.6934   -5.0364   -4.2465 H         2 RES2    0.0000
    174 C62       -6.6455   -6.8014   -3.9629 C.3       2 RES2    0.0000
    175 H93       -7.0074   -6.9433   -3.0635 H         2 RES2    0.0000
    176 O19       -5.5766   -5.9394   -3.7642 Du        3 SUP3    0.0000
    177 H94       -4.9705   -6.3461   -3.3972 Du        3 SUP3    0.0000
@<TRIPOS>BOND
     1    1    6 1
     2    2   65 1
     3    3   71 2
     4    4    5 1
     5    6   72 1
     6    7   76 1
     7    8    9 1
     8   10   11 1
     9   12   13 1
    10   14   15 1
    11   16   17 1
    12   18   16 1
    13   19   16 1
    14   20   19 1
    15   21   19 1
    16   22    1 1
    17   23   22 1
    18   24   22 1
    19   25   24 1
    20   26   24 1
    21   27   24 1
    22   28   27 1
    23   29   27 1
    24   30   29 1
    25   31   29 1
    26   32   29 1
    27   33   32 1
    28   34   32 1
    29   35   32 1
    30   36   35 1
    31   37   35 1
    32   38   37 1
    33   39   16 1
    34   40   37 1
    35   41   40 1
    36   42   40 1
    37   43   40 1
    38   44   43 1
    39   45   43 1
    40   46   43 1
    41   47    4 1
    42   48   47 1
    43   49   48 1
    44   50   48 1
    45   51   48 1
    46   52   51 1
    47   53   51 1
    48   54   46 1
    49   55   54 1
    50   56   39 1
    51   57   56 1
    52   58   56 1
    53   59   56 1
    54   60   46 1
    55   61   60 1
    56   62   60 1
    57   63   60 1
    58   64   54 1
    59   65   64 2
    60   66   65 1
    61   67   64 1
    62   68   67 1
    63   69   67 2
    64   70   69 1
    65   71    2 1
    66   72   73 1
    67   74   72 1
    68   75   72 1
    69   76    1 1
    70   77   76 1
    71   78    8 1
    72   79   78 1
    73   80   10 1
    74   81   80 1
    75   82   12 1
    76   83   82 1
    77   84    7 1
    78   85   84 1
    79   86   14 1
    80   87   86 1
    81   88   86 1
    82   89   94 1
    83   90  153 1
    84   91  159 2
    85   92   93 1
    86   94  160 1
    87   95  164 1
    88   96   97 1
    89   98   99 1
    90  100  101 1
    91  102  103 1
    92  104  105 1
    93  106  104 1
    94  107  104 1
    95  108  107 1
    96  109  107 1
    97  110   89 1
    98  111  110 1
    99  112  110 1
   100  113  112 1
   101  114  112 1
   102  115  112 1
   103  116  115 1
   104  117  115 1
   105  118  117 1
   106  119  117 1
   107  120  117 1
   108  121  120 1
   109  122  120 1
   110  123  120 1
   111  124  123 1
   112  125  123 1
   113  126  125 1
   114  127  104 1
   115  128  125 1
   116  129  128 1
   117  130  128 1
   118  131  128 1
   119  132  131 1
   120  133  131 1
   121  134  131 1
   122  135   92 1
   123  136  135 1
   124  137  136 1
   125  138  136 1
   126  139  136 1
   127  140  139 1
   128  141  139 1
   129  142  134 1
   130  143  142 1
   131  144  127 1
   132  145  144 1
   133  146  144 1
   134  147  144 1
   135  148  134 1
   136  149  148 1
   137  150  148 1
   138  151  148 1
   139  152  142 1
   140  153  152 2
   141  154  153 1
   142  155  152 1
   143  156  155 1
   144  157  155 2
   145  158  157 1
   146  159   90 1
   147  160  161 1
   148  162  160 1
   149  163  160 1
   150  164   89 1
   151  165  164 1
   152  166   96 1
   153  167  166 1
   154  168   98 1
   155  169  168 1
   156  170  100 1
   157  171  170 1
   158  172   95 1
   159  173  172 1
   160  174  102 1
   161  175  174 1
   162   19   22 1
   163   27   39 1
   164   35   47 1
   165   37   39 1
   166   46   47 1
   167   51   54 1
   168   69   71 1
   169   76   78 1
   170   78   80 1
   171   80   82 1
   172   82   84 1
   173   84   86 1
   174  107  110 1
   175  115  127 1
   176  123  135 1
   177  125  127 1
   178  134  135 1
   179  139  142 1
   180  157  159 1
   181  164  166 1
   182  166  168 1
   183  168  170 1
   184  170  172 1
   185  172  174 1
@<TRIPOS>SUBSTRUCTURE
     1 RES1 1
     2 RES2 89
     3 SUP3 176

@<TRIPOS>CRYSIN
  10.4551   10.4670   15.8564  80.7280  73.2590  65.7490   1 1

