# MOL2 file generated by ConQuest
# Please check atom types

@<TRIPOS>MOLECULE
AQOZUD01
    22    23     1
SMALL
USER_CHARGES
****
Generated from CSD

@<TRIPOS>ATOM
      1 O1         3.6867   13.3051    2.0475 O.2       1 RES1   -1.0000
      2 N1         2.7343   13.3843    2.9366 N.pl3     1 RES1    1.0000
      3 C1         2.7784   12.5793    4.0367 C.ar      1 RES1    0.0000
      4 H1         3.5668   12.0130    4.0781 H         1 RES1    0.0000
      5 C2         1.7807   12.6116    4.9684 C.ar      1 RES1    0.0000
      6 H2         1.8311   12.0460    5.7309 H         1 RES1    0.0000
      7 C3         0.7029   13.4538    4.8136 C.ar      1 RES1    0.0000
      8 H3        -0.0019   13.4960    5.4703 H         1 RES1    0.0000
      9 C4         0.6631   14.2557    3.6919 C.ar      1 RES1    0.0000
     10 H4        -0.0779   14.8353    3.5625 H         1 RES1    0.0000
     11 C5         1.6773   14.2345    2.7512 C.ar      1 RES1    0.0000
     12 C6         1.6538   15.0861    1.5417 C.ar      1 RES1    0.0000
     13 C7         0.5255   15.0838    0.7320 C.ar      1 RES1    0.0000
     14 H5        -0.2044   14.5099    0.9371 H         1 RES1    0.0000
     15 C8         0.4624   15.9166   -0.3753 C.ar      1 RES1    0.0000
     16 H6        -0.3022   15.8986   -0.9389 H         1 RES1    0.0000
     17 C9         1.5090   16.7701   -0.6589 C.ar      1 RES1    0.0000
     18 H7         1.4619   17.3463   -1.4134 H         1 RES1    0.0000
     19 C10        2.6271   16.7868    0.1561 C.ar      1 RES1    0.0000
     20 H8         3.3408   17.3841   -0.0330 H         1 RES1    0.0000
     21 C11        2.7095   15.9418    1.2388 C.ar      1 RES1    0.0000
     22 H9         3.4896   15.9411    1.7813 H         1 RES1    0.0000
@<TRIPOS>BOND
     1    1    2 1
     2    2    3 ar
     3    3    4 1
     4    5    3 ar
     5    6    5 1
     6    7    5 ar
     7    8    7 1
     8    9    7 ar
     9   10    9 1
    10   11    2 ar
    11   12   11 1
    12   13   12 ar
    13   14   13 1
    14   15   13 ar
    15   16   15 1
    16   17   15 ar
    17   18   17 1
    18   19   17 ar
    19   20   19 1
    20   21   12 ar
    21   22   21 1
    22    9   11 ar
    23   19   21 ar
@<TRIPOS>SUBSTRUCTURE
     1 RES1 1

@<TRIPOS>CRYSIN
   5.8126   23.5780    6.8356  90.0000 114.2040  90.0000  14 1

