# MOL2 file generated by ConQuest
# Please check atom types

@<TRIPOS>MOLECULE
AQOZUD
    22    23     1
SMALL
USER_CHARGES
****
Generated from CSD

@<TRIPOS>ATOM
      1 O1        -0.6823   13.3122    4.1890 O.2       1 RES1   -1.0000
      2 N1         0.2728   13.3877    3.2964 N.pl3     1 RES1    1.0000
      3 C1         1.3310   14.2447    3.4898 C.ar      1 RES1    0.0000
      4 C2         1.3517   15.0916    4.6929 C.ar      1 RES1    0.0000
      5 C3         0.2986   15.9536    5.0042 C.ar      1 RES1    0.0000
      6 H1        -0.4654   15.9570    4.4740 H         1 RES1    0.0000
      7 C4         2.3473   14.2629    2.5454 C.ar      1 RES1    0.0000
      8 H2         3.0745   14.8293    2.6733 H         1 RES1    0.0000
      9 C5         2.4800   15.0940    5.5100 C.ar      1 RES1    0.0000
     10 H3         3.1959   14.5344    5.3136 H         1 RES1    0.0000
     11 C6         2.3073   13.4688    1.4277 C.ar      1 RES1    0.0000
     12 H4         2.9882   13.5011    0.7940 H         1 RES1    0.0000
     13 C7         0.2306   12.5917    2.2030 C.ar      1 RES1    0.0000
     14 H5        -0.4902   12.0173    2.0851 H         1 RES1    0.0000
     15 C8         1.2292   12.6172    1.2668 C.ar      1 RES1    0.0000
     16 H6         1.1828   12.0621    0.5221 H         1 RES1    0.0000
     17 C9         1.4949   16.7782    6.9041 C.ar      1 RES1    0.0000
     18 H7         1.5389   17.3394    7.6451 H         1 RES1    0.0000
     19 C10        0.3784   16.7916    6.0826 C.ar      1 RES1    0.0000
     20 H8        -0.3220   17.3748    6.2666 H         1 RES1    0.0000
     21 C11        2.5395   15.9253    6.6128 C.ar      1 RES1    0.0000
     22 H9         3.2896   15.9098    7.1623 H         1 RES1    0.0000
@<TRIPOS>BOND
     1    1    2 1
     2    2    3 ar
     3    3    4 1
     4    4    5 ar
     5    5    6 1
     6    7    3 ar
     7    8    7 1
     8    9    4 ar
     9   10    9 1
    10   11    7 ar
    11   12   11 1
    12   13    2 ar
    13   14   13 1
    14   15   11 ar
    15   16   15 1
    16   17   18 1
    17   19    5 ar
    18   20   19 1
    19   21    9 ar
    20   22   21 1
    21   13   15 ar
    22   17   19 ar
    23   17   21 ar
@<TRIPOS>SUBSTRUCTURE
     1 RES1 1

@<TRIPOS>CRYSIN
   5.8141   23.5910    6.8413  90.0000 114.2570  90.0000  14 1

