# MOL2 file generated by ConQuest
# Please check atom types

@<TRIPOS>MOLECULE
AQUGUQ
    54    54     2
SMALL
USER_CHARGES
****
Generated from CSD

@<TRIPOS>ATOM
      1 O1         9.7757    1.1860    9.2189 O.2       1 RES1   -1.0000
      2 O2         6.7010    4.1481   10.1884 O.2       1 RES1   -1.0000
      3 O3         8.5624   -0.8449    7.5001 O.2       1 RES1   -1.0000
      4 N1         8.6830    1.7046    8.9251 N.pl3     1 RES1    1.0000
      5 N2         8.2457    2.6646    9.7947 N.ar      1 RES1    0.0000
      6 N3         7.0858    3.2174    9.4499 N.pl3     1 RES1    1.0000
      7 N4         6.2907    2.9119    8.4332 N.ar      1 RES1    0.0000
      8 N5         5.9453    1.6092    6.6042 N.pl3     1 RES1    0.0000
      9 H1         6.2237    1.1300    5.9642 H         1 RES1    0.0000
     10 H2         5.1541    1.9296    6.5848 H         1 RES1    0.0000
     11 N6         8.5457    0.3127    7.0076 N.pl3     1 RES1    1.0000
     12 N7         8.9315    0.7169    5.8743 N.2       1 RES1    0.0000
     13 C1         6.7381    1.9482    7.6084 C.ar      1 RES1    0.0000
     14 C2         7.9851    1.3560    7.8326 C.ar      1 RES1    0.0000
     15 C3         9.4649   -0.3129    4.9345 C.3       1 RES1    0.0000
     16 C4        10.6938   -1.0112    5.5226 C.3       1 RES1    0.0000
     17 H3        11.3091   -0.3401    5.8847 H         1 RES1    0.0000
     18 H4        11.1462   -1.5223    4.8190 H         1 RES1    0.0000
     19 H5        10.4128   -1.6183    6.2379 H         1 RES1    0.0000
     20 C5         9.8572    0.4989    3.7020 C.3       1 RES1    0.0000
     21 H6         9.0683    0.9605    3.3499 H         1 RES1    0.0000
     22 H7        10.2178   -0.1018    3.0155 H         1 RES1    0.0000
     23 H8        10.5387    1.1583    3.9475 H         1 RES1    0.0000
     24 C6         8.3616   -1.3038    4.5607 C.3       1 RES1    0.0000
     25 H9         7.5780   -0.8129    4.2359 H         1 RES1    0.0000
     26 H10        8.1142   -1.8299    5.3498 H         1 RES1    0.0000
     27 H11        8.6854   -1.9035    3.8577 H         1 RES1    0.0000
     28 O4        12.4753    1.0768   13.8858 O.2       2 RES2   -1.0000
     29 O5         9.1711    3.7376   14.9534 O.2       2 RES2   -1.0000
     30 O6        10.5678   -1.3495   12.0092 O.2       2 RES2   -1.0000
     31 N8        11.2771    1.3928   13.7010 N.pl3     2 RES2    1.0000
     32 N9        10.8368    2.4029   14.5081 N.ar      2 RES2    0.0000
     33 N10        9.5593    2.7483   14.3108 N.pl3     2 RES2    1.0000
     34 N11        8.6615    2.1396   13.5489 N.ar      2 RES2    0.0000
     35 N12        8.2283    0.4691   12.0625 N.pl3     2 RES2    0.0000
     36 H12        8.4568   -0.2612   11.6107 H         2 RES2    0.0000
     37 H13        7.4204    0.7995   12.0307 H         2 RES2    0.0000
     38 N13       11.0643   -0.1830   11.9225 N.pl3     2 RES2    1.0000
     39 N14       11.9747    0.2640   11.1756 N.2       2 RES2    0.0000
     40 C7         9.1122    1.1204   12.7937 C.ar      2 RES2    0.0000
     41 C8        10.4848    0.8033   12.7955 C.ar      2 RES2    0.0000
     42 C9        12.6811   -0.6977   10.2868 C.3       2 RES2    0.0000
     43 C10       13.5281   -1.6199   11.1674 C.3       2 RES2    0.0000
     44 H14       14.0573   -1.0799   11.7904 H         2 RES2    0.0000
     45 H15       14.1292   -2.1492   10.6034 H         2 RES2    0.0000
     46 H16       12.9406   -2.2201   11.6713 H         2 RES2    0.0000
     47 C11       13.5803    0.2047    9.4545 C.3       2 RES2    0.0000
     48 H17       13.0280    0.7937    8.8982 H         2 RES2    0.0000
     49 H18       14.1520   -0.3449    8.8794 H         2 RES2    0.0000
     50 H19       14.1400    0.7473   10.0496 H         2 RES2    0.0000
     51 C12       11.7433   -1.4914    9.3786 C.3       2 RES2    0.0000
     52 H20       11.0819   -0.8859    8.9838 H         2 RES2    0.0000
     53 H21       11.2848   -2.1790    9.9033 H         2 RES2    0.0000
     54 H22       12.2635   -1.9178    8.6662 H         2 RES2    0.0000
@<TRIPOS>BOND
     1    1    4 1
     2    2    6 1
     3    3   11 1
     4    4    5 ar
     5    5    6 ar
     6    6    7 ar
     7    7   13 ar
     8    8    9 1
     9   10    8 1
    10   11   12 2
    11   12   15 1
    12   13    8 1
    13   14    4 ar
    14   15   16 1
    15   16   17 1
    16   18   16 1
    17   19   16 1
    18   20   15 1
    19   21   20 1
    20   22   20 1
    21   23   20 1
    22   24   15 1
    23   25   24 1
    24   26   24 1
    25   27   24 1
    26   28   31 1
    27   29   33 1
    28   30   38 1
    29   31   32 ar
    30   32   33 ar
    31   33   34 ar
    32   34   40 ar
    33   35   36 1
    34   37   35 1
    35   38   39 2
    36   39   42 1
    37   40   35 1
    38   41   31 ar
    39   42   43 1
    40   43   44 1
    41   45   43 1
    42   46   43 1
    43   47   42 1
    44   48   47 1
    45   49   47 1
    46   50   47 1
    47   51   42 1
    48   52   51 1
    49   53   51 1
    50   54   51 1
    51   11   14 1
    52   13   14 ar
    53   38   41 1
    54   40   41 ar
@<TRIPOS>SUBSTRUCTURE
     1 RES1 1
     2 RES2 28

@<TRIPOS>CRYSIN
  18.7877    5.3303   21.9727  90.0000 107.9980  90.0000 231 1

