# MOL2 file generated by ConQuest
# Please check atom types

@<TRIPOS>MOLECULE
ARADAZ
    32    32     2
SMALL
NO_CHARGES
****
Generated from CSD

@<TRIPOS>ATOM
      1 O1        13.8711    1.6849   -1.0486 O.co2     1 RES1    0.0000
      2 H1        13.7442    1.7939   -1.8711 Du        2 SUP2    0.0000
      3 O2        12.0574    1.8109    3.1415 O.3       1 RES1    0.0000
      4 N1        12.0574    1.8109    3.1415 Du        2 SUP2    0.0000
      5 C1        12.7710    1.6576   -0.4556 C.2       1 RES1    0.0000
      6 C2        12.7710    1.6399    1.0217 C.2       1 RES1    0.0000
      7 C3        11.6638    1.7107    1.8839 C.2       1 RES1    0.0000
      8 C4        10.2081    1.7033    1.6664 C.2       1 RES1    0.0000
      9 C5         9.6061    0.7556    0.8332 C.2       1 RES1    0.0000
     10 H2        10.1427    0.1104    0.3883 H         1 RES1    0.0000
     11 C6         8.2381    0.7515    0.6511 C.2       1 RES1    0.0000
     12 H3         7.8388    0.1063    0.0786 H         1 RES1    0.0000
     13 C7         7.4406    1.6849    1.3008 C.2       1 RES1    0.0000
     14 H4         6.5004    1.6869    1.1683 H         1 RES1    0.0000
     15 C8         8.0309    2.6155    2.1453 C.2       1 RES1    0.0000
     16 H5         7.4889    3.2491    2.5995 H         1 RES1    0.0000
     17 C9         9.3997    2.6285    2.3331 C.2       1 RES1    0.0000
     18 H6         9.7928    3.2675    2.9155 H         1 RES1    0.0000
     19 O1C       11.6709    1.6849   -1.0486 O.co2     1 RES1    0.0000
     20 O2C       13.4846    1.8109    3.1415 O.3       1 RES1    0.0000
     21 C3C       13.8782    1.7107    1.8839 C.2       1 RES1    0.0000
     22 C4C       15.3339    1.7033    1.6664 C.2       1 RES1    0.0000
     23 C5C       15.9359    0.7556    0.8332 C.2       1 RES1    0.0000
     24 H2C       15.3993    0.1104    0.3883 H         1 RES1    0.0000
     25 C6C       17.3039    0.7515    0.6511 C.2       1 RES1    0.0000
     26 H3C       17.7032    0.1063    0.0786 H         1 RES1    0.0000
     27 C7C       18.1014    1.6849    1.3008 C.2       1 RES1    0.0000
     28 H4C       19.0416    1.6869    1.1683 H         1 RES1    0.0000
     29 C8C       17.5111    2.6155    2.1453 C.2       1 RES1    0.0000
     30 H5C       18.0531    3.2491    2.5995 H         1 RES1    0.0000
     31 C9C       16.1423    2.6285    2.3331 C.2       1 RES1    0.0000
     32 H6C       15.7492    3.2675    2.9155 H         1 RES1    0.0000
@<TRIPOS>BOND
     1    1    5 1
     2    3    7 1
     3    5    6 1
     4    6    7 1
     5    7    8 1
     6    8    9 1
     7    9   10 1
     8   11    9 1
     9   12   11 1
    10   13   11 1
    11   14   13 1
    12   15   13 1
    13   16   15 1
    14   17    8 1
    15   18   17 1
    16   19    5 1
    17   20    3 1
    18   21    6 1
    19   22   21 1
    20   23   22 1
    21   24   23 1
    22   25   23 1
    23   26   25 1
    24   27   25 1
    25   28   27 1
    26   29   27 1
    27   30   29 1
    28   31   22 1
    29   32   31 1
    30   15   17 1
    31   20   21 1
    32   29   31 1
@<TRIPOS>SUBSTRUCTURE
     1 RES1 1
     2 SUP2 2

@<TRIPOS>CRYSIN
  25.5420    6.8130    7.0850  90.0000  90.0000  90.0000  36 1

