# MOL2 file generated by ConQuest
# Please check atom types

@<TRIPOS>MOLECULE
ARADIH
    28    29     1
SMALL
NO_CHARGES
****
Generated from CSD

@<TRIPOS>ATOM
      1 O1         3.7500    5.0456    1.5602 O.3       1 RES1    0.0000
      2 O2         2.5105    5.5604    3.9609 O.2       1 RES1    0.0000
      3 O3         3.8192    4.0845    4.9854 O.3       1 RES1    0.0000
      4 H1         3.3607    4.2831    5.6600 H         1 RES1    0.0000
      5 N1         2.5784    4.6265    0.7704 N.3       1 RES1    0.0000
      6 C1         3.9221    4.1249    2.6432 C.3       1 RES1    0.0000
      7 H2         4.8944    3.9241    2.7686 H         1 RES1    0.0000
      8 C2         3.1841    2.8638    2.2033 C.3       1 RES1    0.0000
      9 H3         3.7289    2.3211    1.5795 H         1 RES1    0.0000
     10 H4         2.9192    2.3074    2.9782 H         1 RES1    0.0000
     11 C3         1.9735    3.4727    1.5081 C.3       1 RES1    0.0000
     12 H5         1.3480    3.8275    2.2027 H         1 RES1    0.0000
     13 C4         3.3346    4.6844    3.9403 C.2       1 RES1    0.0000
     14 C5         1.6803    5.7831    0.7074 C.3       1 RES1    0.0000
     15 H6         2.1203    6.5118    0.2212 H         1 RES1    0.0000
     16 H7         1.4650    6.0793    1.6161 H         1 RES1    0.0000
     17 H8         0.8550    5.5313    0.2425 H         1 RES1    0.0000
     18 C6         1.1950    2.5999    0.5518 C.ar      1 RES1    0.0000
     19 C7        -0.1969    2.6166    0.6155 C.ar      1 RES1    0.0000
     20 H9        -0.6350    3.1473    1.2708 H         1 RES1    0.0000
     21 C8        -0.9481    1.8598   -0.2765 C.ar      1 RES1    0.0000
     22 H10       -1.8972    1.8802   -0.2315 H         1 RES1    0.0000
     23 C9        -0.3222    1.0795   -1.2264 C.ar      1 RES1    0.0000
     24 H11       -0.8378    0.5543   -1.8277 H         1 RES1    0.0000
     25 C10        1.0658    1.0656   -1.2997 C.ar      1 RES1    0.0000
     26 H12        1.4994    0.5396   -1.9615 H         1 RES1    0.0000
     27 C11        1.8223    1.8177   -0.4103 C.ar      1 RES1    0.0000
     28 H13        2.7709    1.7972   -0.4592 H         1 RES1    0.0000
@<TRIPOS>BOND
     1    1    5 1
     2    2   13 2
     3    3    4 1
     4    5   11 1
     5    6    1 1
     6    7    6 1
     7    8    6 1
     8    9    8 1
     9   10    8 1
    10   11    8 1
    11   12   11 1
    12   13    3 1
    13   14    5 1
    14   15   14 1
    15   16   14 1
    16   17   14 1
    17   18   11 1
    18   19   18 ar
    19   20   19 1
    20   21   19 ar
    21   22   21 1
    22   23   21 ar
    23   24   23 1
    24   25   23 ar
    25   26   25 1
    26   27   18 ar
    27   28   27 1
    28    6   13 1
    29   25   27 ar
@<TRIPOS>SUBSTRUCTURE
     1 RES1 1

@<TRIPOS>CRYSIN
  15.6021   10.4979    6.4311  90.0000  90.0000  90.0000  33 1

