# MOL2 file generated by ConQuest
# Please check atom types

@<TRIPOS>MOLECULE
ARAHAD
    70    74     1
SMALL
NO_CHARGES
****
Generated from CSD

@<TRIPOS>ATOM
      1 N1         1.7531    6.1320    0.7880 N.3       1 RES1    0.0000
      2 O1        -5.4000    4.9758    3.2871 O.3       1 RES1    0.0000
      3 O2         4.6751   -1.4947    3.7895 O.3       1 RES1    0.0000
      4 O3         0.4932    3.7616   -2.9911 O.2       1 RES1    0.0000
      5 O4         0.3339    6.2705    1.0116 O.3       1 RES1    0.0000
      6 C1         3.8185    7.3228    1.1525 C.ar      1 RES1    0.0000
      7 H1         4.2760    6.6307    0.6900 H         1 RES1    0.0000
      8 C2         4.5210    8.3699    1.6883 C.ar      1 RES1    0.0000
      9 H2         5.4617    8.4127    1.5617 H         1 RES1    0.0000
     10 C3         3.8937    9.3576    2.4049 C.ar      1 RES1    0.0000
     11 H3         4.3946   10.0621    2.7979 H         1 RES1    0.0000
     12 C4         2.5123    9.3093    2.5438 C.ar      1 RES1    0.0000
     13 H4         2.0629    9.9889    3.0320 H         1 RES1    0.0000
     14 C5         1.7895    8.2815    1.9795 C.ar      1 RES1    0.0000
     15 H5         0.8435    8.2677    2.0699 H         1 RES1    0.0000
     16 C6         2.4226    7.2745    1.2867 C.ar      1 RES1    0.0000
     17 C7         0.3008    7.4002   -1.7511 C.ar      1 RES1    0.0000
     18 H6        -0.3917    7.0893   -1.1810 H         1 RES1    0.0000
     19 C8         0.0291    8.3644   -2.6913 C.ar      1 RES1    0.0000
     20 H7        -0.8509    8.7125   -2.7608 H         1 RES1    0.0000
     21 C9         0.9961    8.8258   -3.5231 C.ar      1 RES1    0.0000
     22 H8         0.9679    9.5178   -4.1778 H         1 RES1    0.0000
     23 C10        2.2901    8.3381   -3.4079 C.ar      1 RES1    0.0000
     24 H9         2.9755    8.6683   -3.9761 H         1 RES1    0.0000
     25 C11        2.5770    7.3794   -2.4734 C.ar      1 RES1    0.0000
     26 H10        3.4654    7.0520   -2.4020 H         1 RES1    0.0000
     27 C12        1.5961    6.8725   -1.6273 C.ar      1 RES1    0.0000
     28 C13        3.7175    1.8538    2.6570 C.ar      1 RES1    0.0000
     29 H11        3.6657    2.7476    2.9768 H         1 RES1    0.0000
     30 C14        4.1892    0.8620    3.4888 C.ar      1 RES1    0.0000
     31 H12        4.4727    1.0789    4.3691 H         1 RES1    0.0000
     32 C15        4.2510   -0.4434    3.0472 C.ar      1 RES1    0.0000
     33 C16        3.8846   -0.7377    1.7406 C.ar      1 RES1    0.0000
     34 H13        3.9581   -1.6287    1.4189 H         1 RES1    0.0000
     35 C17        3.4209    0.2473    0.9117 C.ar      1 RES1    0.0000
     36 H14        3.1664    0.0318    0.0228 H         1 RES1    0.0000
     37 C18        3.3167    1.5665    1.3571 C.ar      1 RES1    0.0000
     38 C19       -2.6240    4.1497    1.1277 C.ar      1 RES1    0.0000
     39 H15       -2.4415    3.5226    0.4368 H         1 RES1    0.0000
     40 C20       -3.8684    4.1760    1.7273 C.ar      1 RES1    0.0000
     41 H16       -4.5314    3.5557    1.4465 H         1 RES1    0.0000
     42 C21       -4.1660    5.0711    2.7122 C.ar      1 RES1    0.0000
     43 C22       -3.2231    6.0146    3.0834 C.ar      1 RES1    0.0000
     44 H17       -3.4303    6.6708    3.7372 H         1 RES1    0.0000
     45 C23       -1.9700    5.9884    2.4877 C.ar      1 RES1    0.0000
     46 H18       -1.3246    6.6376    2.7408 H         1 RES1    0.0000
     47 C24       -1.6339    5.0435    1.5369 C.ar      1 RES1    0.0000
     48 C25       -0.2187    4.9413    1.0040 C.3       1 RES1    0.0000
     49 H19        0.3150    4.3721    1.6302 H         1 RES1    0.0000
     50 C26       -0.1078    4.3569   -0.3835 C.3       1 RES1    0.0000
     51 H20       -0.6732    4.8763   -1.0088 H         1 RES1    0.0000
     52 H21       -0.4328    3.4217   -0.3778 H         1 RES1    0.0000
     53 C27        1.3628    4.3929   -0.8622 C.3       1 RES1    0.0000
     54 C28        1.9838    5.8143   -0.6262 C.3       1 RES1    0.0000
     55 H22        2.9723    5.6983   -0.7204 H         1 RES1    0.0000
     56 C29       -5.6822    5.7867    4.4110 C.3       1 RES1    0.0000
     57 H23       -6.5980    5.6154    4.7174 H         1 RES1    0.0000
     58 H24       -5.5930    6.7316    4.1645 H         1 RES1    0.0000
     59 H25       -5.0523    5.5767    5.1323 H         1 RES1    0.0000
     60 C30        5.0931   -1.2391    5.1247 C.3       1 RES1    0.0000
     61 H26        5.3737   -2.0790    5.5454 H         1 RES1    0.0000
     62 H27        4.3495   -0.8523    5.6310 H         1 RES1    0.0000
     63 H28        5.8451   -0.6106    5.1162 H         1 RES1    0.0000
     64 C31        1.4739    4.0116   -2.3363 C.2       1 RES1    0.0000
     65 C32        2.8464    3.9080   -2.9264 C.3       1 RES1    0.0000
     66 H29        3.4649    4.4702   -2.4144 H         1 RES1    0.0000
     67 H30        2.8243    4.2105   -3.8581 H         1 RES1    0.0000
     68 H31        3.1478    2.9755   -2.8921 H         1 RES1    0.0000
     69 C33        2.7282    2.5715    0.5320 C.1       1 RES1    0.0000
     70 C34        2.1439    3.4050   -0.0999 C.1       1 RES1    0.0000
@<TRIPOS>BOND
     1    1    5 1
     2    2   42 1
     3    3   32 1
     4    4   64 2
     5    5   48 1
     6    6    7 1
     7    8    6 ar
     8    9    8 1
     9   10    8 ar
    10   11   10 1
    11   12   10 ar
    12   13   12 1
    13   14   12 ar
    14   15   14 1
    15   16    1 1
    16   17   18 1
    17   19   17 ar
    18   20   19 1
    19   21   19 ar
    20   22   21 1
    21   23   21 ar
    22   24   23 1
    23   25   23 ar
    24   26   25 1
    25   27   17 ar
    26   28   29 1
    27   30   28 ar
    28   31   30 1
    29   32   30 ar
    30   33   32 ar
    31   34   33 1
    32   35   33 ar
    33   36   35 1
    34   37   28 ar
    35   38   39 1
    36   40   38 ar
    37   41   40 1
    38   42   40 ar
    39   43   42 ar
    40   44   43 1
    41   45   43 ar
    42   46   45 1
    43   47   38 ar
    44   48   47 1
    45   49   48 1
    46   50   48 1
    47   51   50 1
    48   52   50 1
    49   53   50 1
    50   54    1 1
    51   55   54 1
    52   56    2 1
    53   57   56 1
    54   58   56 1
    55   59   56 1
    56   60    3 1
    57   61   60 1
    58   62   60 1
    59   63   60 1
    60   64   53 1
    61   65   64 1
    62   66   65 1
    63   67   65 1
    64   68   65 1
    65   69   37 1
    66   70   53 1
    67    6   16 ar
    68   14   16 ar
    69   25   27 ar
    70   27   54 1
    71   35   37 ar
    72   45   47 ar
    73   53   54 1
    74   69   70 3
@<TRIPOS>SUBSTRUCTURE
     1 RES1 1

@<TRIPOS>CRYSIN
  10.4330   13.8140   10.4710  90.0000 114.6520  90.0000   4 1

