# MOL2 file generated by ConQuest
# Please check atom types

@<TRIPOS>MOLECULE
AREFIO
    22    23     1
SMALL
NO_CHARGES
****
Generated from CSD

@<TRIPOS>ATOM
      1 C1        -0.3095   -1.6537   -5.0954 C.ar      1 RES1    0.0000
      2 H1         0.4605   -2.0994   -4.8261 H         1 RES1    0.0000
      3 C2        -0.6722   -1.6419   -6.4347 C.ar      1 RES1    0.0000
      4 H2        -0.1472   -2.0852   -7.0611 H         1 RES1    0.0000
      5 C3        -2.5999   -0.3213   -5.9002 C.ar      1 RES1    0.0000
      6 H3        -3.3682    0.1291   -6.1681 H         1 RES1    0.0000
      7 N1        -1.7474   -0.2937  -10.6332 N.pl3     1 RES1    0.0000
      8 C4        -2.2437   -0.3402   -4.5620 C.ar      1 RES1    0.0000
      9 H4        -2.7753    0.0913   -3.9329 H         1 RES1    0.0000
     10 C5        -2.2046   -1.0001   -8.2749 C.3       1 RES1    0.0000
     11 H5        -2.2296   -1.8884   -8.6889 H         1 RES1    0.0000
     12 C6        -1.8158   -0.9702   -6.8423 C.ar      1 RES1    0.0000
     13 C7        -1.0947   -1.0017   -4.1604 C.ar      1 RES1    0.0000
     14 H6        -0.8514   -1.0080   -3.2629 H         1 RES1    0.0000
     15 O1        -0.7950    0.1402  -11.2300 O.2       1 RES1    0.0000
     16 O2        -3.2053   -0.0732   -8.7307 O.3       1 RES1    0.0000
     17 O3        -2.5727   -1.0544  -11.1044 O.2       1 RES1    0.0000
     18 C8        -1.1555    1.3474   -8.8346 C.3       1 RES1    0.0000
     19 H7        -1.4227    2.0593   -9.4204 H         1 RES1    0.0000
     20 H8        -1.3466    1.5931   -7.9259 H         1 RES1    0.0000
     21 H9        -0.2145    1.1859   -8.9340 H         1 RES1    0.0000
     22 C9        -1.9086    0.1134   -9.1809 C.3       1 RES1    0.0000
@<TRIPOS>BOND
     1    1    2 1
     2    3    1 ar
     3    4    3 1
     4    5    6 1
     5    7   15 2
     6    8    5 ar
     7    9    8 1
     8   10   11 1
     9   12    3 ar
    10   13    1 ar
    11   14   13 1
    12   16   10 1
    13   17    7 2
    14   18   19 1
    15   20   18 1
    16   21   18 1
    17   22    7 1
    18    5   12 ar
    19    8   13 ar
    20   10   12 1
    21   10   22 1
    22   16   22 1
    23   18   22 1
@<TRIPOS>SUBSTRUCTURE
     1 RES1 1

@<TRIPOS>CRYSIN
   5.4300    7.8748   20.6997  90.0000  90.0000  90.0000  19 1

