# MOL2 file generated by ConQuest
# Please check atom types

@<TRIPOS>MOLECULE
AREFOU
    29    31     1
SMALL
NO_CHARGES
****
Generated from CSD

@<TRIPOS>ATOM
      1 O1        -7.4708   -2.9283   -8.9638 O.3       1 RES1    0.0000
      2 O2        -6.2869   -3.5270  -12.1807 O.2       1 RES1    0.0000
      3 O3        -8.3205   -3.5014  -11.4455 O.2       1 RES1    0.0000
      4 N1        -7.1139   -3.5183  -11.2722 N.pl3     1 RES1    0.0000
      5 C1        -4.6820   -2.0519   -9.3322 C.ar      1 RES1    0.0000
      6 H1        -5.3041   -1.3661   -9.1192 H         1 RES1    0.0000
      7 C2        -7.4166   -4.3785   -8.9349 C.3       1 RES1    0.0000
      8 C3        -5.1312   -3.3002   -9.7428 C.ar      1 RES1    0.0000
      9 C4        -6.8991   -5.0675   -7.7143 C.ar      1 RES1    0.0000
     10 C5        -3.3216   -1.8127   -9.2361 C.ar      1 RES1    0.0000
     11 H2        -3.0094   -0.9599   -8.9566 H         1 RES1    0.0000
     12 C6        -2.4160   -2.8112   -9.5441 C.ar      1 RES1    0.0000
     13 H3        -1.4831   -2.6443   -9.4708 H         1 RES1    0.0000
     14 C7        -4.2226   -4.2988  -10.0572 C.ar      1 RES1    0.0000
     15 H4        -4.5267   -5.1528  -10.3412 H         1 RES1    0.0000
     16 C8        -6.5849   -3.5594   -9.8343 C.3       1 RES1    0.0000
     17 C9        -7.4055   -6.3133   -7.4289 C.ar      1 RES1    0.0000
     18 H5        -8.0547   -6.7032   -8.0015 H         1 RES1    0.0000
     19 C10       -2.8594   -4.0371   -9.9518 C.ar      1 RES1    0.0000
     20 H6        -2.2321   -4.7174  -10.1660 H         1 RES1    0.0000
     21 C11       -5.9485   -4.4913   -6.8792 C.ar      1 RES1    0.0000
     22 H7        -5.5999   -3.6279   -7.0705 H         1 RES1    0.0000
     23 C12       -6.9695   -7.0054   -6.3020 C.ar      1 RES1    0.0000
     24 H8        -7.3267   -7.8619   -6.0993 H         1 RES1    0.0000
     25 C13       -5.5135   -5.1964   -5.7604 C.ar      1 RES1    0.0000
     26 H9        -4.8629   -4.8139   -5.1843 H         1 RES1    0.0000
     27 C14       -6.0218   -6.4447   -5.4844 C.ar      1 RES1    0.0000
     28 H10       -5.7141   -6.9219   -4.7228 H         1 RES1    0.0000
     29 H11       -8.2580   -4.7653   -9.3677 H         1 RES1    0.0000
@<TRIPOS>BOND
     1    1    7 1
     2    2    4 2
     3    3    4 2
     4    4   16 1
     5    5    6 1
     6    7    9 1
     7    8    5 ar
     8    9   17 ar
     9   10    5 ar
    10   11   10 1
    11   12   10 ar
    12   13   12 1
    13   14    8 ar
    14   15   14 1
    15   16    1 1
    16   17   18 1
    17   19   12 ar
    18   20   19 1
    19   21    9 ar
    20   22   21 1
    21   23   17 ar
    22   24   23 1
    23   25   21 ar
    24   26   25 1
    25   27   23 ar
    26   28   27 1
    27   29    7 1
    28    7   16 1
    29    8   16 1
    30   14   19 ar
    31   25   27 ar
@<TRIPOS>SUBSTRUCTURE
     1 RES1 1

@<TRIPOS>CRYSIN
   8.6028    6.2292   11.4861  90.0000  94.4150  90.0000   4 1

