# MOL2 file generated by ConQuest
# Please check atom types

@<TRIPOS>MOLECULE
AREJEO
    50    52     2
SMALL
NO_CHARGES
****
Generated from CSD

@<TRIPOS>ATOM
      1 O1         0.4912    9.6538    4.9373 O.3       1 RES1    0.0000
      2 H1         0.4764   10.4078    5.2506 H         1 RES1    0.0000
      3 N1         0.2913    9.7244    3.5548 N.2       1 RES1    0.0000
      4 O2         0.1869    6.7675    6.0540 O.2       1 RES1    0.0000
      5 C1        -1.3665    7.5944    1.1751 C.ar      1 RES1    0.0000
      6 C2        -0.4542    8.5524    1.6394 C.ar      1 RES1    0.0000
      7 C3        -0.1537    8.6171    3.0835 C.2       1 RES1    0.0000
      8 O3         1.6712    7.0149    4.5181 O.2       1 RES1    0.0000
      9 N2         0.5245    7.0736    4.9321 N.pl3     1 RES1    0.0000
     10 C4         0.0901    9.4700    0.7422 C.ar      1 RES1    0.0000
     11 H2         0.7145   10.0901    1.0403 H         1 RES1    0.0000
     12 C5        -1.7374    7.6184   -0.1596 C.ar      1 RES1    0.0000
     13 H3        -2.3488    6.9931   -0.4746 H         1 RES1    0.0000
     14 C6        -0.2904    9.4641   -0.5810 C.ar      1 RES1    0.0000
     15 H4         0.0776   10.0778   -1.1746 H         1 RES1    0.0000
     16 C7        -0.5580    7.4649    3.9713 C.3       1 RES1    0.0000
     17 H5        -1.3391    7.7435    4.4923 H         1 RES1    0.0000
     18 C8        -0.9349    6.2097    3.1919 C.3       1 RES1    0.0000
     19 H6        -0.1432    5.8248    2.7857 H         1 RES1    0.0000
     20 H7        -1.3200    5.5534    3.7923 H         1 RES1    0.0000
     21 C9        -1.2199    8.5458   -1.0243 C.ar      1 RES1    0.0000
     22 H8        -1.4966    8.5575   -1.9118 H         1 RES1    0.0000
     23 C10       -1.9364    6.5739    2.1195 C.3       1 RES1    0.0000
     24 H9        -2.1818    5.7783    1.6238 H         1 RES1    0.0000
     25 H10       -2.7378    6.9296    2.5341 H         1 RES1    0.0000
     26 O4         1.4356    0.4028    9.0757 O.3       2 RES2    0.0000
     27 H11        1.5296   -0.3031    9.4567 H         2 RES2    0.0000
     28 N3         1.1609    0.1672    7.7226 N.2       2 RES2    0.0000
     29 C11        0.8787    1.1447    5.5858 C.ar      2 RES2    0.0000
     30 O5         3.7005    1.9779    7.6167 O.2       2 RES2    0.0000
     31 C12        0.9623    2.1070    3.3887 C.ar      2 RES2    0.0000
     32 H12        1.1757    2.8183    2.8271 H         2 RES2    0.0000
     33 C13        1.1609    1.2449    7.0247 C.2       2 RES2    0.0000
     34 C14        1.2128    2.2167    4.7482 C.ar      2 RES2    0.0000
     35 O6         3.0912    3.4543    9.0387 O.2       2 RES2    0.0000
     36 N4         2.8565    2.6565    8.1497 N.pl3     2 RES2    0.0000
     37 C15        0.2877    0.0078    5.0327 C.ar      2 RES2    0.0000
     38 H13        0.0457   -0.6991    5.5858 H         2 RES2    0.0000
     39 C16        1.4253    2.5878    7.6538 C.3       2 RES2    0.0000
     40 H14        0.8234    2.7010    8.4180 H         2 RES2    0.0000
     41 C17        0.0583   -0.0802    3.6817 C.ar      2 RES2    0.0000
     42 H15       -0.3280   -0.8457    3.3245 H         2 RES2    0.0000
     43 C18        1.2111    3.7464    6.6886 C.3       2 RES2    0.0000
     44 H16        0.2598    3.9060    6.5839 H         2 RES2    0.0000
     45 H17        1.6109    4.5488    7.0577 H         2 RES2    0.0000
     46 C19        1.8231    3.4580    5.3376 C.3       2 RES2    0.0000
     47 H18        1.6710    4.2091    4.7440 H         2 RES2    0.0000
     48 H19        2.7805    3.3365    5.4322 H         2 RES2    0.0000
     49 C20        0.4037    0.9677    2.8516 C.ar      2 RES2    0.0000
     50 H20        0.2591    0.9044    1.9354 H         2 RES2    0.0000
@<TRIPOS>BOND
     1    1    2 1
     2    3    1 1
     3    4    9 2
     4    5    6 ar
     5    6    7 1
     6    7    3 2
     7    8    9 2
     8    9   16 1
     9   10    6 ar
    10   11   10 1
    11   12    5 ar
    12   13   12 1
    13   14   10 ar
    14   15   14 1
    15   16    7 1
    16   17   16 1
    17   18   16 1
    18   19   18 1
    19   20   18 1
    20   21   12 ar
    21   22   21 1
    22   23    5 1
    23   24   23 1
    24   25   23 1
    25   26   27 1
    26   28   26 1
    27   29   33 1
    28   30   36 2
    29   31   32 1
    30   33   28 2
    31   34   29 ar
    32   35   36 2
    33   36   39 1
    34   37   29 ar
    35   38   37 1
    36   39   33 1
    37   40   39 1
    38   41   37 ar
    39   42   41 1
    40   43   39 1
    41   44   43 1
    42   45   43 1
    43   46   34 1
    44   47   46 1
    45   48   46 1
    46   49   31 ar
    47   50   49 1
    48   14   21 ar
    49   18   23 1
    50   31   34 ar
    51   41   49 ar
    52   43   46 1
@<TRIPOS>SUBSTRUCTURE
     1 RES1 1
     2 RES2 26

@<TRIPOS>CRYSIN
   9.3380   24.4430    9.8453  90.0000 120.9420  90.0000  14 1

