# MOL2 file generated by ConQuest
# Please check atom types

@<TRIPOS>MOLECULE
ARIFUD
    48    48     2
SMALL
NO_CHARGES
****
Generated from CSD

@<TRIPOS>ATOM
      1 N1         5.8404   11.1906    4.7332 N.3       1 RES1    0.0000
      2 N2         4.5555   12.5101    5.9862 N.2       1 RES1    0.0000
      3 N3         6.6827   12.8842    3.1201 N.pl3     1 RES1    0.0000
      4 N4         1.0085    2.0869    1.0333 N.3       2 RES2    0.0000
      5 N5         1.4257   -0.0934    0.9936 N.2       2 RES2    0.0000
      6 N6         2.5475    2.8018   -0.7928 N.pl3     2 RES2    0.0000
      7 O1         7.3436   12.0566    2.5080 O.2       1 RES1    0.0000
      8 O2         6.6212   14.0668    2.8002 O.2       1 RES1    0.0000
      9 O3         7.5593    8.3135    6.4442 O.3       1 RES1    0.0000
     10 H1         7.5296    8.2855    7.3432 H         1 RES1    0.0000
     11 O4         2.3062    3.9798   -0.6440 O.2       2 RES2    0.0000
     12 O5         3.3283    2.3780   -1.6270 O.2       2 RES2    0.0000
     13 O6        -0.5404    2.7100   -1.4750 O.3       2 RES2    0.0000
     14 H2        -0.9296    1.9802   -1.3177 H         2 RES2    0.0000
     15 C1         4.9901   11.2717    5.7927 C.2       1 RES1    0.0000
     16 C2         5.1268   13.2570    5.0212 C.2       1 RES1    0.0000
     17 H3         4.9927   14.1686    4.9033 H         1 RES1    0.0000
     18 C3         5.9250   12.4807    4.2444 C.2       1 RES1    0.0000
     19 C4         4.5664   10.1111    6.6078 C.3       1 RES1    0.0000
     20 H4         3.9764   10.4072    7.3050 H         1 RES1    0.0000
     21 H5         5.3383    9.6949    6.9978 H         1 RES1    0.0000
     22 H6         4.1087    9.4775    6.0499 H         1 RES1    0.0000
     23 C5         6.4638    9.9520    4.2274 C.3       1 RES1    0.0000
     24 H7         6.4035    9.9408    3.2593 H         1 RES1    0.0000
     25 H8         5.9669    9.1888    4.5632 H         1 RES1    0.0000
     26 C6         7.9139    9.8112    4.6323 C.3       1 RES1    0.0000
     27 H9         8.3045    9.0804    4.1286 H         1 RES1    0.0000
     28 H10        8.3834   10.6213    4.3825 H         1 RES1    0.0000
     29 C7         8.1409    9.5581    6.0924 C.3       1 RES1    0.0000
     30 H11        9.0931    9.5418    6.2795 H         1 RES1    0.0000
     31 H12        7.7400   10.2696    6.6163 H         1 RES1    0.0000
     32 C8         0.7402    0.8865    1.5760 C.2       2 RES2    0.0000
     33 C9         2.1621    0.5048    0.0351 C.2       2 RES2    0.0000
     34 H13        2.7432    0.0641   -0.5420 H         2 RES2    0.0000
     35 C10        1.9343    1.8322    0.0361 C.2       2 RES2    0.0000
     36 C11       -0.2064    0.6672    2.6971 C.3       2 RES2    0.0000
     37 H14       -1.1070    0.7604    2.3783 H         2 RES2    0.0000
     38 H15       -0.0416    1.3153    3.3868 H         2 RES2    0.0000
     39 H16       -0.0826   -0.2167    3.0521 H         2 RES2    0.0000
     40 C12        0.3348    3.3433    1.4059 C.3       2 RES2    0.0000
     41 H17        0.8914    4.0898    1.1360 H         2 RES2    0.0000
     42 H18        0.2445    3.3762    2.3709 H         2 RES2    0.0000
     43 C13       -1.0350    3.4980    0.7790 C.3       2 RES2    0.0000
     44 H19       -1.5373    2.6868    0.9490 H         2 RES2    0.0000
     45 H20       -1.4933    4.2219    1.2327 H         2 RES2    0.0000
     46 C14       -1.0793    3.7727   -0.6929 C.3       2 RES2    0.0000
     47 H21       -2.0000    3.9233   -0.9585 H         2 RES2    0.0000
     48 H22       -0.5811    4.5836   -0.8778 H         2 RES2    0.0000
@<TRIPOS>BOND
     1    1   15 1
     2    2   15 2
     3    3    7 2
     4    4   32 1
     5    5   32 2
     6    6   11 2
     7    8    3 2
     8    9   10 1
     9   12    6 2
    10   13   14 1
    11   15   19 1
    12   16    2 1
    13   17   16 1
    14   18    1 1
    15   19   20 1
    16   21   19 1
    17   22   19 1
    18   23    1 1
    19   24   23 1
    20   25   23 1
    21   26   23 1
    22   27   26 1
    23   28   26 1
    24   29    9 1
    25   30   29 1
    26   31   29 1
    27   32   36 1
    28   33    5 1
    29   34   33 1
    30   35    4 1
    31   36   37 1
    32   38   36 1
    33   39   36 1
    34   40    4 1
    35   41   40 1
    36   42   40 1
    37   43   40 1
    38   44   43 1
    39   45   43 1
    40   46   13 1
    41   47   46 1
    42   48   46 1
    43    3   18 1
    44    6   35 1
    45   16   18 2
    46   26   29 1
    47   33   35 2
    48   43   46 1
@<TRIPOS>SUBSTRUCTURE
     1 RES1 1
     2 RES2 4

@<TRIPOS>CRYSIN
   7.7589   11.0864   11.9817  63.6000  89.5820  73.3790   2 1

