# MOL2 file generated by ConQuest
# Please check atom types

@<TRIPOS>MOLECULE
AROFOC
    54    58     2
SMALL
NO_CHARGES
****
Generated from CSD

@<TRIPOS>ATOM
      1 C1         3.1724    0.5673    5.4742 C.2       1 RES1    0.0000
      2 C2         0.5607   -0.5512    5.0821 C.2       1 RES1    0.0000
      3 O1        -0.8510   -1.6091    3.7249 O.3       1 RES1    0.0000
      4 N1         4.3531    1.0188    5.7803 N.2       1 RES1    0.0000
      5 C3         2.1877    0.5864    6.5703 C.ar      1 RES1    0.0000
      6 C4         1.5388   -0.5083    4.0186 C.2       1 RES1    0.0000
      7 N2         5.2997    1.1084    4.7461 N.pl3     1 RES1    0.0000
      8 C5         0.9042    0.0552    6.3827 C.ar      1 RES1    0.0000
      9 N3        -0.6117   -1.1077    4.9862 N.2       1 RES1    0.0000
     10 C6         2.7547    0.0253    4.1890 C.2       1 RES1    0.0000
     11 C7         2.5198    1.1622    7.8087 C.ar      1 RES1    0.0000
     12 C8         5.2487    1.7386    3.5427 C.2       1 RES1    0.0000
     13 C9        -0.0221    0.1227    7.4372 C.ar      1 RES1    0.0000
     14 N4         7.3031    1.1737    3.8837 N.2       1 RES1    0.0000
     15 N5         6.4291    1.7892    3.0004 N.2       1 RES1    0.0000
     16 C10        6.6029    0.8057    4.9176 C.2       1 RES1    0.0000
     17 C11        1.5955    1.2258    8.8245 C.ar      1 RES1    0.0000
     18 C12        0.3250    0.7076    8.6337 C.ar      1 RES1    0.0000
     19 H1         3.4551    1.5332    7.9053 H         1 RES1    0.0000
     20 H2        -0.9281   -0.3066    7.3131 H         1 RES1    0.0000
     21 H3         3.3551    0.0000    3.4776 H         1 RES1    0.0000
     22 H4         1.2625   -0.8816    3.1519 H         1 RES1    0.0000
     23 H5        -0.2715    0.7129    9.3265 H         1 RES1    0.0000
     24 H6         4.4102    2.1005    3.1761 H         1 RES1    0.0000
     25 H7         1.8114    1.6022    9.6414 H         1 RES1    0.0000
     26 H8         6.9330    0.3603    5.7062 H         1 RES1    0.0000
     27 H9        -1.6971   -1.9855    3.8167 H         1 RES1    0.0000
     28 O2         1.6652    6.6468    0.8344 O.3       2 RES2    0.0000
     29 N6        -3.5524    4.0653   -1.2672 N.2       2 RES2    0.0000
     30 C13       -2.3912    4.5682   -0.9741 C.2       2 RES2    0.0000
     31 N7        -4.4465    3.8435   -0.2003 N.pl3     2 RES2    0.0000
     32 N8         1.3869    6.2631   -0.4665 N.2       2 RES2    0.0000
     33 C14       -1.4558    4.7039   -2.1113 C.ar      2 RES2    0.0000
     34 C15        0.1880    5.7725   -0.5924 C.2       2 RES2    0.0000
     35 C16       -0.7579    5.6330    0.4899 C.2       2 RES2    0.0000
     36 C17       -0.2137    5.3148   -1.9380 C.ar      2 RES2    0.0000
     37 C18       -1.9567    5.0550    0.3195 C.2       2 RES2    0.0000
     38 C19       -1.8136    4.2194   -3.3874 C.ar      2 RES2    0.0000
     39 N9        -6.3944    3.6015    0.7356 N.2       2 RES2    0.0000
     40 C20       -5.7662    4.1067   -0.2896 C.2       2 RES2    0.0000
     41 C21        0.6359    5.4682   -3.0445 C.ar      2 RES2    0.0000
     42 C22       -4.3090    3.0932    0.9289 C.2       2 RES2    0.0000
     43 N10       -5.4568    2.9315    1.5157 N.2       2 RES2    0.0000
     44 C23        0.2571    5.0059   -4.2851 C.ar      2 RES2    0.0000
     45 C24       -0.9648    4.3727   -4.4554 C.ar      2 RES2    0.0000
     46 H10       -2.5713    4.9829    1.0444 H         2 RES2    0.0000
     47 H11       -2.6687    3.7257   -3.4534 H         2 RES2    0.0000
     48 H12       -0.5028    5.9871    1.3647 H         2 RES2    0.0000
     49 H13       -3.4516    2.7444    1.2247 H         2 RES2    0.0000
     50 H14        1.5283    5.9488   -2.9123 H         2 RES2    0.0000
     51 H15        2.6052    6.9914    0.7483 H         2 RES2    0.0000
     52 H16       -6.1527    4.6303   -1.0201 H         2 RES2    0.0000
     53 H17        0.8216    5.1209   -5.0737 H         2 RES2    0.0000
     54 H18       -1.2361    4.0706   -5.3187 H         2 RES2    0.0000
@<TRIPOS>BOND
     1    1    4 2
     2    2    6 1
     3    3    9 1
     4    4    7 1
     5    5    1 1
     6    6   10 2
     7    7   12 1
     8    8    2 1
     9    9    2 2
    10   10    1 1
    11   11    5 ar
    12   12   15 2
    13   13    8 ar
    14   14   15 1
    15   16    7 1
    16   17   11 ar
    17   18   13 ar
    18   19   11 1
    19   20   13 1
    20   21   10 1
    21   22    6 1
    22   23   18 1
    23   24   12 1
    24   25   17 1
    25   26   16 1
    26   27    3 1
    27   28   32 1
    28   29   30 2
    29   30   33 1
    30   31   29 1
    31   32   34 2
    32   33   36 ar
    33   34   35 1
    34   35   37 2
    35   36   34 1
    36   37   30 1
    37   38   33 ar
    38   39   40 2
    39   40   31 1
    40   41   36 ar
    41   42   31 1
    42   43   39 1
    43   44   41 ar
    44   45   38 ar
    45   46   37 1
    46   47   38 1
    47   48   35 1
    48   49   42 1
    49   50   41 1
    50   51   28 1
    51   52   40 1
    52   53   44 1
    53   54   45 1
    54    5    8 ar
    55   14   16 2
    56   17   18 ar
    57   42   43 2
    58   44   45 ar
@<TRIPOS>SUBSTRUCTURE
     1 RES1 1
     2 RES2 28

@<TRIPOS>CRYSIN
  21.3290    7.6660   27.9580  90.0000 105.6900  90.0000  15 1

