# MOL2 file generated by ConQuest
# Please check atom types

@<TRIPOS>MOLECULE
AROFIW
    33    35     1
SMALL
NO_CHARGES
****
Generated from CSD

@<TRIPOS>ATOM
      1 O1         3.4490    1.0400   13.0530 O.3       1 RES1    0.0000
      2 C1         4.2537    3.2823   10.3471 C.ar      1 RES1    0.0000
      3 C2         4.2672    4.8298    8.4958 C.ar      1 RES1    0.0000
      4 C3         3.5324    2.4996   11.3673 C.2       1 RES1    0.0000
      5 C4         1.5913    4.8692    6.9991 C.ar      1 RES1    0.0000
      6 C5         2.0567    3.9822    9.3925 C.2       1 RES1    0.0000
      7 C6         5.6495    3.3558   10.3717 C.ar      1 RES1    0.0000
      8 N1         4.2408    1.7268   12.1334 N.2       1 RES1    0.0000
      9 C7        -0.1583    4.5803    8.6510 C.1       1 RES1    0.0000
     10 C8         2.1025    2.6600   11.4600 C.2       1 RES1    0.0000
     11 C9         3.5372    4.0111    9.3797 C.ar      1 RES1    0.0000
     12 C10        1.2519    4.4700    8.3927 C.2       1 RES1    0.0000
     13 C11        1.4311    3.3822   10.5574 C.2       1 RES1    0.0000
     14 C12        6.3358    4.1387    9.4773 C.ar      1 RES1    0.0000
     15 N2        -1.2873    4.7096    8.7934 N.1       1 RES1    0.0000
     16 C13        5.6405    4.8822    8.5423 C.ar      1 RES1    0.0000
     17 C14        2.1523    5.5916    4.3763 C.ar      1 RES1    0.0000
     18 C15        1.3047    6.1446    6.5460 C.ar      1 RES1    0.0000
     19 C16        1.6048    6.5022    5.2480 C.ar      1 RES1    0.0000
     20 C17        2.1264    3.9482    6.1084 C.ar      1 RES1    0.0000
     21 C18        2.3977    4.3119    4.8044 C.ar      1 RES1    0.0000
     22 H1         3.7868    5.3811    7.8298 H         1 RES1    0.0000
     23 H2         1.6700    2.2176   12.2219 H         1 RES1    0.0000
     24 H3         0.9334    6.8078    7.1881 H         1 RES1    0.0000
     25 H4         0.4783    3.4673   10.6188 H         1 RES1    0.0000
     26 H5         7.3154    4.1913    9.5092 H         1 RES1    0.0000
     27 H6         6.0923    5.4691    7.8993 H         1 RES1    0.0000
     28 H7         6.1155    2.8711   11.0613 H         1 RES1    0.0000
     29 H8         2.2576    3.0384    6.3959 H         1 RES1    0.0000
     30 H9         2.3369    5.8567    3.4562 H         1 RES1    0.0000
     31 H10        2.7100    3.6197    4.1350 H         1 RES1    0.0000
     32 H11        1.4404    7.3715    4.9897 H         1 RES1    0.0000
     33 H12        4.0697    0.5548   13.4704 H         1 RES1    0.0000
@<TRIPOS>BOND
     1    1    8 1
     2    2    4 1
     3    3   11 ar
     4    4    8 2
     5    5   12 1
     6    6   11 1
     7    7    2 ar
     8    9   12 1
     9   10    4 1
    10   11    2 ar
    11   12    6 2
    12   13    6 1
    13   14    7 ar
    14   15    9 3
    15   16    3 ar
    16   17   19 ar
    17   18    5 ar
    18   19   18 ar
    19   20    5 ar
    20   21   17 ar
    21   22    3 1
    22   23   10 1
    23   24   18 1
    24   25   13 1
    25   26   14 1
    26   27   16 1
    27   28    7 1
    28   29   20 1
    29   30   17 1
    30   31   21 1
    31   32   19 1
    32   33    1 1
    33   10   13 2
    34   14   16 ar
    35   20   21 ar
@<TRIPOS>SUBSTRUCTURE
     1 RES1 1

@<TRIPOS>CRYSIN
  13.6660    8.8070   23.1650  90.0000  90.0000  90.0000  61 1

