# MOL2 file generated by ConQuest
# Please check atom types

@<TRIPOS>MOLECULE
AROGET
    41    31     2
SMALL
NO_CHARGES
****
Generated from CSD

@<TRIPOS>ATOM
      1 N1         1.7165   -0.2725    1.2197 N.2       1 RES1    0.0000
      2 C1         1.9791    0.7730    0.3323 C.2       1 RES1    0.0000
      3 C2         1.7764    0.3146   -1.0601 C.2       1 RES1    0.0000
      4 N2         1.3867   -1.0059   -0.8922 N.3       1 RES1    0.0000
      5 C3         1.3850   -1.2737    0.4557 C.2       1 RES1    0.0000
      6 C4         1.0351   -2.6205    0.9793 C.3       1 RES1    0.0000
      7 H1         1.6557   -3.2680    0.6368 H         1 RES1    0.0000
      8 H2         0.1456   -2.8517    0.7008 H         1 RES1    0.0000
      9 H3         1.0774   -2.6124    1.9384 H         1 RES1    0.0000
     10 N3         2.3596    1.9736    0.6136 N.2       1 RES1    0.0000
     11 O1         2.4865    2.1605    1.9814 O.3       1 RES1    0.0000
     12 H4         2.7807    2.9113    2.1285 H         1 RES1    0.0000
     13 C5         1.9585    0.9955   -2.2187 C.2       1 RES1    0.0000
     14 C6         2.4293    2.3416   -2.1731 C.1       1 RES1    0.0000
     15 N4         2.7993    3.4197   -2.2494 N.1       1 RES1    0.0000
     16 C7         1.8692    0.4463   -3.6116 C.ar      1 RES1    0.0000
     17 C8         3.0311   -0.0225   -4.2148 C.ar      1 RES1    0.0000
     18 H5         3.8410    0.0218   -3.7602 H         1 RES1    0.0000
     19 C9         2.9809   -0.5576   -5.4960 C.ar      1 RES1    0.0000
     20 H6         3.7582   -0.8711   -5.8996 H         1 RES1    0.0000
     21 C10        1.7703   -0.6243   -6.1751 C.ar      1 RES1    0.0000
     22 H7         1.7370   -0.9813   -7.0333 H         1 RES1    0.0000
     23 C11        0.6085   -0.1550   -5.5730 C.ar      1 RES1    0.0000
     24 H8        -0.2015   -0.1998   -6.0265 H         1 RES1    0.0000
     25 C12        0.6586    0.3797   -4.2907 C.ar      1 RES1    0.0000
     26 H9        -0.1187    0.6931   -3.8871 H         1 RES1    0.0000
     27 C13        1.0187   -1.9589   -1.9322 C.3       1 RES1    0.0000
     28 H10        1.6790   -1.9416   -2.6298 H         1 RES1    0.0000
     29 H11        0.1633   -1.7209   -2.2956 H         1 RES1    0.0000
     30 H12        0.9727   -2.8407   -1.5557 H         1 RES1    0.0000
     31 C14        1.6828    0.5109   -3.6083 Du        2 SUP2    0.0000
     32 C15        2.7498    0.3123   -4.4773 Du        2 SUP2    0.0000
     33 H13        3.6190    0.4724   -4.1898 Du        2 SUP2    0.0000
     34 C16        2.5160   -0.1254   -5.7759 Du        2 SUP2    0.0000
     35 H14        3.2296   -0.2591   -6.3563 Du        2 SUP2    0.0000
     36 C17        1.2161   -0.3645   -6.2055 Du        2 SUP2    0.0000
     37 H15        1.0597   -0.6579   -7.0745 Du        2 SUP2    0.0000
     38 C18        0.1491   -0.1659   -5.3365 Du        2 SUP2    0.0000
     39 H16       -0.7209   -0.3252   -5.6240 Du        2 SUP2    0.0000
     40 C19        0.3829    0.2729   -4.0390 Du        2 SUP2    0.0000
     41 H17       -0.3314    0.4054   -3.4575 Du        2 SUP2    0.0000
@<TRIPOS>BOND
     1    1    2 1
     2    2    3 1
     3    3    4 1
     4    4    5 1
     5    5    1 2
     6    6    5 1
     7    7    6 1
     8    8    6 1
     9    9    6 1
    10   10    2 2
    11   11   10 1
    12   12   11 1
    13   13    3 2
    14   14   13 1
    15   15   14 3
    16   16   13 1
    17   17   16 ar
    18   18   17 1
    19   19   17 ar
    20   20   19 1
    21   21   19 ar
    22   22   21 1
    23   23   21 ar
    24   24   23 1
    25   25   16 ar
    26   26   25 1
    27   27    4 1
    28   28   27 1
    29   29   27 1
    30   30   27 1
    31   23   25 ar
@<TRIPOS>SUBSTRUCTURE
     1 RES1 1
     2 SUP2 31

@<TRIPOS>CRYSIN
   6.9126    8.1129   11.4568 108.2490  93.3340  92.6140   2 1

