# MOL2 file generated by ConQuest
# Please check atom types

@<TRIPOS>MOLECULE
ARUBEU
    35    36     1
SMALL
NO_CHARGES
****
Generated from CSD

@<TRIPOS>ATOM
      1 N1         0.4192    5.1999    5.7847 N.pl3     1 RES1    0.0000
      2 N2        -0.4025    4.4755    6.6449 N.2       1 RES1    0.0000
      3 C1        -1.1056    3.6829    5.8466 C.2       1 RES1    0.0000
      4 C2        -0.7863    3.8998    4.4900 C.2       1 RES1    0.0000
      5 C3         0.1816    4.8728    4.4758 C.2       1 RES1    0.0000
      6 N3         0.8743    5.4328    3.4400 N.3       1 RES1    0.0000
      7 C4         1.2971    6.1669    6.3296 C.ar      1 RES1    0.0000
      8 C5         2.5338    6.4201    5.7343 C.ar      1 RES1    0.0000
      9 C6         3.3635    7.3839    6.2674 C.ar      1 RES1    0.0000
     10 C7         2.9510    8.0642    7.3993 C.ar      1 RES1    0.0000
     11 N4         3.8070    9.1241    7.9410 N.pl3     1 RES1    0.0000
     12 O1         4.8388    9.4121    7.3441 O.2       1 RES1    0.0000
     13 O2         3.4409    9.6973    8.9652 O.2       1 RES1    0.0000
     14 C8         1.7430    7.8038    8.0131 C.ar      1 RES1    0.0000
     15 C9         0.9157    6.8395    7.4796 C.ar      1 RES1    0.0000
     16 C10       -2.0630    2.6607    6.4153 C.3       1 RES1    0.0000
     17 C11       -1.2906    1.3702    6.6815 C.3       1 RES1    0.0000
     18 C12       -2.6897    3.1619    7.7115 C.3       1 RES1    0.0000
     19 C13       -3.1776    2.3762    5.4038 C.3       1 RES1    0.0000
     20 H1        -1.1650    3.4617    3.7374 H         1 RES1    0.0000
     21 H2         0.5458    5.2045    2.6560 H         1 RES1    0.0000
     22 H3         1.0877    6.2846    3.5083 H         1 RES1    0.0000
     23 H4         2.8025    5.9313    4.9659 H         1 RES1    0.0000
     24 H5         4.2026    7.5770    5.8653 H         1 RES1    0.0000
     25 H6         1.4850    8.2818    8.7926 H         1 RES1    0.0000
     26 H7         0.0876    6.6361    7.8980 H         1 RES1    0.0000
     27 H8        -0.9069    1.0398    5.8424 H         1 RES1    0.0000
     28 H9        -1.8983    0.6956    7.0504 H         1 RES1    0.0000
     29 H10       -0.5704    1.5469    7.3217 H         1 RES1    0.0000
     30 H11       -1.9907    3.2787    8.3887 H         1 RES1    0.0000
     31 H12       -3.3463    2.5080    8.0306 H         1 RES1    0.0000
     32 H13       -3.1346    4.0201    7.5484 H         1 RES1    0.0000
     33 H14       -3.6379    3.2128    5.1805 H         1 RES1    0.0000
     34 H15       -3.8181    1.7446    5.7930 H         1 RES1    0.0000
     35 H16       -2.7901    1.9899    4.5910 H         1 RES1    0.0000
@<TRIPOS>BOND
     1    1    2 1
     2    2    3 2
     3    3    4 1
     4    4    5 2
     5    5    1 1
     6    6    5 1
     7    7    1 1
     8    8    7 ar
     9    9    8 ar
    10   10    9 ar
    11   11   10 1
    12   12   11 2
    13   13   11 2
    14   14   10 ar
    15   15    7 ar
    16   16    3 1
    17   17   16 1
    18   18   16 1
    19   19   16 1
    20   20    4 1
    21   21    6 1
    22   22    6 1
    23   23    8 1
    24   24    9 1
    25   25   14 1
    26   26   15 1
    27   27   17 1
    28   28   17 1
    29   29   17 1
    30   30   18 1
    31   31   18 1
    32   32   18 1
    33   33   19 1
    34   34   19 1
    35   35   19 1
    36   14   15 ar
@<TRIPOS>SUBSTRUCTURE
     1 RES1 1

@<TRIPOS>CRYSIN
   5.9581   18.3064   12.0776  90.0000  93.4150  90.0000  14 1

