# MOL2 file generated by ConQuest
# Please check atom types

@<TRIPOS>MOLECULE
ARUBNT10
    68    68     2
SMALL
NO_CHARGES
****
Generated from CSD

@<TRIPOS>ATOM
      1 C1         0.0672   -3.6746    9.0946 C.3       1 RES1    0.0000
      2 C2        -1.5592   -4.9511    7.9123 C.2       1 RES1    0.0000
      3 C3        -3.0206   -5.0024    7.5823 C.3       1 RES1    0.0000
      4 C4         0.1610   -2.2155    9.4985 C.3       1 RES1    0.0000
      5 C5         1.4724   -1.8846   10.2031 C.3       1 RES1    0.0000
      6 C6         1.4685   -0.4597   10.7448 C.3       1 RES1    0.0000
      7 C7         1.7608   -2.9339   11.2985 C.3       1 RES1    0.0000
      8 C8         1.3386   -2.4217   13.6077 C.3       1 RES1    0.0000
      9 C9         1.6217   -4.3523   10.7394 C.3       1 RES1    0.0000
     10 C10        1.8225   -5.4121   11.7968 C.3       1 RES1    0.0000
     11 N1         2.6284   -1.9279    9.1934 N.pl3     1 RES1    0.0000
     12 O1         0.3038   -4.5335   10.1977 O.3       1 RES1    0.0000
     13 O2        -1.2992   -3.8755    8.7244 O.3       1 RES1    0.0000
     14 O3        -0.7169   -5.7050    7.5215 O.2       1 RES1    0.0000
     15 O4         2.3825   -1.9253    7.9970 O.2       1 RES1    0.0000
     16 O5         3.7631   -1.8833    9.6375 O.2       1 RES1    0.0000
     17 O6         0.7948   -2.7212   12.3147 O.3       1 RES1    0.0000
     18 C11        0.0971   -2.3062    5.1884 C.3       2 RES2    0.0000
     19 C12       -1.5458   -0.9955    6.3077 C.2       2 RES2    0.0000
     20 C13       -3.0188   -0.8563    6.5238 C.3       2 RES2    0.0000
     21 C14        0.2400   -3.7652    4.8269 C.3       2 RES2    0.0000
     22 C15        1.6099   -4.0476    4.2048 C.3       2 RES2    0.0000
     23 C16        1.7349   -5.4857    3.7314 C.3       2 RES2    0.0000
     24 C17        1.9027   -3.0219    3.0898 C.3       2 RES2    0.0000
     25 C18        1.6637   -3.4947    0.7480 C.3       2 RES2    0.0000
     26 C19        1.6389   -1.5878    3.5545 C.3       2 RES2    0.0000
     27 C20        1.7611   -0.5739    2.4417 C.3       2 RES2    0.0000
     28 N2         2.6754   -3.9058    5.3056 N.pl3     2 RES2    0.0000
     29 O7         0.2987   -1.4696    4.0712 O.3       2 RES2    0.0000
     30 O8        -1.2650   -2.1131    5.5781 O.3       2 RES2    0.0000
     31 O9        -0.7021   -0.2338    6.6986 O.2       2 RES2    0.0000
     32 O10        2.4145   -4.3707    6.4054 O.2       2 RES2    0.0000
     33 O11        3.7477   -3.3962    5.0234 O.2       2 RES2    0.0000
     34 O12        1.0175   -3.3594    2.0128 O.3       2 RES2    0.0000
     35 H1         0.6858   -3.8874    8.3379 H         1 RES1    0.0000
     36 H2        -0.5087   -2.1013   10.1618 H         1 RES1    0.0000
     37 H3         0.0769   -1.5760    8.7396 H         1 RES1    0.0000
     38 H4         1.3062    0.3021   10.0207 H         1 RES1    0.0000
     39 H5         2.2366   -0.2889   11.0955 H         1 RES1    0.0000
     40 H6         0.7031   -0.3809   11.4646 H         1 RES1    0.0000
     41 H7         2.6568   -2.8761   11.6492 H         1 RES1    0.0000
     42 H8         2.3093   -4.5178    9.9664 H         1 RES1    0.0000
     43 H9         1.7188   -6.3301   11.4212 H         1 RES1    0.0000
     44 H10        1.1446   -5.3189   12.4634 H         1 RES1    0.0000
     45 H11        2.6980   -5.3583   12.1703 H         1 RES1    0.0000
     46 H12        0.7137   -2.0093    5.9712 H         2 RES2    0.0000
     47 H13       -0.3867   -4.0318    4.1907 H         2 RES2    0.0000
     48 H14        0.1108   -4.3733    5.6129 H         2 RES2    0.0000
     49 H15        1.5739   -6.1331    4.4621 H         2 RES2    0.0000
     50 H16        2.6183   -5.6866    3.3547 H         2 RES2    0.0000
     51 H17        1.1414   -5.6341    2.9856 H         2 RES2    0.0000
     52 H18        2.8552   -3.1651    2.7793 H         2 RES2    0.0000
     53 H19        2.2387   -1.3921    4.2558 H         2 RES2    0.0000
     54 H20        2.1019   -1.9043   13.4731 H         1 RES1    0.0000
     55 H21        0.6170   -1.9568   14.2005 H         1 RES1    0.0000
     56 H22        1.5113   -3.4146   14.0377 H         1 RES1    0.0000
     57 H23       -3.2189   -0.2889    7.1545 H         2 RES2    0.0000
     58 H24       -3.5452   -1.7730    6.6008 H         2 RES2    0.0000
     59 H25       -3.5388   -4.5440    8.2836 H         1 RES1    0.0000
     60 H26       -3.2409   -5.9230    7.4151 H         1 RES1    0.0000
     61 H27        2.5135   -4.0187    0.7925 H         2 RES2    0.0000
     62 H28        1.8476   -2.6397    0.3800 H         2 RES2    0.0000
     63 H29        0.9949   -4.1500    0.1520 H         2 RES2    0.0000
     64 H30       -3.4462   -0.3677    5.6563 H         2 RES2    0.0000
     65 H31        1.5845    0.3021    2.7793 H         2 RES2    0.0000
     66 H32        1.1308   -0.7617    1.7479 H         2 RES2    0.0000
     67 H33        2.6292   -0.5910    2.1062 H         2 RES2    0.0000
     68 H34       -3.2094   -4.5178    6.8831 H         1 RES1    0.0000
@<TRIPOS>BOND
     1    1    4 1
     2    2    3 1
     3    3   59 1
     4    4    5 1
     5    5    6 1
     6    6   38 1
     7    7    5 1
     8    8   17 1
     9    9    7 1
    10   10    9 1
    11   11    5 1
    12   12    1 1
    13   13    1 1
    14   14    2 2
    15   15   11 2
    16   16   11 2
    17   17    7 1
    18   18   21 1
    19   19   20 1
    20   20   57 1
    21   21   22 1
    22   22   23 1
    23   23   49 1
    24   24   22 1
    25   25   34 1
    26   26   24 1
    27   27   26 1
    28   28   22 1
    29   29   18 1
    30   30   18 1
    31   31   19 2
    32   32   28 2
    33   33   28 2
    34   34   24 1
    35   35    1 1
    36   36    4 1
    37   37    4 1
    38   39    6 1
    39   40    6 1
    40   41    7 1
    41   42    9 1
    42   43   10 1
    43   44   10 1
    44   45   10 1
    45   46   18 1
    46   47   21 1
    47   48   21 1
    48   50   23 1
    49   51   23 1
    50   52   24 1
    51   53   26 1
    52   54    8 1
    53   55    8 1
    54   56    8 1
    55   58   20 1
    56   60    3 1
    57   61   25 1
    58   62   25 1
    59   63   25 1
    60   64   20 1
    61   65   27 1
    62   66   27 1
    63   67   27 1
    64   68    3 1
    65    2   13 1
    66    9   12 1
    67   19   30 1
    68   26   29 1
@<TRIPOS>SUBSTRUCTURE
     1 RES1 1
     2 RES2 18

@<TRIPOS>CRYSIN
   8.5280   13.1330   11.7410  90.0000 112.3800  90.0000   4 1

