# MOL2 file generated by ConQuest
# Please check atom types

@<TRIPOS>MOLECULE
ARUVEO
    92    94     2
SMALL
NO_CHARGES
****
Generated from CSD

@<TRIPOS>ATOM
      1 C1         8.3571   -2.1183   22.9022 C.2       1 RES1    0.0000
      2 C2         7.8086   -1.1221   23.8484 C.3       1 RES1    0.0000
      3 H1         7.8047   -0.2496   23.4255 H         1 RES1    0.0000
      4 H2         8.3860   -1.0715   24.6255 H         1 RES1    0.0000
      5 C3         6.3955   -1.4631   24.2976 C.3       1 RES1    0.0000
      6 H3         5.8445   -1.6266   23.5147 H         1 RES1    0.0000
      7 H4         6.4169   -2.2775   24.8218 H         1 RES1    0.0000
      8 C4         5.7809   -0.3712   25.1114 C.3       1 RES1    0.0000
      9 H5         5.7219    0.4325   24.5720 H         1 RES1    0.0000
     10 H6         6.3549   -0.1786   25.8702 H         1 RES1    0.0000
     11 C5         4.3954   -0.7326   25.6168 C.3       1 RES1    0.0000
     12 H7         3.8490   -1.0199   24.8709 H         1 RES1    0.0000
     13 H8         4.4671   -1.4760   26.2360 H         1 RES1    0.0000
     14 C6         3.0060    1.2963   25.4339 C.3       1 RES1    0.0000
     15 H9         3.0252    0.9790   24.5274 H         1 RES1    0.0000
     16 H10        3.4098    2.1667   25.4776 H         1 RES1    0.0000
     17 H11        2.0963    1.3512   25.7364 H         1 RES1    0.0000
     18 C7         3.8694    0.6046   27.6109 C.ar      1 RES1    0.0000
     19 C8         3.1847    1.6600   28.2623 C.ar      1 RES1    0.0000
     20 H12        2.6706    2.2473   27.7573 H         1 RES1    0.0000
     21 C9         3.2633    1.8342   29.6091 C.ar      1 RES1    0.0000
     22 H13        2.7960    2.5389   29.9968 H         1 RES1    0.0000
     23 C10        4.0085    1.0059   30.4219 C.ar      1 RES1    0.0000
     24 C11        4.7356   -0.0366   29.8022 C.ar      1 RES1    0.0000
     25 H14        5.2608   -0.6035   30.3180 H         1 RES1    0.0000
     26 C12        4.6699   -0.2162   28.4514 C.ar      1 RES1    0.0000
     27 H15        5.1682   -0.9004   28.0651 H         1 RES1    0.0000
     28 C13        4.6520    0.7498   33.8855 C.ar      1 RES1    0.0000
     29 C14        3.8697    1.7493   34.4673 C.ar      1 RES1    0.0000
     30 H16        3.3615    2.3151   33.9315 H         1 RES1    0.0000
     31 C15        3.8523    1.8934   35.8221 C.ar      1 RES1    0.0000
     32 H17        3.3223    2.5507   36.2111 H         1 RES1    0.0000
     33 C16        4.6167    1.0693   36.6184 C.ar      1 RES1    0.0000
     34 C17        5.3834    0.0645   36.0572 C.ar      1 RES1    0.0000
     35 H18        5.8848   -0.5035   36.5948 H         1 RES1    0.0000
     36 C18        5.3927   -0.0828   34.6939 C.ar      1 RES1    0.0000
     37 H19        5.9075   -0.7552   34.3107 H         1 RES1    0.0000
     38 N1         3.7436    0.3808   26.2833 N.pl3     1 RES1    0.0000
     39 N2         3.9975    1.2555   31.7942 N.2       1 RES1    0.0000
     40 N3         4.7169    0.4895   32.4968 N.2       1 RES1    0.0000
     41 N4         4.5929    1.2458   38.0634 N.pl3     1 RES1    0.0000
     42 O1         9.6469   -2.0064   22.6952 O.3       1 RES1    0.0000
     43 H20        9.8658   -2.7207   22.1942 H         1 RES1    0.0000
     44 O2         7.6851   -2.9617   22.3619 O.2       1 RES1    0.0000
     45 O3         5.3187    0.5390   38.7477 O.2       1 RES1    0.0000
     46 O4         3.8464    2.0698   38.5595 O.2       1 RES1    0.0000
     47 C19        4.3651    4.9820   23.8060 C.2       2 RES2    0.0000
     48 C20        3.8428    6.1245   24.6086 C.3       2 RES2    0.0000
     49 H21        4.0467    6.9464   24.1393 H         2 RES2    0.0000
     50 H22        4.3201    6.1471   25.4508 H         2 RES2    0.0000
     51 C21        2.3663    6.1009   24.9008 C.3       2 RES2    0.0000
     52 H23        2.1107    6.9583   25.2724 H         2 RES2    0.0000
     53 H24        1.8867    5.9901   24.0634 H         2 RES2    0.0000
     54 C22        1.9348    5.0154   25.8501 C.3       2 RES2    0.0000
     55 H25        2.5161    5.0186   26.6241 H         2 RES2    0.0000
     56 H26        2.0241    4.1537   25.4152 H         2 RES2    0.0000
     57 C23        0.5013    5.2026   26.2989 C.3       2 RES2    0.0000
     58 H27        0.4425    6.0083   26.8338 H         2 RES2    0.0000
     59 H28       -0.0595    5.3263   25.5178 H         2 RES2    0.0000
     60 C24       -0.7533    3.0725   26.3261 C.3       2 RES2    0.0000
     61 H29       -0.7184    3.2898   25.3929 H         2 RES2    0.0000
     62 H30       -1.6673    3.0607   26.6197 H         2 RES2    0.0000
     63 H31       -0.3604    2.2086   26.4680 H         2 RES2    0.0000
     64 C25        0.0840    4.0009   28.4117 C.ar      2 RES2    0.0000
     65 C26        0.8846    4.8981   29.1692 C.ar      2 RES2    0.0000
     66 H32        1.3554    5.5683   28.7253 H         2 RES2    0.0000
     67 C27        0.9815    4.8045   30.5111 C.ar      2 RES2    0.0000
     68 H33        1.5144    5.4080   30.9782 H         2 RES2    0.0000
     69 C28        0.2851    3.8062   31.2169 C.ar      2 RES2    0.0000
     70 C29       -0.5103    2.9412   30.5027 C.ar      2 RES2    0.0000
     71 H34       -0.9917    2.2850   30.9514 H         2 RES2    0.0000
     72 C30       -0.6035    3.0273   29.1697 C.ar      2 RES2    0.0000
     73 H35       -1.1451    2.4173   28.7209 H         2 RES2    0.0000
     74 C31        0.9430    4.1451   34.6796 C.ar      2 RES2    0.0000
     75 C32        1.6611    5.0272   35.4443 C.ar      2 RES2    0.0000
     76 H36        2.1411    5.7060   35.0289 H         2 RES2    0.0000
     77 C33        1.6869    4.9315   36.7911 C.ar      2 RES2    0.0000
     78 H37        2.1595    5.5544   37.2952 H         2 RES2    0.0000
     79 C34        1.0080    3.9052   37.4161 C.ar      2 RES2    0.0000
     80 C35        0.2825    2.9864   36.6791 C.ar      2 RES2    0.0000
     81 H38       -0.1734    2.2947   37.0989 H         2 RES2    0.0000
     82 C36        0.2488    3.1177   35.3131 C.ar      2 RES2    0.0000
     83 H39       -0.2426    2.5131   34.8059 H         2 RES2    0.0000
     84 N5        -0.0161    4.0698   27.0818 N.pl3     2 RES2    0.0000
     85 N6         0.2832    3.5770   32.6302 N.2       2 RES2    0.0000
     86 N7         0.9821    4.3699   33.2182 N.2       2 RES2    0.0000
     87 N8         1.0794    3.8180   38.8628 N.pl3     2 RES2    0.0000
     88 O5         3.6927    4.0622   23.3644 O.2       2 RES2    0.0000
     89 O6         5.6609    5.0842   23.5611 O.3       2 RES2    0.0000
     90 H40        5.9648    4.2602   23.1534 H         2 RES2    0.0000
     91 O7         0.4730    2.9014   39.4093 O.2       2 RES2    0.0000
     92 O8         1.7324    4.6550   39.4856 O.2       2 RES2    0.0000
@<TRIPOS>BOND
     1    1    2 1
     2    2    3 1
     3    4    2 1
     4    5    2 1
     5    6    5 1
     6    7    5 1
     7    8    5 1
     8    9    8 1
     9   10    8 1
    10   11    8 1
    11   12   11 1
    12   13   11 1
    13   14   15 1
    14   16   14 1
    15   17   14 1
    16   18   19 ar
    17   19   20 1
    18   21   19 ar
    19   22   21 1
    20   23   21 ar
    21   24   23 ar
    22   25   24 1
    23   26   18 ar
    24   27   26 1
    25   28   29 ar
    26   29   30 1
    27   31   29 ar
    28   32   31 1
    29   33   31 ar
    30   34   33 ar
    31   35   34 1
    32   36   28 ar
    33   37   36 1
    34   38   11 1
    35   39   23 1
    36   40   28 1
    37   41   33 1
    38   42    1 1
    39   43   42 1
    40   44    1 2
    41   45   41 2
    42   46   41 2
    43   47   48 1
    44   48   49 1
    45   50   48 1
    46   51   48 1
    47   52   51 1
    48   53   51 1
    49   54   51 1
    50   55   54 1
    51   56   54 1
    52   57   54 1
    53   58   57 1
    54   59   57 1
    55   60   61 1
    56   62   60 1
    57   63   60 1
    58   64   65 ar
    59   65   66 1
    60   67   65 ar
    61   68   67 1
    62   69   67 ar
    63   70   69 ar
    64   71   70 1
    65   72   64 ar
    66   73   72 1
    67   74   75 ar
    68   75   76 1
    69   77   75 ar
    70   78   77 1
    71   79   77 ar
    72   80   79 ar
    73   81   80 1
    74   82   74 ar
    75   83   82 1
    76   84   57 1
    77   85   69 1
    78   86   74 1
    79   87   79 1
    80   88   47 2
    81   89   47 1
    82   90   89 1
    83   91   87 2
    84   92   87 2
    85   14   38 1
    86   18   38 1
    87   24   26 ar
    88   34   36 ar
    89   39   40 2
    90   60   84 1
    91   64   84 1
    92   70   72 ar
    93   80   82 ar
    94   85   86 2
@<TRIPOS>SUBSTRUCTURE
     1 RES1 1
     2 RES2 47

@<TRIPOS>CRYSIN
   7.5500   10.7580   44.6200  90.0000  91.1200  90.0000 231 1

