# MOL2 file generated by ConQuest
# Please check atom types

@<TRIPOS>MOLECULE
ASAXIC
    19    19     1
SMALL
USER_CHARGES
****
Generated from CSD

@<TRIPOS>ATOM
      1 O1         4.4047   -0.7455    3.7538 O.3       1 RES1    0.0000
      2 H1         4.4018   -1.6329    3.6793 H         1 RES1    0.0000
      3 O2         4.0327   -3.1587    2.9834 O.2       1 RES1    0.0000
      4 O3         3.5975    3.1955    3.0868 O.2       1 RES1    0.0000
      5 N1         2.7906   -3.5763    1.0913 N.2       1 RES1    0.0000
      6 C1         3.6527   -0.3639    2.7152 C.ar      1 RES1    0.0000
      7 C2         3.4108    0.9920    2.4519 C.ar      1 RES1    0.0000
      8 O4         4.7487    1.7725    4.1865 O.2       1 RES1    0.0000
      9 C3         3.0688   -1.3058    1.8352 C.ar      1 RES1    0.0000
     10 N2         3.9638    2.0487    3.3000 N.pl3     1 RES1    0.0000
     11 C4         2.0453    0.4619    0.5504 C.ar      1 RES1    0.0000
     12 H2         1.4922    0.7396   -0.1705 H         1 RES1    0.0000
     13 C5         2.2713   -0.8809    0.7785 C.ar      1 RES1    0.0000
     14 H3         1.8751   -1.5258    0.2040 H         1 RES1    0.0000
     15 C6         2.6299    1.3970    1.3792 C.ar      1 RES1    0.0000
     16 H4         2.4969    2.3236    1.2146 H         1 RES1    0.0000
     17 C7         3.3546   -2.7335    2.0528 C.2       1 RES1    0.0000
     18 N3         3.0582   -4.7971    1.3359 N.1       1 RES1    1.0000
     19 N4         3.2176   -5.8903    1.4605 N.2       1 RES1   -1.0000
@<TRIPOS>BOND
     1    1    2 1
     2    3   17 2
     3    4   10 2
     4    5   17 1
     5    6    1 1
     6    7    6 ar
     7    8   10 2
     8    9    6 ar
     9   10    7 1
    10   11   12 1
    11   13    9 ar
    12   14   13 1
    13   15    7 ar
    14   16   15 1
    15   17    9 1
    16   18    5 2
    17   19   18 2
    18   11   13 ar
    19   11   15 ar
@<TRIPOS>SUBSTRUCTURE
     1 RES1 1

@<TRIPOS>CRYSIN
   7.5244   11.6472    9.3965  90.0000  97.5720  90.0000 231 1

