# MOL2 file generated by ConQuest
# Please check atom types

@<TRIPOS>MOLECULE
ASAYID
    32    33     1
SMALL
NO_CHARGES
****
Generated from CSD

@<TRIPOS>ATOM
      1 O1        -2.8546    4.9713    3.6271 O.2       1 RES1    0.0000
      2 O2        -4.6756    5.9967    3.0946 O.2       1 RES1    0.0000
      3 O3        -1.5943    3.5181    1.9011 O.3       1 RES1    0.0000
      4 H1        -1.6973    3.9143    2.6572 H         1 RES1    0.0000
      5 O4         1.2293    1.6561    1.7999 O.3       1 RES1    0.0000
      6 H2         1.8658    1.4263    2.4347 H         1 RES1    0.0000
      7 O5         3.4503    0.4746    2.5077 O.2       1 RES1    0.0000
      8 O6         4.5504   -0.7646    1.1325 O.2       1 RES1    0.0000
      9 O7        -1.5946    2.1735   -2.0260 O.2       1 RES1    0.0000
     10 N1        -0.3889    2.2678   -0.1064 N.am      1 RES1    0.0000
     11 H3        -0.4364    2.5356    0.7330 H         1 RES1    0.0000
     12 N2        -3.7389    5.2645    2.8051 N.pl3     1 RES1    0.0000
     13 N3         3.6189   -0.0151    1.3861 N.pl3     1 RES1    0.0000
     14 C1        -2.5277    3.4682   -0.2653 C.ar      1 RES1    0.0000
     15 C2        -2.5737    3.9040    1.0749 C.ar      1 RES1    0.0000
     16 C3        -3.6465    4.7360    1.4531 C.ar      1 RES1    0.0000
     17 C4        -4.6364    5.1258    0.5558 C.ar      1 RES1    0.0000
     18 H4        -5.3456    5.6908    0.8390 H         1 RES1    0.0000
     19 C5        -4.5769    4.6837   -0.7477 C.ar      1 RES1    0.0000
     20 H5        -5.2438    4.9436   -1.3731 H         1 RES1    0.0000
     21 C6        -3.5369    3.8588   -1.1393 C.ar      1 RES1    0.0000
     22 H6        -3.5118    3.5474   -2.0367 H         1 RES1    0.0000
     23 C7        -1.4630    2.5847   -0.8779 C.2       1 RES1    0.0000
     24 C8         0.6866    1.4342   -0.4572 C.ar      1 RES1    0.0000
     25 C9         1.5657    1.1299    0.6100 C.ar      1 RES1    0.0000
     26 C10        2.6714    0.3185    0.3340 C.ar      1 RES1    0.0000
     27 C11        2.9128   -0.2021   -0.9355 C.ar      1 RES1    0.0000
     28 H7         3.6703   -0.7528   -1.0969 H         1 RES1    0.0000
     29 C12        2.0343    0.0967   -1.9524 C.ar      1 RES1    0.0000
     30 H8         2.1796   -0.2623   -2.8195 H         1 RES1    0.0000
     31 C13        0.9339    0.9184   -1.7230 C.ar      1 RES1    0.0000
     32 H9         0.3464    1.1283   -2.4399 H         1 RES1    0.0000
@<TRIPOS>BOND
     1    1   12 2
     2    2   12 2
     3    3    4 1
     4    5    6 1
     5    7   13 2
     6    8   13 2
     7    9   23 2
     8   10   11 1
     9   12   16 1
    10   13   26 1
    11   14   15 ar
    12   15    3 1
    13   16   15 ar
    14   17   16 ar
    15   18   17 1
    16   19   17 ar
    17   20   19 1
    18   21   14 ar
    19   22   21 1
    20   23   10 1
    21   24   10 1
    22   25    5 1
    23   26   25 ar
    24   27   26 ar
    25   28   27 1
    26   29   27 ar
    27   30   29 1
    28   31   24 ar
    29   32   31 1
    30   14   23 1
    31   19   21 ar
    32   24   25 ar
    33   29   31 ar
@<TRIPOS>SUBSTRUCTURE
     1 RES1 1

@<TRIPOS>CRYSIN
  12.1497    7.9237   14.0805  90.0000 111.6240  90.0000 231 1

