# MOL2 file generated by ConQuest
# Please check atom types

@<TRIPOS>MOLECULE
ASEYEC
    20    21     1
SMALL
NO_CHARGES
****
Generated from CSD

@<TRIPOS>ATOM
      1 O1        -3.0359    8.5981    5.6859 O.2       1 RES1    0.0000
      2 O2        -1.7973    7.1944    6.7259 O.2       1 RES1    0.0000
      3 O3         3.9287   12.8808    6.2745 O.3       1 RES1    0.0000
      4 O4         1.3945   13.1448    4.7312 O.2       1 RES1    0.0000
      5 N1        -2.0288    8.3219    6.2847 N.pl3     1 RES1    0.0000
      6 N2         1.3921   12.5534    7.6185 N.3       1 RES1    0.0000
      7 N3        -0.6776   12.9238    5.6417 N.am      1 RES1    0.0000
      8 C1        -1.0611    9.4002    6.5385 C.ar      1 RES1    0.0000
      9 C2         0.0772    9.1424    7.3331 C.ar      1 RES1    0.0000
     10 C3         0.9276   10.1942    7.6082 C.ar      1 RES1    0.0000
     11 C4         0.6444   11.4976    7.1807 C.ar      1 RES1    0.0000
     12 C5        -0.4283   11.6715    6.3043 C.ar      1 RES1    0.0000
     13 C6        -1.2610   10.6218    5.9994 C.ar      1 RES1    0.0000
     14 C7         0.7949   13.8855    7.9523 C.3       1 RES1    0.0000
     15 C8         1.5341   14.2661    9.1984 C.3       1 RES1    0.0000
     16 C9         2.9363   13.7607    8.9224 C.3       1 RES1    0.0000
     17 C10        2.6755   12.3877    8.3049 C.3       1 RES1    0.0000
     18 C11        3.7412   11.9559    7.3255 C.3       1 RES1    0.0000
     19 C12        0.2547   13.5929    4.9203 C.2       1 RES1    0.0000
     20 C13       -0.1675   14.9045    4.3207 C.3       1 RES1    0.0000
@<TRIPOS>BOND
     1    1    5 2
     2    2    5 2
     3    3   18 1
     4    4   19 2
     5    5    8 1
     6    6   11 1
     7    7   12 1
     8    8    9 ar
     9    9   10 ar
    10   10   11 ar
    11   11   12 ar
    12   12   13 ar
    13   13    8 ar
    14   14    6 1
    15   15   14 1
    16   16   15 1
    17   17    6 1
    18   18   17 1
    19   19    7 1
    20   20   19 1
    21   16   17 1
@<TRIPOS>SUBSTRUCTURE
     1 RES1 1

@<TRIPOS>CRYSIN
   7.7170   20.4620    8.5170  90.0000  90.0000  90.0000  19 1

