# MOL2 file generated by ConQuest
# Please check atom types

@<TRIPOS>MOLECULE
ASEYIG
    17    18     1
SMALL
NO_CHARGES
****
Generated from CSD

@<TRIPOS>ATOM
      1 O1         1.4667   11.6730    4.5704 O.2       1 RES1    0.0000
      2 O2         1.1353   13.0670    6.0785 O.2       1 RES1    0.0000
      3 O3         0.3321    6.2844    8.9686 O.co2     1 RES1    0.0000
      4 O4         1.7488    5.2672    7.6015 O.co2     1 RES1    0.0000
      5 N1         1.3959   11.9469    5.7560 N.pl3     1 RES1    0.0000
      6 N2         2.0656    8.8562    7.4426 N.ar      1 RES1    0.0000
      7 N3         2.2428    8.1458    9.7398 N.3       1 RES1    0.0000
      8 C1         1.5814   11.0285    6.9175 C.ar      1 RES1    0.0000
      9 C2         1.7648    9.6757    6.4353 C.ar      1 RES1    0.0000
     10 C3         2.0121    9.0333    8.8658 C.ar      1 RES1    0.0000
     11 C4         1.6877   10.4623    9.1984 C.ar      1 RES1    0.0000
     12 C5         1.4848   11.4342    8.2722 C.ar      1 RES1    0.0000
     13 C6         2.1664    8.2735   11.1444 C.3       1 RES1    0.0000
     14 C7         2.3213    6.8609   11.6344 C.3       1 RES1    0.0000
     15 C8         3.1683    6.1649   10.5827 C.3       1 RES1    0.0000
     16 C9         2.7848    6.7415    9.2553 C.3       1 RES1    0.0000
     17 C10        1.6064    6.1176    8.5729 C.2       1 RES1    0.0000
@<TRIPOS>BOND
     1    1    5 2
     2    2    5 2
     3    3   17 2
     4    4   17 1
     5    5    8 1
     6    6    9 ar
     7    7   10 1
     8    8    9 ar
     9   10    6 ar
    10   11   10 ar
    11   12    8 ar
    12   13    7 1
    13   14   13 1
    14   15   14 1
    15   16    7 1
    16   17   16 1
    17   11   12 ar
    18   15   16 1
@<TRIPOS>SUBSTRUCTURE
     1 RES1 1

@<TRIPOS>CRYSIN
   6.9480   20.5910    7.7900  90.0000  90.0000  90.0000  18 1

