# MOL2 file generated by ConQuest
# Please check atom types

@<TRIPOS>MOLECULE
ASEZED
    48    48     2
SMALL
NO_CHARGES
****
Generated from CSD

@<TRIPOS>ATOM
      1 C1         1.8070    6.0826    5.0120 C.3       1 RES1    0.0000
      2 O1         2.1166    7.4884    7.0385 O.3       1 RES1    0.0000
      3 O2         3.2454    4.1301    7.8935 O.3       1 RES1    0.0000
      4 C2         4.3506    3.3892    9.8635 C.ar      1 RES1    0.0000
      5 C3         1.4177    7.3293    5.8078 C.3       1 RES1    0.0000
      6 C4         2.1253    4.8148    5.8251 C.3       1 RES1    0.0000
      7 C5         2.9114    5.2346    7.0558 C.3       1 RES1    0.0000
      8 C6         2.1373    6.3055    7.8370 C.3       1 RES1    0.0000
      9 C7         4.0008    4.5549    8.9957 C.3       1 RES1    0.0000
     10 O3         0.0334    7.2570    6.0038 O.3       1 RES1    0.0000
     11 N1         0.8593    4.0785    6.0275 N.3       1 RES1    0.0000
     12 O4         0.6350    3.5043    4.6966 O.3       1 RES1    0.0000
     13 C8         2.9697    4.0066    4.7950 C.3       1 RES1    0.0000
     14 O5         3.0165    6.3514    4.3027 O.3       1 RES1    0.0000
     15 C9         5.5336    3.4247   10.5992 C.ar      1 RES1    0.0000
     16 C10        2.9384    6.6717    9.0932 C.3       1 RES1    0.0000
     17 C11        3.5282    5.0951    3.8561 C.3       1 RES1    0.0000
     18 C12        1.9395    3.0682    4.2016 C.3       1 RES1    0.0000
     19 C13        0.8604    2.9717    6.9756 C.3       1 RES1    0.0000
     20 O6         3.2222    5.4479    9.8125 O.3       1 RES1    0.0000
     21 C14        3.4879    2.2871    9.9857 C.ar      1 RES1    0.0000
     22 C15        3.7833    1.2671   10.8599 C.ar      1 RES1    0.0000
     23 C16       -0.5419    8.4781    6.4131 C.3       1 RES1    0.0000
     24 C17        5.8442    2.3721   11.4515 C.ar      1 RES1    0.0000
     25 C18        4.9728    1.2723   11.5992 C.ar      1 RES1    0.0000
     26 H1         5.0412    5.3857    8.5326 H         1 RES1    0.0000
     27 H2         4.0555    5.8731    6.6364 H         1 RES1    0.0000
     28 H3         0.9077    6.4681    4.0110 H         1 RES1    0.0000
     29 H4         1.9077    8.0971    5.1141 H         1 RES1    0.0000
     30 H5         0.7256    6.2322    8.8425 Du        2 SUP2    0.0000
     31 H6         2.4503    7.3910    9.8726 H         1 RES1    0.0000
     32 H7         3.9552    7.4684    9.0248 H         1 RES1    0.0000
     33 H8         4.5526    5.2612    4.0748 H         1 RES1    0.0000
     34 H9         3.1144    4.8294    2.8260 H         1 RES1    0.0000
     35 H10        3.7228    3.6329    5.1596 H         1 RES1    0.0000
     36 H11        2.1166    2.3539    4.4121 H         1 RES1    0.0000
     37 H12        1.5049    3.3423    2.9171 H         1 RES1    0.0000
     38 H13        0.8282    3.4056    8.0859 H         1 RES1    0.0000
     39 H14       -0.5778    2.8904    7.2928 H         1 RES1    0.0000
     40 H15        1.5725    2.2318    7.2016 H         1 RES1    0.0000
     41 H16       -1.1876    7.4653    6.2718 Du        2 SUP2    0.0000
     42 H17       -0.4079    8.5436    6.9646 Du        2 SUP2    0.0000
     43 H18       -1.2368    9.1241    4.5580 Du        2 SUP2    0.0000
     44 H19        6.3462    4.3985   10.4469 H         1 RES1    0.0000
     45 H20        7.2555    2.4007   12.0331 H         1 RES1    0.0000
     46 H21        5.1376    0.1176   12.5801 H         1 RES1    0.0000
     47 H22        3.2631    0.4803   10.7933 H         1 RES1    0.0000
     48 H23        2.0522    2.3838    9.8453 H         1 RES1    0.0000
@<TRIPOS>BOND
     1    1    5 1
     2    2    5 1
     3    3    7 1
     4    4    9 1
     5    5   10 1
     6    6    1 1
     7    7    6 1
     8    8    2 1
     9    9    3 1
    10   10   23 1
    11   11    6 1
    12   12   11 1
    13   13    6 1
    14   14    1 1
    15   15    4 ar
    16   16    8 1
    17   17   13 1
    18   18   12 1
    19   19   11 1
    20   20    9 1
    21   21    4 ar
    22   22   21 ar
    23   24   15 ar
    24   25   22 ar
    25   26    9 1
    26   27    7 1
    27   28    1 1
    28   29    5 1
    29   31   16 1
    30   32   16 1
    31   33   17 1
    32   34   17 1
    33   35   13 1
    34   36   18 1
    35   37   18 1
    36   38   19 1
    37   39   19 1
    38   40   19 1
    39   44   15 1
    40   45   24 1
    41   46   25 1
    42   47   22 1
    43   48   21 1
    44    7    8 1
    45   13   18 1
    46   14   17 1
    47   16   20 1
    48   24   25 ar
@<TRIPOS>SUBSTRUCTURE
     1 RES1 1
     2 SUP2 30

@<TRIPOS>CRYSIN
   5.8490    8.2330    9.2520  82.0900  82.8500  79.5700   1 1

