# MOL2 file generated by ConQuest
# Please check atom types

@<TRIPOS>MOLECULE
ASIXAC
    68    72     2
SMALL
NO_CHARGES
****
Generated from CSD

@<TRIPOS>ATOM
      1 O1        13.0865    4.7169    0.7921 O.2       1 RES1    0.0000
      2 O2        11.0691    4.3044    0.0880 O.3       1 RES1    0.0000
      3 O3         8.6848    7.0689   -1.9860 O.3       1 RES1    0.0000
      4 H1         8.4323    7.4167   -2.6842 H         1 RES1    0.0000
      5 O4         5.0843    6.5626   -0.6644 O.3       1 RES1    0.0000
      6 H2         4.9269    7.3585   -0.5442 H         1 RES1    0.0000
      7 O5         4.2971    7.8324    4.1466 O.2       2 RES2    0.0000
      8 O6         6.3083    8.5425    3.6919 O.3       2 RES2    0.0000
      9 O7         8.8824   10.5079    6.0842 O.3       2 RES2    0.0000
     10 H3         9.1864   11.2472    6.2646 H         2 RES2    0.0000
     11 O8        12.4017    8.9178    5.9052 O.3       2 RES2    0.0000
     12 H4        11.7708    9.4306    6.0152 H         2 RES2    0.0000
     13 N1         9.6901    4.6571   -0.1731 N.2       1 RES1    0.0000
     14 N2         7.5950    6.7777   -1.1969 N.2       1 RES1    0.0000
     15 N3         7.6952    8.7350    3.9852 N.2       2 RES2    0.0000
     16 N4         9.9301    9.6280    5.8143 N.2       2 RES2    0.0000
     17 C1        11.9652    5.1504    0.6850 C.2       1 RES1    0.0000
     18 C2         9.3315    5.8217    0.2009 C.2       1 RES1    0.0000
     19 C3         7.9005    6.1501   -0.1159 C.2       1 RES1    0.0000
     20 C4         6.8304    5.7781    0.8009 C.ar      1 RES1    0.0000
     21 C5         5.4895    5.9932    0.5178 C.ar      1 RES1    0.0000
     22 C6         4.5035    5.5807    1.3964 C.ar      1 RES1    0.0000
     23 H5         3.6076    5.7263    1.1896 H         1 RES1    0.0000
     24 C7         4.8433    4.9547    2.5742 C.ar      1 RES1    0.0000
     25 H6         4.1716    4.6797    3.1550 H         1 RES1    0.0000
     26 C8        10.1643    6.7858    0.8713 C.ar      1 RES1    0.0000
     27 C9         9.6897    8.0136    1.2761 C.ar      1 RES1    0.0000
     28 H7         8.8003    8.2449    1.1294 H         1 RES1    0.0000
     29 C10       10.5449    8.9017    1.9053 C.ar      1 RES1    0.0000
     30 H8        10.2331    9.7347    2.1782 H         1 RES1    0.0000
     31 C11       11.8652    8.5474    2.1268 C.ar      1 RES1    0.0000
     32 H9        12.4340    9.1475    2.5551 H         1 RES1    0.0000
     33 C12       12.3416    7.3471    1.7323 C.ar      1 RES1    0.0000
     34 H10       13.2320    7.1255    1.8819 H         1 RES1    0.0000
     35 C13       11.4902    6.4429    1.0986 C.ar      1 RES1    0.0000
     36 C14        7.1333    5.1585    2.0256 C.ar      1 RES1    0.0000
     37 H11        8.0270    5.0356    2.2515 H         1 RES1    0.0000
     38 C15        6.1674    4.7266    2.9086 C.ar      1 RES1    0.0000
     39 C16        6.5306    3.9712    4.1656 C.3       1 RES1    0.0000
     40 H12        6.8773    3.1074    3.9310 H         1 RES1    0.0000
     41 H13        5.7486    3.8628    4.7128 H         1 RES1    0.0000
     42 H14        7.1977    4.4613    4.6526 H         1 RES1    0.0000
     43 C17       10.7722    3.9243    3.7916 C.3       2 RES2    0.0000
     44 H15       10.2305    3.4617    4.4370 H         2 RES2    0.0000
     45 H16       11.5529    3.4002    3.5951 H         2 RES2    0.0000
     46 H17       10.2655    4.0586    2.9878 H         2 RES2    0.0000
     47 C18       11.1868    5.2475    4.3475 C.ar      2 RES2    0.0000
     48 C19       10.2680    6.2456    4.5895 C.ar      2 RES2    0.0000
     49 H18        9.3765    6.0725    4.3901 H         2 RES2    0.0000
     50 C20       10.5819    7.4879    5.1102 C.ar      2 RES2    0.0000
     51 C21        9.5657    8.4843    5.3479 C.2       2 RES2    0.0000
     52 C22        8.1360    8.1964    5.0750 C.2       2 RES2    0.0000
     53 C23        7.3641    7.3924    5.9830 C.ar      2 RES2    0.0000
     54 C24        6.0137    7.2096    5.6750 C.ar      2 RES2    0.0000
     55 C25        5.1886    6.4494    6.4832 C.ar      2 RES2    0.0000
     56 H19        4.2962    6.3216    6.2558 H         2 RES2    0.0000
     57 C26        5.6995    5.8848    7.6243 C.ar      2 RES2    0.0000
     58 H20        5.1525    5.3850    8.1861 H         2 RES2    0.0000
     59 C27        5.4719    7.8421    4.4869 C.2       2 RES2    0.0000
     60 C28       11.9465    7.7435    5.4212 C.ar      2 RES2    0.0000
     61 C29       12.8580    6.7664    5.1836 C.ar      2 RES2    0.0000
     62 H21       13.7528    6.9427    5.3640 H         2 RES2    0.0000
     63 C30       12.5211    5.5354    4.6907 C.ar      2 RES2    0.0000
     64 H22       13.1770    4.8852    4.5822 H         2 RES2    0.0000
     65 C31        7.8705    6.8020    7.1432 C.ar      2 RES2    0.0000
     66 H23        8.7650    6.9104    7.3764 H         2 RES2    0.0000
     67 C32        7.0357    6.0644    7.9294 C.ar      2 RES2    0.0000
     68 H24        7.3774    5.6681    8.6994 H         2 RES2    0.0000
@<TRIPOS>BOND
     1    1   17 2
     2    2   13 1
     3    3    4 1
     4    5    6 1
     5    7   59 2
     6    8   15 1
     7    9   10 1
     8   11   12 1
     9   13   18 2
    10   14    3 1
    11   15   52 2
    12   16    9 1
    13   17    2 1
    14   18   19 1
    15   19   14 2
    16   20   19 1
    17   21    5 1
    18   22   21 ar
    19   23   22 1
    20   24   22 ar
    21   25   24 1
    22   26   18 1
    23   27   26 ar
    24   28   27 1
    25   29   27 ar
    26   30   29 1
    27   31   29 ar
    28   32   31 1
    29   33   31 ar
    30   34   33 1
    31   35   17 1
    32   36   20 ar
    33   37   36 1
    34   38   24 ar
    35   39   38 1
    36   40   39 1
    37   41   39 1
    38   42   39 1
    39   43   44 1
    40   45   43 1
    41   46   43 1
    42   47   43 1
    43   48   47 ar
    44   49   48 1
    45   50   48 ar
    46   51   16 2
    47   52   51 1
    48   53   52 1
    49   54   53 ar
    50   55   54 ar
    51   56   55 1
    52   57   55 ar
    53   58   57 1
    54   59    8 1
    55   60   11 1
    56   61   60 ar
    57   62   61 1
    58   63   47 ar
    59   64   63 1
    60   65   53 ar
    61   66   65 1
    62   67   57 ar
    63   68   67 1
    64   20   21 ar
    65   26   35 ar
    66   33   35 ar
    67   36   38 ar
    68   50   51 1
    69   50   60 ar
    70   54   59 1
    71   61   63 ar
    72   65   67 ar
@<TRIPOS>SUBSTRUCTURE
     1 RES1 1
     2 RES2 7

@<TRIPOS>CRYSIN
  11.9110   16.1760   14.6870  90.0000  92.9330  90.0000  14 1

