# MOL2 file generated by ConQuest
# Please check atom types

@<TRIPOS>MOLECULE
ASOREG
    70    74     2
SMALL
NO_CHARGES
****
Generated from CSD

@<TRIPOS>ATOM
      1 O1         5.7092   12.7541    8.0753 O.2       1 RES1    0.0000
      2 O2         4.3346   11.0991    7.8402 O.2       1 RES1    0.0000
      3 N1         5.3567   11.7130    7.5349 N.pl3     1 RES1    0.0000
      4 C1         7.7024   10.2534    4.3508 C.ar      1 RES1    0.0000
      5 C2         6.1883   11.1801    6.4448 C.ar      1 RES1    0.0000
      6 C3         8.1214   11.3661    5.0757 C.ar      1 RES1    0.0000
      7 H1         8.9189   11.7908    4.8525 H         1 RES1    0.0000
      8 C4         8.3683   10.6087    1.8673 C.3       1 RES1    0.0000
      9 C5         8.4934    9.7598    3.1695 C.3       1 RES1    0.0000
     10 H2         8.2484    8.8309    2.9776 H         1 RES1    0.0000
     11 C6         5.7500   10.0676    5.7565 C.ar      1 RES1    0.0000
     12 H3         4.9584    9.6411    5.9941 H         1 RES1    0.0000
     13 C7         7.3574   11.8432    6.1258 C.ar      1 RES1    0.0000
     14 H4         7.6248   12.5927    6.6057 H         1 RES1    0.0000
     15 C8         6.5228    9.6013    4.6983 C.ar      1 RES1    0.0000
     16 H5         6.2501    8.8509    4.2209 H         1 RES1    0.0000
     17 C9         7.7050   11.9882    2.0033 C.2       1 RES1    0.0000
     18 C10        7.1820   10.2289    0.9495 C.3       1 RES1    0.0000
     19 H6         6.7719    9.3787    1.1755 H         1 RES1    0.0000
     20 H7         7.3927   10.2711    0.0038 H         1 RES1    0.0000
     21 C11        6.3906   11.4572    1.4656 C.3       1 RES1    0.0000
     22 H8         6.0012   12.0016    0.7635 H         1 RES1    0.0000
     23 H9         5.7380   11.2483    2.1512 H         1 RES1    0.0000
     24 O3         8.1399   13.0821    2.2326 O.2       1 RES1    0.0000
     25 O4         9.8870    9.8347    3.4449 O.3       1 RES1    0.0000
     26 O5         9.6681   10.6316    1.3411 O.3       1 RES1    0.0000
     27 C12       10.5411    9.8593    2.1801 C.3       1 RES1    0.0000
     28 C13       10.6873    8.4733    1.5996 C.3       1 RES1    0.0000
     29 H10       11.2642    7.9504    2.1613 H         1 RES1    0.0000
     30 H11       11.0667    8.5338    0.7196 H         1 RES1    0.0000
     31 H12        9.8245    8.0548    1.5484 H         1 RES1    0.0000
     32 C14       11.8468   10.5827    2.3494 C.3       1 RES1    0.0000
     33 H13       11.6852   11.4506    2.7252 H         1 RES1    0.0000
     34 H14       12.2734   10.6791    1.4944 H         1 RES1    0.0000
     35 H15       12.4173   10.0806    2.9361 H         1 RES1    0.0000
     36 O6         2.5040    5.6999    7.6926 O.2       2 RES2    0.0000
     37 O7         4.1789    7.0231    8.0467 O.2       2 RES2    0.0000
     38 N2         3.6420    6.0984    7.4472 N.pl3     2 RES2    0.0000
     39 C15        5.7497    4.3189    4.2641 C.ar      2 RES2    0.0000
     40 C16        6.4376    3.7977    3.0332 C.3       2 RES2    0.0000
     41 H16        6.1342    2.8862    2.8407 H         2 RES2    0.0000
     42 C17        4.3922    5.4501    6.3637 C.ar      2 RES2    0.0000
     43 C18        6.2709    4.6843    1.7805 C.3       2 RES2    0.0000
     44 C19        6.3256    5.3576    4.9947 C.ar      2 RES2    0.0000
     45 H17        7.1743    5.6645    4.7709 H         2 RES2    0.0000
     46 C20        4.4978    3.8315    4.6203 C.ar      2 RES2    0.0000
     47 H18        4.1223    3.1233    4.1480 H         2 RES2    0.0000
     48 C21        5.9080    6.1550    2.0567 C.2       2 RES2    0.0000
     49 C22        5.6408    5.9338    6.0498 C.ar      2 RES2    0.0000
     50 H19        6.0161    6.6325    6.5354 H         2 RES2    0.0000
     51 C23        3.8068    4.4028    5.6828 C.ar      2 RES2    0.0000
     52 H20        2.9677    4.0860    5.9288 H         2 RES2    0.0000
     53 C24        4.9210    4.5823    1.0432 C.3       2 RES2    0.0000
     54 H21        4.3879    3.8183    1.3123 H         2 RES2    0.0000
     55 H22        5.0019    4.6255    0.0779 H         2 RES2    0.0000
     56 C25        4.4626    5.9199    1.6897 C.3       2 RES2    0.0000
     57 H23        4.1051    6.5633    1.0574 H         2 RES2    0.0000
     58 H24        3.8733    5.8102    2.4526 H         2 RES2    0.0000
     59 O8         6.5786    7.1290    2.2791 O.2       2 RES2    0.0000
     60 O9         7.8458    3.8112    3.2137 O.3       2 RES2    0.0000
     61 O10        7.4459    4.4514    1.0541 O.3       2 RES2    0.0000
     62 C26        8.4478    3.8797    1.9207 C.3       2 RES2    0.0000
     63 C27        8.7753    2.5021    1.4021 C.3       2 RES2    0.0000
     64 H25        9.4497    2.1037    1.9566 H         2 RES2    0.0000
     65 H26        9.0993    2.5682    0.5011 H         2 RES2    0.0000
     66 H27        7.9847    1.9577    1.4191 H         2 RES2    0.0000
     67 C28        9.6414    4.7898    2.0223 C.3       2 RES2    0.0000
     68 H28        9.3634    5.6458    2.3559 H         2 RES2    0.0000
     69 H29       10.0361    4.8979    1.1541 H         2 RES2    0.0000
     70 H30       10.2857    4.4061    2.6209 H         2 RES2    0.0000
@<TRIPOS>BOND
     1    1    3 2
     2    2    3 2
     3    3    5 1
     4    4    6 ar
     5    5   11 ar
     6    6    7 1
     7    8    9 1
     8    9    4 1
     9   10    9 1
    10   11   12 1
    11   13    5 ar
    12   14   13 1
    13   15    4 ar
    14   16   15 1
    15   17    8 1
    16   18    8 1
    17   19   18 1
    18   20   18 1
    19   21   17 1
    20   22   21 1
    21   23   21 1
    22   24   17 2
    23   25    9 1
    24   26    8 1
    25   27   25 1
    26   28   27 1
    27   29   28 1
    28   30   28 1
    29   31   28 1
    30   32   27 1
    31   33   32 1
    32   34   32 1
    33   35   32 1
    34   36   38 2
    35   37   38 2
    36   38   42 1
    37   39   40 1
    38   40   41 1
    39   42   49 ar
    40   43   40 1
    41   44   39 ar
    42   45   44 1
    43   46   39 ar
    44   47   46 1
    45   48   43 1
    46   49   44 ar
    47   50   49 1
    48   51   42 ar
    49   52   51 1
    50   53   43 1
    51   54   53 1
    52   55   53 1
    53   56   48 1
    54   57   56 1
    55   58   56 1
    56   59   48 2
    57   60   40 1
    58   61   43 1
    59   62   60 1
    60   63   62 1
    61   64   63 1
    62   65   63 1
    63   66   63 1
    64   67   62 1
    65   68   67 1
    66   69   67 1
    67   70   67 1
    68    6   13 ar
    69   11   15 ar
    70   18   21 1
    71   26   27 1
    72   46   51 ar
    73   53   56 1
    74   61   62 1
@<TRIPOS>SUBSTRUCTURE
     1 RES1 1
     2 RES2 36

@<TRIPOS>CRYSIN
   9.0874   12.3595   12.8263  78.7070  83.2730  70.4530   2 1

