# MOL2 file generated by ConQuest
# Please check atom types

@<TRIPOS>MOLECULE
ASUJII
    76    80     1
SMALL
NO_CHARGES
****
Generated from CSD

@<TRIPOS>ATOM
      1 O1        10.4679   -4.8090    3.8809 O.2       1 RES1    0.0000
      2 O2         9.6267   -5.9515    5.5047 O.2       1 RES1    0.0000
      3 O3         9.9424    0.9778    7.5128 O.2       1 RES1    0.0000
      4 O4         9.5836    2.7189   12.5158 O.2       1 RES1    0.0000
      5 O5         8.7821    9.4503   10.2971 O.2       1 RES1    0.0000
      6 O6         7.3153    9.1899   11.8716 O.2       1 RES1    0.0000
      7 O7         6.6319    4.0446    9.0304 O.2       1 RES1    0.0000
      8 O8         5.4694    4.1548   10.9419 O.3       1 RES1    0.0000
      9 N1        10.0018   -4.8963    5.0102 N.pl3     1 RES1    0.0000
     10 N2         8.1836    8.7624   11.1124 N.pl3     1 RES1    0.0000
     11 C1         9.9438   -1.3046    5.9562 C.ar      1 RES1    0.0000
     12 H1         9.9758   -0.4543    5.5324 H         1 RES1    0.0000
     13 C2        10.0065   -2.4511    5.1897 C.ar      1 RES1    0.0000
     14 H2        10.1173   -2.3996    4.2475 H         1 RES1    0.0000
     15 C3         9.9051   -3.6727    5.8234 C.ar      1 RES1    0.0000
     16 C4         9.7513   -3.7885    7.1967 C.ar      1 RES1    0.0000
     17 H3         9.6548   -4.6395    7.6074 H         1 RES1    0.0000
     18 C5         9.7433   -2.6312    7.9506 C.ar      1 RES1    0.0000
     19 H4         9.6749   -2.6897    8.8958 H         1 RES1    0.0000
     20 C6         9.8346   -1.3770    7.3434 C.ar      1 RES1    0.0000
     21 C7         9.8399   -0.0760    8.1100 C.2       1 RES1    0.0000
     22 C8         9.6865   -0.0812    9.6207 C.3       1 RES1    0.0000
     23 H5        10.0052   -0.9490   10.0030 H         1 RES1    0.0000
     24 C9         8.2025    0.1761   10.0167 C.3       1 RES1    0.0000
     25 H6         8.1251   -0.0090   10.9963 H         1 RES1    0.0000
     26 C10        8.0223    1.6903    9.8308 C.3       1 RES1    0.0000
     27 H7         7.8496    1.8486    8.8586 H         1 RES1    0.0000
     28 C11        9.4447    2.3148   10.1577 C.3       1 RES1    0.0000
     29 H8         9.7473    2.8696    9.3826 H         1 RES1    0.0000
     30 C12       10.3860    1.1051   10.3156 C.3       1 RES1    0.0000
     31 H9        10.3792    0.8861   11.2914 H         1 RES1    0.0000
     32 C13       11.8389    1.3581    9.9661 C.ar      1 RES1    0.0000
     33 C14       12.4184    2.5995   10.2273 C.ar      1 RES1    0.0000
     34 H10       11.8857    3.2946   10.5932 H         1 RES1    0.0000
     35 C15       13.7598    2.8361    9.9623 C.ar      1 RES1    0.0000
     36 H11       14.1364    3.6859   10.1540 H         1 RES1    0.0000
     37 C16       14.5516    1.8383    9.4206 C.ar      1 RES1    0.0000
     38 H12       15.4690    2.0015    9.2339 H         1 RES1    0.0000
     39 C17       13.9919    0.6018    9.1545 C.ar      1 RES1    0.0000
     40 H13       14.5271   -0.0877    8.7796 H         1 RES1    0.0000
     41 C18       12.6525    0.3600    9.4313 C.ar      1 RES1    0.0000
     42 H14       12.2858   -0.4970    9.2536 H         1 RES1    0.0000
     43 C19        9.3998    3.1817   11.4057 C.2       1 RES1    0.0000
     44 C20        9.0726    4.6422   11.2716 C.ar      1 RES1    0.0000
     45 C21        8.3807    5.2570   12.3152 C.ar      1 RES1    0.0000
     46 H15        8.1140    4.7407   13.0678 H         1 RES1    0.0000
     47 C22        8.0766    6.6057   12.2718 C.ar      1 RES1    0.0000
     48 H16        7.5905    7.0211   12.9748 H         1 RES1    0.0000
     49 C23        8.5017    7.3294   11.1761 C.ar      1 RES1    0.0000
     50 C24        9.1938    6.7609   10.1260 C.ar      1 RES1    0.0000
     51 H17        9.4801    7.2887    9.3907 H         1 RES1    0.0000
     52 C25        9.4612    5.4046   10.1676 C.ar      1 RES1    0.0000
     53 H18        9.9110    4.9881    9.4418 H         1 RES1    0.0000
     54 C26        6.8384    2.2568   10.5903 C.2       1 RES1    0.0000
     55 C27        6.2199    1.6500   11.5889 C.2       1 RES1    0.0000
     56 H19        5.4515    2.0465   11.9827 H         1 RES1    0.0000
     57 H20        6.5435    0.8164   11.9129 H         1 RES1    0.0000
     58 C28        6.3213    3.5598   10.0934 C.2       1 RES1    0.0000
     59 C29        4.9859    5.4563   10.5405 C.3       1 RES1    0.0000
     60 H21        4.3669    5.3681    9.7729 H         1 RES1    0.0000
     61 H22        5.7439    6.0315   10.2679 H         1 RES1    0.0000
     62 C30        4.2694    6.0644   11.7161 C.3       1 RES1    0.0000
     63 H23        3.5237    5.4851   11.9792 H         1 RES1    0.0000
     64 H24        3.9257    6.9469   11.4680 H         1 RES1    0.0000
     65 H25        4.8930    6.1552   12.4671 H         1 RES1    0.0000
     66 C31        7.1834   -0.6999    9.3179 C.ar      1 RES1    0.0000
     67 C32        7.0062   -2.0067    9.7525 C.ar      1 RES1    0.0000
     68 H26        7.5041   -2.3231   10.4967 H         1 RES1    0.0000
     69 C33        6.1099   -2.8608    9.1148 C.ar      1 RES1    0.0000
     70 H27        6.0090   -3.7557    9.4163 H         1 RES1    0.0000
     71 C34        5.3716   -2.4041    8.0472 C.ar      1 RES1    0.0000
     72 H28        4.7528   -2.9820    7.6155 H         1 RES1    0.0000
     73 C35        5.5311   -1.1074    7.6052 C.ar      1 RES1    0.0000
     74 H29        5.0228   -0.7939    6.8662 H         1 RES1    0.0000
     75 C36        6.4312   -0.2611    8.2354 C.ar      1 RES1    0.0000
     76 H30        6.5345    0.6297    7.9234 H         1 RES1    0.0000
@<TRIPOS>BOND
     1    1    9 2
     2    2    9 2
     3    3   21 2
     4    4   43 2
     5    5   10 2
     6    6   10 2
     7    7   58 2
     8    8   58 1
     9    9   15 1
    10   10   49 1
    11   11   12 1
    12   13   11 ar
    13   14   13 1
    14   15   13 ar
    15   16   15 ar
    16   17   16 1
    17   18   16 ar
    18   19   18 1
    19   20   11 ar
    20   21   20 1
    21   22   21 1
    22   23   22 1
    23   24   22 1
    24   25   24 1
    25   26   24 1
    26   27   26 1
    27   28   26 1
    28   29   28 1
    29   30   22 1
    30   31   30 1
    31   32   30 1
    32   33   32 ar
    33   34   33 1
    34   35   33 ar
    35   36   35 1
    36   37   35 ar
    37   38   37 1
    38   39   37 ar
    39   40   39 1
    40   41   32 ar
    41   42   41 1
    42   43   28 1
    43   44   43 1
    44   45   44 ar
    45   46   45 1
    46   47   45 ar
    47   48   47 1
    48   49   47 ar
    49   50   49 ar
    50   51   50 1
    51   52   44 ar
    52   53   52 1
    53   54   26 1
    54   55   54 2
    55   56   55 1
    56   57   55 1
    57   58   54 1
    58   59    8 1
    59   60   59 1
    60   61   59 1
    61   62   59 1
    62   63   62 1
    63   64   62 1
    64   65   62 1
    65   66   24 1
    66   67   66 ar
    67   68   67 1
    68   69   67 ar
    69   70   69 1
    70   71   69 ar
    71   72   71 1
    72   73   71 ar
    73   74   73 1
    74   75   66 ar
    75   76   75 1
    76   18   20 ar
    77   28   30 1
    78   39   41 ar
    79   50   52 ar
    80   73   75 ar
@<TRIPOS>SUBSTRUCTURE
     1 RES1 1

@<TRIPOS>CRYSIN
  11.6425   22.4890   11.6436  90.0000  93.8110  90.0000  14 1

