# MOL2 file generated by ConQuest
# Please check atom types

@<TRIPOS>MOLECULE
ASULAC
    67    72     1
SMALL
NO_CHARGES
****
Generated from CSD

@<TRIPOS>ATOM
      1 O1         2.0047    8.6736    1.2786 O.3       1 RES1    0.0000
      2 O2         3.7069    4.1544    4.4458 O.2       1 RES1    0.0000
      3 O3        -2.1024    8.5911    2.5401 O.2       1 RES1    0.0000
      4 O4        -1.2823    6.6879    3.3158 O.3       1 RES1    0.0000
      5 O5        -0.8354   10.8242    5.1878 O.2       1 RES1    0.0000
      6 O6        -2.1524    9.0786    5.5537 O.3       1 RES1    0.0000
      7 O7        -0.0256    3.9287   10.5980 O.2       1 RES1    0.0000
      8 O8        -0.2988    2.0705    9.5335 O.2       1 RES1    0.0000
      9 N1         0.0412    3.2419    9.5970 N.pl3     1 RES1    0.0000
     10 C1         1.5789    5.7191    7.2638 C.ar      1 RES1    0.0000
     11 H1         1.9288    6.5804    7.2997 H         1 RES1    0.0000
     12 C2         1.1016    5.1280    8.4225 C.ar      1 RES1    0.0000
     13 H2         1.1239    5.5895    9.2288 H         1 RES1    0.0000
     14 C3         0.5975    3.8589    8.3632 C.ar      1 RES1    0.0000
     15 C4         0.5839    3.1472    7.1933 C.ar      1 RES1    0.0000
     16 H3         0.2557    2.2769    7.1745 H         1 RES1    0.0000
     17 C5         1.0646    3.7393    6.0409 C.ar      1 RES1    0.0000
     18 H4         1.0687    3.2568    5.2454 H         1 RES1    0.0000
     19 C6         1.5432    5.0478    6.0532 C.ar      1 RES1    0.0000
     20 C7         1.9542    5.6923    4.7750 C.2       1 RES1    0.0000
     21 C8         2.9901    5.0138    3.9608 C.2       1 RES1    0.0000
     22 C9         3.1522    5.3102    2.4560 C.3       1 RES1    0.0000
     23 H5         4.1034    5.2536    2.2277 H         1 RES1    0.0000
     24 C10        2.6572    6.6889    2.1076 C.2       1 RES1    0.0000
     25 C11        1.8537    7.3686    3.0617 C.2       1 RES1    0.0000
     26 C12        1.4422    6.8760    4.3362 C.2       1 RES1    0.0000
     27 C13        0.4683    7.7703    5.0662 C.3       1 RES1    0.0000
     28 H6         0.9567    8.3040    5.7126 H         1 RES1    0.0000
     29 H7        -0.1595    7.2164    5.5561 H         1 RES1    0.0000
     30 C14       -0.3278    8.7211    4.1289 C.3       1 RES1    0.0000
     31 C15        0.5874    9.5300    3.1783 C.3       1 RES1    0.0000
     32 H8         0.0584    9.9967    2.5119 H         1 RES1    0.0000
     33 H9         1.1032   10.1821    3.6776 H         1 RES1    0.0000
     34 C16        1.4817    8.5463    2.5326 C.2       1 RES1    0.0000
     35 C17        2.7331    7.5029    1.0202 C.2       1 RES1    0.0000
     36 C18        3.3405    7.4219   -0.2986 C.ar      1 RES1    0.0000
     37 C19        4.0880    6.3043   -0.6654 C.ar      1 RES1    0.0000
     38 H10        4.2129    5.6114   -0.0578 H         1 RES1    0.0000
     39 C20        4.6438    6.2205   -1.9269 C.ar      1 RES1    0.0000
     40 H11        5.1402    5.4699   -2.1603 H         1 RES1    0.0000
     41 C21        4.4735    7.2284   -2.8363 C.ar      1 RES1    0.0000
     42 H12        4.8520    7.1646   -3.6824 H         1 RES1    0.0000
     43 C22        3.7375    8.3379   -2.4883 C.ar      1 RES1    0.0000
     44 H13        3.6204    9.0267   -3.1020 H         1 RES1    0.0000
     45 C23        3.1716    8.4306   -1.2355 C.ar      1 RES1    0.0000
     46 H14        2.6691    9.1813   -1.0139 H         1 RES1    0.0000
     47 C24        2.4146    4.1858    1.7415 C.ar      1 RES1    0.0000
     48 C25        3.0966    3.0598    1.3236 C.ar      1 RES1    0.0000
     49 H15        4.0191    3.0146    1.4330 H         1 RES1    0.0000
     50 C26        2.4284    2.0047    0.7459 C.ar      1 RES1    0.0000
     51 H16        2.9024    1.2581    0.4576 H         1 RES1    0.0000
     52 C27        1.0745    2.0516    0.5956 C.ar      1 RES1    0.0000
     53 H17        0.6225    1.3298    0.2240 H         1 RES1    0.0000
     54 C28        0.3843    3.1621    0.9934 C.ar      1 RES1    0.0000
     55 H18       -0.5382    3.1990    0.8815 H         1 RES1    0.0000
     56 C29        1.0546    4.2328    1.5649 C.ar      1 RES1    0.0000
     57 H19        0.5798    4.9874    1.8303 H         1 RES1    0.0000
     58 C30       -1.3515    7.9990    3.2467 C.2       1 RES1    0.0000
     59 C31       -2.1784    5.9723    2.4137 C.3       1 RES1    0.0000
     60 H20       -2.0618    5.0263    2.5312 H         1 RES1    0.0000
     61 H21       -1.9753    6.2096    1.5052 H         1 RES1    0.0000
     62 H22       -3.0871    6.2096    2.6107 H         1 RES1    0.0000
     63 C32       -1.1148    9.6887    5.0118 C.2       1 RES1    0.0000
     64 C33       -3.0163    9.8861    6.3973 C.3       1 RES1    0.0000
     65 H23       -3.7281    9.3418    6.7410 H         1 RES1    0.0000
     66 H24       -3.3863   10.6068    5.8812 H         1 RES1    0.0000
     67 H25       -2.5070   10.2449    7.1287 H         1 RES1    0.0000
@<TRIPOS>BOND
     1    1   34 1
     2    2   21 2
     3    3   58 2
     4    4   58 1
     5    5   63 2
     6    6   63 1
     7    7    9 2
     8    8    9 2
     9    9   14 1
    10   10   11 1
    11   12   10 ar
    12   13   12 1
    13   14   12 ar
    14   15   14 ar
    15   16   15 1
    16   17   15 ar
    17   18   17 1
    18   19   10 ar
    19   20   19 1
    20   21   20 1
    21   22   21 1
    22   23   22 1
    23   24   22 1
    24   25   24 1
    25   26   20 2
    26   27   26 1
    27   28   27 1
    28   29   27 1
    29   30   27 1
    30   31   30 1
    31   32   31 1
    32   33   31 1
    33   34   25 2
    34   35    1 1
    35   36   35 1
    36   37   36 ar
    37   38   37 1
    38   39   37 ar
    39   40   39 1
    40   41   39 ar
    41   42   41 1
    42   43   41 ar
    43   44   43 1
    44   45   36 ar
    45   46   45 1
    46   47   22 1
    47   48   47 ar
    48   49   48 1
    49   50   48 ar
    50   51   50 1
    51   52   50 ar
    52   53   52 1
    53   54   52 ar
    54   55   54 1
    55   56   47 ar
    56   57   56 1
    57   58   30 1
    58   59    4 1
    59   60   59 1
    60   61   59 1
    61   62   59 1
    62   63   30 1
    63   64    6 1
    64   65   64 1
    65   66   64 1
    66   67   64 1
    67   17   19 ar
    68   24   35 2
    69   25   26 1
    70   31   34 1
    71   43   45 ar
    72   54   56 ar
@<TRIPOS>SUBSTRUCTURE
     1 RES1 1

@<TRIPOS>CRYSIN
  11.4787    9.9688   24.0837  90.0000  90.2130  90.0000 231 1

