# MOL2 file generated by ConQuest
# Please check atom types

@<TRIPOS>MOLECULE
ATAMOZ
    51    35     2
SMALL
NO_CHARGES
****
Generated from CSD

@<TRIPOS>ATOM
      1 O1        -0.6572    0.9457    7.0658 O.3       1 RES1    0.0000
      2 O2        -0.2449    3.1671    7.2215 O.2       1 RES1    0.0000
      3 O3         0.4678   -5.1846    4.1763 O.2       1 RES1    0.0000
      4 O4         1.0339   -4.2527    2.3050 O.2       1 RES1    0.0000
      5 N1         0.6516   -4.1941    3.4700 N.pl3     1 RES1    0.0000
      6 C1        -0.6655    2.1358    7.6751 C.2       1 RES1    0.0000
      7 C2        -0.1939    1.0067    5.6971 C.3       1 RES1    0.0000
      8 H1         0.6684    1.4915    5.6569 H         1 RES1    0.0000
      9 H2        -0.8515    1.4978    5.1430 H         1 RES1    0.0000
     10 C3        -0.0186   -0.3862    5.1630 C.ar      1 RES1    0.0000
     11 C4         0.0262   -1.5151    5.9787 C.ar      1 RES1    0.0000
     12 H3        -0.0857   -1.4248    6.9174 H         1 RES1    0.0000
     13 C5         0.2339   -2.7723    5.4227 C.ar      1 RES1    0.0000
     14 H4         0.2587   -3.5479    5.9712 H         1 RES1    0.0000
     15 C6         0.4038   -2.8698    4.0527 C.ar      1 RES1    0.0000
     16 C7         0.3875   -1.7656    3.2172 C.ar      1 RES1    0.0000
     17 H5         0.5271   -1.8578    2.2819 H         1 RES1    0.0000
     18 C8         0.1617   -0.5215    3.7843 C.ar      1 RES1    0.0000
     19 H6         0.1292    0.2487    3.2291 H         1 RES1    0.0000
     20 O5        -1.3203    1.9769    8.8270 O.3       1 RES1    0.0000
     21 O6        -0.3154    5.1824    9.8339 O.2       1 RES1    0.0000
     22 C9        -1.6170    3.2077    9.5686 C.3       1 RES1    0.0000
     23 C10       -0.3156    3.9629    9.8546 C.2       1 RES1    0.0000
     24 C11        0.9095    3.1745   10.2303 C.3       1 RES1    0.0000
     25 H7         1.2512    2.7060    9.4407 H         1 RES1    0.0000
     26 H8         0.6781    2.5223   10.9233 H         1 RES1    0.0000
     27 H9         1.5981    3.7834   10.5714 H         1 RES1    0.0000
     28 C12       -2.2008    2.6914   10.8894 C.3       1 RES1    0.0000
     29 H10       -3.0250    2.1923   10.7098 H         1 RES1    0.0000
     30 H11       -2.4008    3.4497   11.4769 H         1 RES1    0.0000
     31 H12       -1.5502    2.1024   11.3256 H         1 RES1    0.0000
     32 C13       -2.6370    4.0585    8.8120 C.3       1 RES1    0.0000
     33 H13       -2.2112    4.4516    8.0214 H         1 RES1    0.0000
     34 H14       -2.9639    4.7737    9.3967 H         1 RES1    0.0000
     35 H15       -3.3886    3.4961    8.5320 H         1 RES1    0.0000
     36 O7        -1.0215    1.9609    8.9804 Du        2 SUP2    0.0000
     37 O8        -0.7108    5.4297    9.3903 Du        2 SUP2    0.0000
     38 C14       -0.8318    3.1079    9.9149 Du        2 SUP2    0.0000
     39 C15       -1.3422    4.4109    9.2808 Du        2 SUP2    0.0000
     40 C16        0.6005    3.1919   10.3118 Du        2 SUP2    0.0000
     41 H16        0.7167    3.9159   10.9630 Du        2 SUP2    0.0000
     42 H17        1.1486    3.3734    9.5201 Du        2 SUP2    0.0000
     43 H18        0.8783    2.3427   10.7141 Du        2 SUP2    0.0000
     44 C17       -1.7198    2.7677   11.1014 Du        2 SUP2    0.0000
     45 H19       -2.6354    2.6110   10.7892 Du        2 SUP2    0.0000
     46 H20       -1.7144    3.5127   11.7375 Du        2 SUP2    0.0000
     47 H21       -1.3816    1.9596   11.5401 Du        2 SUP2    0.0000
     48 C18       -2.6915    4.4197    8.6715 Du        2 SUP2    0.0000
     49 H22       -3.3681    4.4911    9.3763 Du        2 SUP2    0.0000
     50 H23       -2.8288    3.5882    8.1705 Du        2 SUP2    0.0000
     51 H24       -2.7705    5.1840    8.0643 Du        2 SUP2    0.0000
@<TRIPOS>BOND
     1    1    6 1
     2    2    6 2
     3    3    5 2
     4    4    5 2
     5    5   15 1
     6    6   20 1
     7    7    1 1
     8    8    7 1
     9    9    7 1
    10   10    7 1
    11   11   10 ar
    12   12   11 1
    13   13   11 ar
    14   14   13 1
    15   15   13 ar
    16   16   15 ar
    17   17   16 1
    18   18   10 ar
    19   19   18 1
    20   20   22 1
    21   21   23 2
    22   22   23 1
    23   23   24 1
    24   24   25 1
    25   26   24 1
    26   27   24 1
    27   28   22 1
    28   29   28 1
    29   30   28 1
    30   31   28 1
    31   32   22 1
    32   33   32 1
    33   34   32 1
    34   35   32 1
    35   16   18 ar
@<TRIPOS>SUBSTRUCTURE
     1 RES1 1
     2 SUP2 36

@<TRIPOS>CRYSIN
   6.8724    9.2326   11.7291 103.1740 105.7890 103.3750   2 1

