# MOL2 file generated by ConQuest
# Please check atom types

@<TRIPOS>MOLECULE
ATAVAT
    64    68     1
SMALL
NO_CHARGES
****
Generated from CSD

@<TRIPOS>ATOM
      1 O1         6.9601   10.1892    5.4073 O.3       1 RES1    0.0000
      2 O2         4.5754   10.3925    6.7405 O.3       1 RES1    0.0000
      3 O3         3.0438    9.3738    8.0190 O.2       1 RES1    0.0000
      4 O4         2.5440   16.5459    8.7549 O.2       1 RES1    0.0000
      5 O5         1.2863   15.6810   10.2824 O.2       1 RES1    0.0000
      6 N1         2.0823   15.5946    9.3552 N.pl3     1 RES1    0.0000
      7 C1         6.4641    9.0623    6.1265 C.3       1 RES1    0.0000
      8 H1         6.7575    9.1353    7.0794 H         1 RES1    0.0000
      9 C2         6.9984    7.7489    5.5486 C.3       1 RES1    0.0000
     10 H2         6.6756    7.6757    4.6049 H         1 RES1    0.0000
     11 C3         6.5173    6.5057    6.3069 C.3       1 RES1    0.0000
     12 H3         6.8329    6.5488    7.2445 H         1 RES1    0.0000
     13 H4         5.5275    6.4873    6.3168 H         1 RES1    0.0000
     14 C4         7.0427    5.2284    5.6509 C.3       1 RES1    0.0000
     15 H5         6.7582    4.4460    6.1851 H         1 RES1    0.0000
     16 H6         6.6508    5.1395    4.7465 H         1 RES1    0.0000
     17 C5         8.5662    5.2402    5.5433 C.3       1 RES1    0.0000
     18 H7         8.8639    4.4488    5.0295 H         1 RES1    0.0000
     19 H8         8.9586    5.1786    6.4505 H         1 RES1    0.0000
     20 C6         9.0742    6.5077    4.8570 C.3       1 RES1    0.0000
     21 H9         8.7990    6.4957    3.9062 H         1 RES1    0.0000
     22 H10       10.0633    6.5180    4.8870 H         1 RES1    0.0000
     23 C7         8.5377    7.7789    5.5184 C.3       1 RES1    0.0000
     24 H11        8.8652    7.7987    6.4632 H         1 RES1    0.0000
     25 C8         9.0223    9.0461    4.8262 C.3       1 RES1    0.0000
     26 H12        8.7908    9.0039    3.8640 H         1 RES1    0.0000
     27 H13       10.0075    9.1074    4.9017 H         1 RES1    0.0000
     28 C9         8.3876   10.2879    5.4487 C.3       1 RES1    0.0000
     29 H14        8.6821   10.3629    6.4013 H         1 RES1    0.0000
     30 C10        8.7757   11.5490    4.7147 C.ar      1 RES1    0.0000
     31 C11        9.7688   12.3795    5.2260 C.ar      1 RES1    0.0000
     32 H15       10.1721   12.1664    6.0594 H         1 RES1    0.0000
     33 C12       10.1804   13.5145    4.5387 C.ar      1 RES1    0.0000
     34 H16       10.8665   14.0651    4.8968 H         1 RES1    0.0000
     35 C13        9.5860   13.8403    3.3283 C.ar      1 RES1    0.0000
     36 H17        9.8566   14.6187    2.8548 H         1 RES1    0.0000
     37 C14        8.5967   13.0224    2.8182 C.ar      1 RES1    0.0000
     38 H18        8.1868   13.2458    1.9910 H         1 RES1    0.0000
     39 C15        8.1920   11.8790    3.4969 C.ar      1 RES1    0.0000
     40 H19        7.5160   11.3220    3.1279 H         1 RES1    0.0000
     41 C16        4.9396    9.1443    6.0755 C.3       1 RES1    0.0000
     42 H20        4.5538    8.3775    6.5871 H         1 RES1    0.0000
     43 C17        4.3530    9.1552    4.6842 C.ar      1 RES1    0.0000
     44 C18        4.3478   10.3215    3.9111 C.ar      1 RES1    0.0000
     45 H21        4.7001   11.1262    4.2708 H         1 RES1    0.0000
     46 C19        3.8342   10.3100    2.6279 C.ar      1 RES1    0.0000
     47 H22        3.8458   11.1067    2.1089 H         1 RES1    0.0000
     48 C20        3.3020    9.1451    2.0927 C.ar      1 RES1    0.0000
     49 H23        2.9509    9.1437    1.2097 H         1 RES1    0.0000
     50 C21        3.2851    7.9866    2.8515 C.ar      1 RES1    0.0000
     51 H24        2.9123    7.1891    2.4941 H         1 RES1    0.0000
     52 C22        3.8146    7.9925    4.1375 C.ar      1 RES1    0.0000
     53 H25        3.8089    7.1919    4.6502 H         1 RES1    0.0000
     54 C23        3.6021   10.3609    7.6339 C.2       1 RES1    0.0000
     55 C24        3.2552   11.7459    8.0973 C.ar      1 RES1    0.0000
     56 C25        3.7590   12.8703    7.4511 C.ar      1 RES1    0.0000
     57 H26        4.3685   12.7704    6.7296 H         1 RES1    0.0000
     58 C26        3.3710   14.1356    7.8610 C.ar      1 RES1    0.0000
     59 H27        3.6963   14.9123    7.4204 H         1 RES1    0.0000
     60 C27        2.4990   14.2387    8.9260 C.ar      1 RES1    0.0000
     61 C28        1.9890   13.1415    9.5952 C.ar      1 RES1    0.0000
     62 H28        1.3957   13.2486   10.3292 H         1 RES1    0.0000
     63 C29        2.3682   11.8823    9.1634 C.ar      1 RES1    0.0000
     64 H29        2.0228   11.1095    9.5951 H         1 RES1    0.0000
@<TRIPOS>BOND
     1    1    7 1
     2    2   41 1
     3    3   54 2
     4    4    6 2
     5    5    6 2
     6    6   60 1
     7    7    8 1
     8    9    7 1
     9   10    9 1
    10   11    9 1
    11   12   11 1
    12   13   11 1
    13   14   11 1
    14   15   14 1
    15   16   14 1
    16   17   14 1
    17   18   17 1
    18   19   17 1
    19   20   17 1
    20   21   20 1
    21   22   20 1
    22   23    9 1
    23   24   23 1
    24   25   23 1
    25   26   25 1
    26   27   25 1
    27   28    1 1
    28   29   28 1
    29   30   28 1
    30   31   30 ar
    31   32   31 1
    32   33   31 ar
    33   34   33 1
    34   35   33 ar
    35   36   35 1
    36   37   35 ar
    37   38   37 1
    38   39   30 ar
    39   40   39 1
    40   41    7 1
    41   42   41 1
    42   43   41 1
    43   44   43 ar
    44   45   44 1
    45   46   44 ar
    46   47   46 1
    47   48   46 ar
    48   49   48 1
    49   50   48 ar
    50   51   50 1
    51   52   43 ar
    52   53   52 1
    53   54    2 1
    54   55   54 1
    55   56   55 ar
    56   57   56 1
    57   58   56 ar
    58   59   58 1
    59   60   58 ar
    60   61   60 ar
    61   62   61 1
    62   63   55 ar
    63   64   63 1
    64   20   23 1
    65   25   28 1
    66   37   39 ar
    67   50   52 ar
    68   61   63 ar
@<TRIPOS>SUBSTRUCTURE
     1 RES1 1

