# MOL2 file generated by ConQuest
# Please check atom types

@<TRIPOS>MOLECULE
ATAWIC
    26    26     1
SMALL
NO_CHARGES
****
Generated from CSD

@<TRIPOS>ATOM
      1 C1         5.9939    1.4783    3.0526 C.3       1 RES1    0.0000
      2 H1         6.5716    2.2696    3.0890 H         1 RES1    0.0000
      3 N1         6.8218    0.2607    3.4755 N.pl3     1 RES1    0.0000
      4 O1         7.0053   -0.6216    2.6816 O.2       1 RES1    0.0000
      5 O2         7.2626    0.2456    4.5973 O.2       1 RES1    0.0000
      6 C2         4.8730    1.6556    4.0840 C.3       1 RES1    0.0000
      7 O3         4.1248    0.4553    4.0912 O.3       1 RES1    0.0000
      8 H2         3.4983    0.5266    4.6160 H         1 RES1    0.0000
      9 C3         5.3839    1.9180    5.5094 C.2       1 RES1    0.0000
     10 O4         4.9184    1.2645    6.4141 O.2       1 RES1    0.0000
     11 C4         6.3323    3.0423    5.7712 C.3       1 RES1    0.0000
     12 H3         5.8614    3.8771    5.7154 H         1 RES1    0.0000
     13 H4         7.0350    3.0261    5.1176 H         1 RES1    0.0000
     14 H5         6.7094    2.9456    6.6485 H         1 RES1    0.0000
     15 C5         4.0053    2.8361    3.6616 C.3       1 RES1    0.0000
     16 H6         3.2501    2.9050    4.2651 H         1 RES1    0.0000
     17 H7         4.5229    3.6529    3.7401 H         1 RES1    0.0000
     18 C6         3.4943    2.7121    2.2469 C.3       1 RES1    0.0000
     19 H8         2.9908    3.5075    2.0130 H         1 RES1    0.0000
     20 H9         2.9003    1.9487    2.1832 H         1 RES1    0.0000
     21 C7         4.6429    2.5407    1.2827 C.3       1 RES1    0.0000
     22 H10        5.1968    3.3372    1.2957 H         1 RES1    0.0000
     23 H11        4.2960    2.4300    0.3847 H         1 RES1    0.0000
     24 C8         5.4893    1.3312    1.6506 C.3       1 RES1    0.0000
     25 H12        4.9563    0.5237    1.5777 H         1 RES1    0.0000
     26 H13        6.2375    1.2564    1.0383 H         1 RES1    0.0000
@<TRIPOS>BOND
     1    1    2 1
     2    3    1 1
     3    4    3 2
     4    5    3 2
     5    6    1 1
     6    7    6 1
     7    8    7 1
     8    9    6 1
     9   10    9 2
    10   11    9 1
    11   12   11 1
    12   13   11 1
    13   14   11 1
    14   15    6 1
    15   16   15 1
    16   17   15 1
    17   18   15 1
    18   19   18 1
    19   20   18 1
    20   21   18 1
    21   22   21 1
    22   23   21 1
    23   24    1 1
    24   25   24 1
    25   26   24 1
    26   21   24 1
@<TRIPOS>SUBSTRUCTURE
     1 RES1 1

@<TRIPOS>CRYSIN
  12.3220    5.7927   13.6791  90.0000 108.1900  90.0000 231 1

