# MOL2 file generated by ConQuest
# Please check atom types

@<TRIPOS>MOLECULE
ATAWIC01
    52    52     2
SMALL
NO_CHARGES
****
Generated from CSD

@<TRIPOS>ATOM
      1 C1        -2.8486    6.2303   10.5403 C.3       1 RES1    0.0000
      2 H1        -2.2810    6.5144   11.2864 H         1 RES1    0.0000
      3 N1        -2.5680    7.1152    9.3613 N.pl3     1 RES1    0.0000
      4 O1        -3.4871    7.7214    8.8377 O.2       1 RES1    0.0000
      5 O2        -1.4089    7.1714    8.9851 O.2       1 RES1    0.0000
      6 C2        -2.4639    4.7881   10.1503 C.3       1 RES1    0.0000
      7 O3        -3.2344    4.4193    9.0363 O.3       1 RES1    0.0000
      8 H2        -3.0842    3.6349    8.8479 H         1 RES1    0.0000
      9 C3        -0.9886    4.6194    9.8135 C.2       1 RES1    0.0000
     10 O4        -0.6957    4.0338    8.8049 O.2       1 RES1    0.0000
     11 C4         0.0873    5.0331   10.7699 C.3       1 RES1    0.0000
     12 H3         0.0443    4.4837   11.5559 H         1 RES1    0.0000
     13 H4        -0.0387    5.9527   11.0149 H         1 RES1    0.0000
     14 H5         0.9452    4.9267   10.3525 H         1 RES1    0.0000
     15 C5        -2.7567    3.8488   11.3365 C.3       1 RES1    0.0000
     16 H6        -2.5773    2.9341   11.0690 H         1 RES1    0.0000
     17 H7        -2.1598    4.0670   12.0694 H         1 RES1    0.0000
     18 C6        -4.1967    3.9543   11.8182 C.3       1 RES1    0.0000
     19 H8        -4.7933    3.6244   11.1282 H         1 RES1    0.0000
     20 H9        -4.3150    3.4019   12.6073 H         1 RES1    0.0000
     21 C7        -4.5482    5.3839   12.1469 C.3       1 RES1    0.0000
     22 H10       -4.0180    5.6776   12.9043 H         1 RES1    0.0000
     23 H11       -5.4828    5.4337   12.3991 H         1 RES1    0.0000
     24 C8        -4.2988    6.3095   10.9761 C.3       1 RES1    0.0000
     25 H12       -4.5124    7.2209   11.2313 H         1 RES1    0.0000
     26 H13       -4.8746    6.0608   10.2361 H         1 RES1    0.0000
     27 C9        -0.3342    0.5483    4.7669 C.3       2 RES2    0.0000
     28 H14       -0.8876    0.2546    4.0136 H         2 RES2    0.0000
     29 N2        -0.6188   -0.3573    5.9561 N.pl3     2 RES2    0.0000
     30 O5         0.2850   -0.9805    6.4746 O.2       2 RES2    0.0000
     31 O6        -1.7705   -0.4138    6.3424 O.2       2 RES2    0.0000
     32 C10       -0.7563    1.9687    5.1548 C.3       2 RES2    0.0000
     33 O7         0.0318    2.2908    6.2792 O.3       2 RES2    0.0000
     34 H15       -0.1482    3.0506    6.5308 H         2 RES2    0.0000
     35 C11       -2.2384    2.1307    5.5294 C.2       2 RES2    0.0000
     36 O8        -2.5039    2.6927    6.5591 O.2       2 RES2    0.0000
     37 C12       -3.2771    1.7183    4.5352 C.3       2 RES2    0.0000
     38 H16       -3.9846    1.2520    4.9874 H         2 RES2    0.0000
     39 H17       -2.8812    1.1396    3.8799 H         2 RES2    0.0000
     40 H18       -3.6329    2.4969    4.1024 H         2 RES2    0.0000
     41 C13       -0.4304    2.8737    3.9677 C.3       2 RES2    0.0000
     42 H19       -0.9926    2.6294    3.2154 H         2 RES2    0.0000
     43 H20       -0.6314    3.7928    4.2024 H         2 RES2    0.0000
     44 C14        1.0313    2.7720    3.5532 C.3       2 RES2    0.0000
     45 H21        1.1998    3.3637    2.8030 H         2 RES2    0.0000
     46 H22        1.5991    3.0498    4.2892 H         2 RES2    0.0000
     47 C15        1.3646    1.3696    3.1664 C.3       2 RES2    0.0000
     48 H23        2.2932    1.3148    2.8928 H         2 RES2    0.0000
     49 H24        0.8101    1.0924    2.4202 H         2 RES2    0.0000
     50 C16        1.1223    0.4535    4.3586 C.3       2 RES2    0.0000
     51 H25        1.3390   -0.4615    4.1208 H         2 RES2    0.0000
     52 H26        1.6902    0.7184    5.0986 H         2 RES2    0.0000
@<TRIPOS>BOND
     1    1    2 1
     2    3    1 1
     3    4    3 2
     4    5    3 2
     5    6    1 1
     6    7    6 1
     7    8    7 1
     8    9    6 1
     9   10    9 2
    10   11    9 1
    11   12   11 1
    12   13   11 1
    13   14   11 1
    14   15    6 1
    15   16   15 1
    16   17   15 1
    17   18   15 1
    18   19   18 1
    19   20   18 1
    20   21   18 1
    21   22   21 1
    22   23   21 1
    23   24    1 1
    24   25   24 1
    25   26   24 1
    26   27   28 1
    27   29   27 1
    28   30   29 2
    29   31   29 2
    30   32   27 1
    31   33   32 1
    32   34   33 1
    33   35   32 1
    34   36   35 2
    35   37   35 1
    36   38   37 1
    37   39   37 1
    38   40   37 1
    39   41   32 1
    40   42   41 1
    41   43   41 1
    42   44   41 1
    43   45   44 1
    44   46   44 1
    45   47   44 1
    46   48   47 1
    47   49   47 1
    48   50   27 1
    49   51   50 1
    50   52   50 1
    51   21   24 1
    52   47   50 1
@<TRIPOS>SUBSTRUCTURE
     1 RES1 1
     2 RES2 27

@<TRIPOS>CRYSIN
   8.2630   10.8930   11.2620 101.0400 110.3400  97.6900   2 1

