# MOL2 file generated by ConQuest
# Please check atom types

@<TRIPOS>MOLECULE
ATIXOQ
    34    38     1
SMALL
NO_CHARGES
****
Generated from CSD

@<TRIPOS>ATOM
      1 N1         5.3474    7.8325   -1.5164 N.pl3     1 RES1    0.0000
      2 O1         4.2242    8.2667   -1.4637 O.2       1 RES1    0.0000
      3 O2         6.2773    8.4606   -1.9968 O.2       1 RES1    0.0000
      4 C1         8.6397    3.5821    3.4889 C.ar      1 RES1    0.0000
      5 C2         9.0729    4.7075    4.1497 C.ar      1 RES1    0.0000
      6 C3         8.7508    5.9654    3.6750 C.ar      1 RES1    0.0000
      7 C4         7.9760    6.1239    2.5209 C.ar      1 RES1    0.0000
      8 C5         7.5048    4.9689    1.8422 C.ar      1 RES1    0.0000
      9 C6         7.6272    7.4149    2.0002 C.ar      1 RES1    0.0000
     10 C7         6.8839    7.5572    0.8929 C.ar      1 RES1    0.0000
     11 C8         6.3956    6.4103    0.1712 C.ar      1 RES1    0.0000
     12 C9         6.7053    5.0994    0.6607 C.ar      1 RES1    0.0000
     13 C10        5.6280    6.4909   -0.9708 C.ar      1 RES1    0.0000
     14 C11        5.1141    5.3790   -1.6834 C.ar      1 RES1    0.0000
     15 C12        4.3472    5.5070   -2.8760 C.ar      1 RES1    0.0000
     16 C13        3.8951    4.3968   -3.5235 C.ar      1 RES1    0.0000
     17 C14        4.1802    3.1192   -3.0359 C.ar      1 RES1    0.0000
     18 C15        4.9253    2.9670   -1.8988 C.ar      1 RES1    0.0000
     19 C16        5.4235    4.0870   -1.1923 C.ar      1 RES1    0.0000
     20 C17        6.2359    3.9468   -0.0080 C.ar      1 RES1    0.0000
     21 C18        6.6054    2.6698    0.5182 C.ar      1 RES1    0.0000
     22 C19        7.3694    2.5462    1.6261 C.ar      1 RES1    0.0000
     23 C20        7.8439    3.6833    2.3305 C.ar      1 RES1    0.0000
     24 H1         8.8818    2.6590    3.7751 H         1 RES1    0.0000
     25 H2         9.6294    4.5929    4.9074 H         1 RES1    0.0000
     26 H3         9.0992    6.7953    4.1264 H         1 RES1    0.0000
     27 H4         8.0075    8.1830    2.4501 H         1 RES1    0.0000
     28 H5         6.6769    8.4606    0.5546 H         1 RES1    0.0000
     29 H6         4.1884    6.3924   -3.2241 H         1 RES1    0.0000
     30 H7         3.4126    4.5660   -4.3368 H         1 RES1    0.0000
     31 H8         3.8618    2.3009   -3.5183 H         1 RES1    0.0000
     32 H9         5.1421    2.1398   -1.5692 H         1 RES1    0.0000
     33 H10        6.2836    1.8622    0.0571 H         1 RES1    0.0000
     34 H11        7.6208    1.6205    1.9633 H         1 RES1    0.0000
@<TRIPOS>BOND
     1    1    2 2
     2    3    1 2
     3    4    5 ar
     4    5    6 ar
     5    6    7 ar
     6    7    8 ar
     7    8   12 ar
     8    9    7 ar
     9   10    9 ar
    10   11   10 ar
    11   12   11 ar
    12   13    1 1
    13   14   13 ar
    14   15   14 ar
    15   16   15 ar
    16   17   16 ar
    17   18   17 ar
    18   19   14 ar
    19   20   12 ar
    20   21   20 ar
    21   22   21 ar
    22   23    4 ar
    23   24    4 1
    24   25    5 1
    25   26    6 1
    26   27    9 1
    27   28   10 1
    28   29   15 1
    29   30   16 1
    30   31   17 1
    31   32   18 1
    32   33   21 1
    33   34   22 1
    34    8   23 ar
    35   11   13 ar
    36   18   19 ar
    37   19   20 ar
    38   22   23 ar
@<TRIPOS>SUBSTRUCTURE
     1 RES1 1

@<TRIPOS>CRYSIN
   8.3239    8.9530   18.0678  90.0000  99.2640  90.0000  14 1

