# MOL2 file generated by ConQuest
# Please check atom types

@<TRIPOS>MOLECULE
ATIYUZ
    72    72     2
SMALL
NO_CHARGES
****
Generated from CSD

@<TRIPOS>ATOM
      1 O1         0.8968    2.7569   11.8155 O.2       1 RES1    0.0000
      2 O2         1.4427    4.8530   11.8310 O.2       1 RES1    0.0000
      3 O3         2.3831    7.9043   10.4560 O.3       1 RES1    0.0000
      4 O4         0.1382    7.6957   10.4724 O.2       1 RES1    0.0000
      5 O5         1.6893    7.5239    7.5460 O.3       1 RES1    0.0000
      6 O6         2.6217    5.4898    7.3221 O.2       1 RES1    0.0000
      7 N1        -2.0680    3.5984    9.0435 N.ar      1 RES1    0.0000
      8 N2        -1.5448    2.2835   10.8192 N.pl3     1 RES1    0.0000
      9 H1        -1.0695    2.0488   11.5077 H         1 RES1    0.0000
     10 H2        -2.3742    1.9647   10.6933 H         1 RES1    0.0000
     11 N3         0.8193    3.8991   11.3534 N.pl3     1 RES1    0.0000
     12 C1        -1.2003    3.3215   10.0465 C.ar      1 RES1    0.0000
     13 C2        -0.0434    4.1326   10.2142 C.ar      1 RES1    0.0000
     14 C3         0.2513    5.1561    9.3019 C.ar      1 RES1    0.0000
     15 C4        -0.6388    5.3587    8.2598 C.ar      1 RES1    0.0000
     16 H3        -0.5016    6.0430    7.5917 H         1 RES1    0.0000
     17 C5        -1.7823    4.5740    8.1941 C.ar      1 RES1    0.0000
     18 H4        -2.4098    4.7168    7.4956 H         1 RES1    0.0000
     19 C6         1.5015    6.0170    9.3771 C.3       1 RES1    0.0000
     20 H5         2.2151    5.5273    9.8231 H         1 RES1    0.0000
     21 C7         1.2282    7.2971   10.1660 C.2       1 RES1    0.0000
     22 C8         2.2675    9.2198   11.0675 C.3       1 RES1    0.0000
     23 H6         1.6046    9.1980   11.7376 H         1 RES1    0.0000
     24 H7         2.0382    9.8207   10.3271 H         1 RES1    0.0000
     25 C9         3.5891    9.6275   11.5990 C.3       1 RES1    0.0000
     26 H8         3.5597   10.5235   11.9766 H         1 RES1    0.0000
     27 H9         4.2163    9.6355   10.9154 H         1 RES1    0.0000
     28 H10        3.8156    8.9496   12.3260 H         1 RES1    0.0000
     29 C10        2.0140    6.3035    7.9643 C.2       1 RES1    0.0000
     30 C11        2.1281    7.8517    6.1871 C.3       1 RES1    0.0000
     31 H11        3.0795    7.6261    6.1266 H         1 RES1    0.0000
     32 H12        1.6024    7.2945    5.5369 H         1 RES1    0.0000
     33 C12        1.8947    9.3163    5.9713 C.3       1 RES1    0.0000
     34 H13        2.2521    9.5494    5.0914 H         1 RES1    0.0000
     35 H14        2.4069    9.8257    6.6462 H         1 RES1    0.0000
     36 H15        0.9130    9.5346    6.0214 H         1 RES1    0.0000
     37 O7         5.7080    6.0922    5.4230 O.2       2 RES2    0.0000
     38 O8         6.6790    8.0032    5.2099 O.2       2 RES2    0.0000
     39 O9         7.5355   11.2031    3.9993 O.3       2 RES2    0.0000
     40 O10        5.3718   10.7500    4.4062 O.2       2 RES2    0.0000
     41 O11        6.5955   10.9611    1.1551 O.3       2 RES2    0.0000
     42 O12        7.7192    9.0452    0.7802 O.2       2 RES2    0.0000
     43 N4         2.9042    7.1122    2.5790 N.ar      2 RES2    0.0000
     44 N5         3.4865    5.5797    4.1384 N.pl3     2 RES2    0.0000
     45 H16        2.6523    5.3319    4.0173 H         2 RES2    0.0000
     46 H17        3.9783    5.3307    4.7953 H         2 RES2    0.0000
     47 N6         5.8531    7.1707    4.8308 N.pl3     2 RES2    0.0000
     48 C13        3.8218    6.7020    3.4980 C.ar      2 RES2    0.0000
     49 C14        5.0110    7.4665    3.6979 C.ar      2 RES2    0.0000
     50 C15        5.3269    8.5225    2.8176 C.ar      2 RES2    0.0000
     51 C16        4.4044    8.8264    1.8351 C.ar      2 RES2    0.0000
     52 H18        4.5654    9.5211    1.1962 H         2 RES2    0.0000
     53 C17        3.1994    8.1321    1.7964 C.ar      2 RES2    0.0000
     54 H19        2.5500    8.3815    1.1625 H         2 RES2    0.0000
     55 C18        6.6120    9.3360    2.8899 C.3       2 RES2    0.0000
     56 H20        7.3367    8.7918    3.2276 H         2 RES2    0.0000
     57 C19        6.4060   10.5128    3.8503 C.2       2 RES2    0.0000
     58 C20        7.4630   12.3215    4.9423 C.3       2 RES2    0.0000
     59 H21        7.5327   11.9464    5.8487 H         2 RES2    0.0000
     60 H22        6.6027   12.7387    4.8888 H         2 RES2    0.0000
     61 C21        8.6124   13.2344    4.6591 C.3       2 RES2    0.0000
     62 H23        9.4696   12.7943    4.7187 H         2 RES2    0.0000
     63 H24        8.5106   13.6521    3.7147 H         2 RES2    0.0000
     64 H25        8.6215   13.9921    5.3058 H         2 RES2    0.0000
     65 C22        7.0549    9.7540    1.4904 C.2       2 RES2    0.0000
     66 C23        6.9041   11.4226   -0.1979 C.3       2 RES2    0.0000
     67 H26        7.8345   11.1568   -0.4208 H         2 RES2    0.0000
     68 H27        6.8591   12.4095   -0.1364 H         2 RES2    0.0000
     69 C24        5.8995   10.8911   -1.1857 C.3       2 RES2    0.0000
     70 H28        5.8923    9.8821   -1.2001 H         2 RES2    0.0000
     71 H29        4.9781   11.2029   -0.9559 H         2 RES2    0.0000
     72 H30        6.1331   11.1971   -2.0742 H         2 RES2    0.0000
@<TRIPOS>BOND
     1    1   11 2
     2    2   11 2
     3    3   21 1
     4    4   21 2
     5    5   29 1
     6    6   29 2
     7    7   12 ar
     8    8    9 1
     9   10    8 1
    10   11   13 1
    11   12    8 1
    12   13   12 ar
    13   14   13 ar
    14   15   14 ar
    15   16   15 1
    16   17    7 ar
    17   18   17 1
    18   19   14 1
    19   20   19 1
    20   21   19 1
    21   22    3 1
    22   23   22 1
    23   24   22 1
    24   25   22 1
    25   26   25 1
    26   27   25 1
    27   28   25 1
    28   29   19 1
    29   30    5 1
    30   31   30 1
    31   32   30 1
    32   33   30 1
    33   34   33 1
    34   35   33 1
    35   36   33 1
    36   37   47 2
    37   38   47 2
    38   39   57 1
    39   40   57 2
    40   41   65 1
    41   42   65 2
    42   43   48 ar
    43   44   45 1
    44   46   44 1
    45   47   49 1
    46   48   44 1
    47   49   48 ar
    48   50   49 ar
    49   51   50 ar
    50   52   51 1
    51   53   43 ar
    52   54   53 1
    53   55   50 1
    54   56   55 1
    55   57   55 1
    56   58   39 1
    57   59   58 1
    58   60   58 1
    59   61   58 1
    60   62   61 1
    61   63   61 1
    62   64   61 1
    63   65   55 1
    64   66   41 1
    65   67   66 1
    66   68   66 1
    67   69   66 1
    68   70   69 1
    69   71   69 1
    70   72   69 1
    71   15   17 ar
    72   51   53 ar
@<TRIPOS>SUBSTRUCTURE
     1 RES1 1
     2 RES2 37

@<TRIPOS>CRYSIN
   7.7537   13.4411   13.9783 111.1077  94.1585  91.7057   2 1

