# MOL2 file generated by ConQuest
# Please check atom types

@<TRIPOS>MOLECULE
ATIZAG
    36    36     1
SMALL
NO_CHARGES
****
Generated from CSD

@<TRIPOS>ATOM
      1 O1         9.3826    6.0607    9.5784 O.2       1 RES1    0.0000
      2 O2         9.8356    3.9566    9.8216 O.2       1 RES1    0.0000
      3 O3        12.3691    3.1530    5.9528 O.3       1 RES1    0.0000
      4 O4        11.5681    1.0451    6.0011 O.2       1 RES1    0.0000
      5 O5        11.1424    1.0474    9.1245 O.3       1 RES1    0.0000
      6 O6         9.0367    1.1306    8.3154 O.2       1 RES1    0.0000
      7 N1         7.6710    5.3905    5.9670 N.ar      1 RES1    0.0000
      8 N2         7.6287    4.1951    4.0015 N.pl3     1 RES1    0.0000
      9 H1         7.0928    4.8060    3.7056 H         1 RES1    0.0000
     10 H2         7.9050    3.5635    3.4902 H         1 RES1    0.0000
     11 N3         9.4530    4.9134    9.1440 N.pl3     1 RES1    0.0000
     12 C1         8.1341    4.3514    5.2359 C.ar      1 RES1    0.0000
     13 C2         9.1192    3.4621    5.7377 C.ar      1 RES1    0.0000
     14 H3         9.4321    2.7657    5.1851 H         1 RES1    0.0000
     15 C3         9.5956    3.6028    7.0122 C.ar      1 RES1    0.0000
     16 C4         9.0656    4.6693    7.7701 C.ar      1 RES1    0.0000
     17 C5         8.1459    5.5341    7.2046 C.ar      1 RES1    0.0000
     18 H4         7.8453    6.2612    7.7028 H         1 RES1    0.0000
     19 C6        10.7050    2.7062    7.5295 C.3       1 RES1    0.0000
     20 H5        11.2864    3.2262    8.0760 H         1 RES1    0.0000
     21 C7        11.5878    2.1843    6.4021 C.2       1 RES1    0.0000
     22 C8        13.3465    2.8256    4.9174 C.3       1 RES1    0.0000
     23 H6        13.5122    1.8408    4.9254 H         1 RES1    0.0000
     24 H7        14.1724    3.3776    5.1594 H         1 RES1    0.0000
     25 C9        12.8204    3.2389    3.5750 C.3       1 RES1    0.0000
     26 H8        11.9810    2.7396    3.3510 H         1 RES1    0.0000
     27 H9        13.5010    3.0348    2.9077 H         1 RES1    0.0000
     28 H10       12.6301    4.2231    3.6081 H         1 RES1    0.0000
     29 C10       10.1609    1.5433    8.3523 C.2       1 RES1    0.0000
     30 C11       10.7507   -0.0022   10.0615 C.3       1 RES1    0.0000
     31 H11       10.3339   -0.7542    9.5352 H         1 RES1    0.0000
     32 H12       10.0836    0.3839   10.6806 H         1 RES1    0.0000
     33 C12       11.9946   -0.4498   10.7832 C.3       1 RES1    0.0000
     34 H13       12.3395    0.2937   11.3171 H         1 RES1    0.0000
     35 H14       12.6630   -0.7616   10.1327 H         1 RES1    0.0000
     36 H15       11.7772   -1.2320   11.3738 H         1 RES1    0.0000
@<TRIPOS>BOND
     1    1   11 2
     2    2   11 2
     3    3   21 1
     4    4   21 2
     5    5   29 1
     6    6   29 2
     7    7   12 ar
     8    8    9 1
     9   10    8 1
    10   11   16 1
    11   12    8 1
    12   13   12 ar
    13   14   13 1
    14   15   13 ar
    15   16   15 ar
    16   17    7 ar
    17   18   17 1
    18   19   15 1
    19   20   19 1
    20   21   19 1
    21   22    3 1
    22   23   22 1
    23   24   22 1
    24   25   22 1
    25   26   25 1
    26   27   25 1
    27   28   25 1
    28   29   19 1
    29   30    5 1
    30   31   30 1
    31   32   30 1
    32   33   30 1
    33   34   33 1
    34   35   33 1
    35   36   33 1
    36   16   17 ar
@<TRIPOS>SUBSTRUCTURE
     1 RES1 1

@<TRIPOS>CRYSIN
   8.8532    8.8545    9.8806  69.3170  71.2920  80.3080   2 1

