# MOL2 file generated by ConQuest
# Please check atom types

@<TRIPOS>MOLECULE
ATOJEY
    28    28     1
SMALL
NO_CHARGES
****
Generated from CSD

@<TRIPOS>ATOM
      1 O1         0.9764   10.1971    1.3100 O.2       1 RES1    0.0000
      2 O2         4.3375    4.3488    3.6500 O.3       1 RES1    0.0000
      3 H1         5.0505    4.0305    4.0340 H         1 RES1    0.0000
      4 N1         3.5152   12.3990    2.4006 N.ar      1 RES1    0.0000
      5 N2         2.9375    9.8139    2.3941 N.am      1 RES1    0.0000
      6 H2         3.6706   10.1922    2.7528 H         1 RES1    0.0000
      7 N3         2.7757    8.4509    2.4699 N.2       1 RES1    0.0000
      8 N4         4.5269    5.7306    3.6832 N.2       1 RES1    0.0000
      9 C1         2.3621   12.0516    1.8239 C.ar      1 RES1    0.0000
     10 C2         1.4944   12.9520    1.2523 C.ar      1 RES1    0.0000
     11 H3         0.6678   12.6559    0.8647 H         1 RES1    0.0000
     12 C3         1.8342   14.2908    1.2530 C.ar      1 RES1    0.0000
     13 H4         1.2565   14.9443    0.8510 H         1 RES1    0.0000
     14 C4         3.0191   14.6626    1.8304 C.ar      1 RES1    0.0000
     15 H5         3.2876   15.5834    1.8434 H         1 RES1    0.0000
     16 C5         3.8158   13.6981    2.4035 C.ar      1 RES1    0.0000
     17 H6         4.6354   13.9702    2.8228 H         1 RES1    0.0000
     18 C6         2.0163   10.5901    1.8088 C.2       1 RES1    0.0000
     19 C7         4.8850    8.4440    3.7590 C.3       1 RES1    0.0000
     20 H7         4.8451    9.3959    3.6493 H         1 RES1    0.0000
     21 H8         4.8792    8.2285    4.6944 H         1 RES1    0.0000
     22 H9         5.6903    8.1100    3.3584 H         1 RES1    0.0000
     23 C8         3.7017    7.8167    3.0913 C.2       1 RES1    0.0000
     24 C9         3.5474    6.3517    3.1289 C.2       1 RES1    0.0000
     25 C10        2.3416    5.6932    2.5529 C.3       1 RES1    0.0000
     26 H10        2.4099    4.7418    2.6669 H         1 RES1    0.0000
     27 H11        1.5550    6.0123    3.0011 H         1 RES1    0.0000
     28 H12        2.2834    5.9014    1.6175 H         1 RES1    0.0000
@<TRIPOS>BOND
     1    1   18 2
     2    2    3 1
     3    4    9 ar
     4    5    6 1
     5    7    5 1
     6    8    2 1
     7    9   10 ar
     8   10   11 1
     9   12   10 ar
    10   13   12 1
    11   14   12 ar
    12   15   14 1
    13   16    4 ar
    14   17   16 1
    15   18    5 1
    16   19   20 1
    17   21   19 1
    18   22   19 1
    19   23    7 2
    20   24    8 2
    21   25   24 1
    22   26   25 1
    23   27   25 1
    24   28   25 1
    25    9   18 1
    26   14   16 ar
    27   19   23 1
    28   23   24 1
@<TRIPOS>SUBSTRUCTURE
     1 RES1 1

@<TRIPOS>CRYSIN
   5.7138   25.7705    7.3379  90.0000 100.3846  90.0000  14 1

