# MOL2 file generated by ConQuest
# Please check atom types

@<TRIPOS>MOLECULE
ATOJEY01
    28    28     1
SMALL
NO_CHARGES
****
Generated from CSD

@<TRIPOS>ATOM
      1 O1         0.3290    2.7005    4.9119 O.2       1 RES1    0.0000
      2 O2         3.6934    8.5541    7.2509 O.3       1 RES1    0.0000
      3 N1         2.8676    0.4920    6.0103 N.ar      1 RES1    0.0000
      4 N2         2.2886    3.0675    6.0160 N.am      1 RES1    0.0000
      5 N3         2.1295    4.4459    6.0789 N.2       1 RES1    0.0000
      6 N4         3.8851    7.1605    7.2956 N.2       1 RES1    0.0000
      7 C1         3.1750   -0.8079    6.0052 C.ar      1 RES1    0.0000
      8 C2         2.3697   -1.7784    5.4441 C.ar      1 RES1    0.0000
      9 C3         1.1836   -1.3990    4.8686 C.ar      1 RES1    0.0000
     10 C4         0.8498   -0.0697    4.8657 C.ar      1 RES1    0.0000
     11 C5         1.7090    0.8389    5.4282 C.ar      1 RES1    0.0000
     12 C6         1.3746    2.3024    5.4217 C.2       1 RES1    0.0000
     13 C7         3.0618    5.0850    6.7143 C.2       1 RES1    0.0000
     14 C8         2.9008    6.5356    6.7432 C.2       1 RES1    0.0000
     15 C9         4.2523    4.4577    7.3541 C.3       1 RES1    0.0000
     16 C10        1.6830    7.2015    6.1569 C.3       1 RES1    0.0000
     17 H1         3.0921    2.5683    6.3836 H         1 RES1    0.0000
     18 H2         4.3034    8.8277    7.6762 H         1 RES1    0.0000
     19 H3         3.9464   -1.2132    6.4558 H         1 RES1    0.0000
     20 H4         2.5748   -2.7361    5.4521 H         1 RES1    0.0000
     21 H5         0.6941   -2.0908    4.4555 H         1 RES1    0.0000
     22 H6         0.0602    0.2581    4.4266 H         1 RES1    0.0000
     23 H7         4.0434    4.0783    8.1384 H         1 RES1    0.0000
     24 H8         4.6168    3.9234    6.8530 H         1 RES1    0.0000
     25 H9         4.7292    5.2140    7.8784 H         1 RES1    0.0000
     26 H10        1.4412    7.8210    6.8385 H         1 RES1    0.0000
     27 H11        1.9267    8.0792    5.6615 H         1 RES1    0.0000
     28 H12        1.3457    6.6595    5.5604 H         1 RES1    0.0000
@<TRIPOS>BOND
     1    1   12 2
     2    2    6 1
     3    3    7 ar
     4    4    5 1
     5    5   13 2
     6    6   14 2
     7    7    8 ar
     8    8    9 ar
     9    9   10 ar
    10   10   11 ar
    11   11    3 ar
    12   12    4 1
    13   13   14 1
    14   14   16 1
    15   15   13 1
    16   16   26 1
    17   17    4 1
    18   18    2 1
    19   19    7 1
    20   20    8 1
    21   21    9 1
    22   22   10 1
    23   23   15 1
    24   24   15 1
    25   25   15 1
    26   27   16 1
    27   28   16 1
    28   11   12 1
@<TRIPOS>SUBSTRUCTURE
     1 RES1 1

@<TRIPOS>CRYSIN
   5.7060   25.8120    7.3370  90.0000 100.1900  90.0000  14 1

