# MOL2 file generated by ConQuest
# Please check atom types

@<TRIPOS>MOLECULE
ATOKAX
    24    26     1
SMALL
NO_CHARGES
****
Generated from CSD

@<TRIPOS>ATOM
      1 N1         0.4116    4.4668    6.0430 N.2       1 RES1    0.0000
      2 O1         1.0372    4.0855    4.8453 O.3       1 RES1    0.0000
      3 C1         1.5845    2.8265    4.9591 C.2       1 RES1    0.0000
      4 C2         1.6387    1.2018    7.0023 C.2       1 RES1    0.0000
      5 H1         2.1334    0.4830    6.6280 H         1 RES1    0.0000
      6 C3         1.2042    1.1652    8.2639 C.2       1 RES1    0.0000
      7 H2         1.3966    0.3982    8.7897 H         1 RES1    0.0000
      8 N2         0.4820    2.2043    8.8394 N.am      1 RES1    0.0000
      9 H3         0.2393    2.1057    9.6801 H         1 RES1    0.0000
     10 C4         0.1141    3.3670    8.2173 C.2       1 RES1    0.0000
     11 O2        -0.5552    4.2443    8.7727 O.2       1 RES1    0.0000
     12 C5         2.2508    2.3285    3.7788 C.ar      1 RES1    0.0000
     13 C6         2.5306    3.1818    2.7018 C.ar      1 RES1    0.0000
     14 H4         2.2944    4.1005    2.7560 H         1 RES1    0.0000
     15 C7         3.1442    2.7019    1.5682 C.ar      1 RES1    0.0000
     16 H5         3.3055    3.2870    0.8381 H         1 RES1    0.0000
     17 C8         3.5301    1.3693    1.4799 C.ar      1 RES1    0.0000
     18 H6         3.9613    1.0412    0.6991 H         1 RES1    0.0000
     19 C9         3.2737    0.5275    2.5539 C.ar      1 RES1    0.0000
     20 H7         3.5351   -0.3846    2.5062 H         1 RES1    0.0000
     21 C10        2.6442    0.9954    3.6915 C.ar      1 RES1    0.0000
     22 H8         2.4788    0.4048    4.4180 H         1 RES1    0.0000
     23 C11        1.3265    2.3726    6.2384 C.2       1 RES1    0.0000
     24 C12        0.6082    3.4219    6.8399 C.2       1 RES1    0.0000
@<TRIPOS>BOND
     1    1    2 1
     2    2    3 1
     3    3   12 1
     4    4    5 1
     5    6    4 2
     6    7    6 1
     7    8    6 1
     8    9    8 1
     9   10    8 1
    10   11   10 2
    11   12   13 ar
    12   13   14 1
    13   15   13 ar
    14   16   15 1
    15   17   15 ar
    16   18   17 1
    17   19   17 ar
    18   20   19 1
    19   21   12 ar
    20   22   21 1
    21   23    3 2
    22   24    1 2
    23    4   23 1
    24   10   24 1
    25   19   21 ar
    26   23   24 1
@<TRIPOS>SUBSTRUCTURE
     1 RES1 1

@<TRIPOS>CRYSIN
   3.9010    6.0336   20.2341  89.2150  84.6510  82.9650   2 1

