# MOL2 file generated by ConQuest
# Please check atom types

@<TRIPOS>MOLECULE
ATOPOP
    33    34     1
SMALL
NO_CHARGES
****
Generated from CSD

@<TRIPOS>ATOM
      1 C1         3.4386    0.3586    4.4545 C.ar      1 RES1    0.0000
      2 C2         4.0845    0.0852    3.2673 C.ar      1 RES1    0.0000
      3 H1         4.4543   -0.7544    3.1149 H         1 RES1    0.0000
      4 C3         4.1750    1.0694    2.3119 C.ar      1 RES1    0.0000
      5 H2         4.6367    0.9073    1.5210 H         1 RES1    0.0000
      6 C4         3.5723    2.3183    2.5275 C.ar      1 RES1    0.0000
      7 C5         2.9451    2.5175    3.7256 C.ar      1 RES1    0.0000
      8 H3         2.5446    3.3420    3.8832 H         1 RES1    0.0000
      9 C6         2.8773    1.5629    4.7056 C.ar      1 RES1    0.0000
     10 H4         2.4587    1.7375    5.5175 H         1 RES1    0.0000
     11 C7         3.6502    3.3567    1.4981 C.2       1 RES1    0.0000
     12 H5         3.1003    4.1749    1.6871 H         1 RES1    0.0000
     13 C8         4.2975    4.2951   -0.5316 C.ar      1 RES1    0.0000
     14 C9         3.3184    4.3928   -1.4939 C.ar      1 RES1    0.0000
     15 C10        3.4691    5.3655   -2.4742 C.ar      1 RES1    0.0000
     16 H6         2.8245    5.4404   -3.1403 H         1 RES1    0.0000
     17 C11        4.5295    6.2074   -2.4856 C.ar      1 RES1    0.0000
     18 H7         4.5955    6.8681   -3.1365 H         1 RES1    0.0000
     19 C12        5.4855    6.0816   -1.5502 C.ar      1 RES1    0.0000
     20 H8         6.2206    6.6504   -1.5799 H         1 RES1    0.0000
     21 C13        5.4137    5.1369   -0.5470 C.ar      1 RES1    0.0000
     22 C14        6.4868    4.9659    0.4758 C.3       1 RES1    0.0000
     23 H9         6.2440    4.2597    1.0793 H         1 RES1    0.0000
     24 H10        6.5940    5.7838    0.9669 H         1 RES1    0.0000
     25 H11        7.3124    4.7441    0.0394 H         1 RES1    0.0000
     26 C15        2.1608    3.4542   -1.5072 C.3       1 RES1    0.0000
     27 H12        1.5829    3.6691   -2.2430 H         1 RES1    0.0000
     28 H13        1.6739    3.5348   -0.6837 H         1 RES1    0.0000
     29 H14        2.4800    2.5539   -1.6034 H         1 RES1    0.0000
     30 N1         3.3298   -0.7146    5.4660 N.pl3     1 RES1    0.0000
     31 N2         4.2583    3.2326    0.4164 N.2       1 RES1    0.0000
     32 O1         2.7173   -0.5019    6.4902 O.2       1 RES1    0.0000
     33 O2         3.8796   -1.7753    5.2301 O.2       1 RES1    0.0000
@<TRIPOS>BOND
     1    1    2 ar
     2    2    3 1
     3    4    2 ar
     4    5    4 1
     5    6    4 ar
     6    7    6 ar
     7    8    7 1
     8    9    1 ar
     9   10    9 1
    10   11    6 1
    11   12   11 1
    12   13   14 ar
    13   14   15 ar
    14   15   16 1
    15   17   15 ar
    16   18   17 1
    17   19   17 ar
    18   20   19 1
    19   21   13 ar
    20   22   21 1
    21   23   22 1
    22   24   22 1
    23   25   22 1
    24   26   14 1
    25   27   26 1
    26   28   26 1
    27   29   26 1
    28   30    1 1
    29   31   11 2
    30   32   30 2
    31   33   30 2
    32    7    9 ar
    33   13   31 1
    34   19   21 ar
@<TRIPOS>SUBSTRUCTURE
     1 RES1 1

@<TRIPOS>CRYSIN
   7.4340   27.5210    7.5000  90.0000 115.8700  90.0000  14 1

