# MOL2 file generated by ConQuest
# Please check atom types

@<TRIPOS>MOLECULE
ATOTUY
    30    32     1
SMALL
NO_CHARGES
****
Generated from CSD

@<TRIPOS>ATOM
      1 C1        11.0271    4.6941    6.2576 C.ar      1 RES1    0.0000
      2 H1        11.7783    5.0537    6.7167 H         1 RES1    0.0000
      3 C2         4.4368    1.7148    2.5044 C.2       1 RES1    0.0000
      4 H2         4.6144    2.6135    2.2519 H         1 RES1    0.0000
      5 C3         3.7021    0.8019    1.7692 C.2       1 RES1    0.0000
      6 H3         3.3191    0.9425    0.9111 H         1 RES1    0.0000
      7 C4         3.6401   -0.2504    2.4584 C.2       1 RES1    0.0000
      8 H4         3.1708   -1.0369    2.2073 H         1 RES1    0.0000
      9 O1         4.3554   -0.0962    3.6388 O.3       1 RES1    0.0000
     10 N1         5.5248    0.8500    5.7930 N.2       1 RES1    0.0000
     11 C5         6.3789    2.8954    4.7480 C.3       1 RES1    0.0000
     12 H5         6.2235    3.4721    5.5502 H         1 RES1    0.0000
     13 C6         6.7609    3.6300    3.5244 C.3       1 RES1    0.0000
     14 H6         6.4589    3.2649    2.6551 H         1 RES1    0.0000
     15 H7         6.7905    4.6188    3.5718 H         1 RES1    0.0000
     16 C7         7.7729    2.8886    4.2527 C.3       1 RES1    0.0000
     17 H8         8.0517    2.0331    3.8174 H         1 RES1    0.0000
     18 C8         8.8757    3.5887    5.0242 C.ar      1 RES1    0.0000
     19 C9        10.0916    2.9744    5.0368 C.ar      1 RES1    0.0000
     20 H9        10.1878    2.1342    4.6043 H         1 RES1    0.0000
     21 C10       11.1750    3.5332    5.6563 C.ar      1 RES1    0.0000
     22 H10       12.0170    3.0922    5.6521 H         1 RES1    0.0000
     23 C11        9.8812    5.4108    6.2688 C.ar      1 RES1    0.0000
     24 H11        9.8371    6.2732    6.6636 H         1 RES1    0.0000
     25 C12        8.7627    4.8174    5.6674 C.ar      1 RES1    0.0000
     26 H12        7.9216    5.2579    5.6981 H         1 RES1    0.0000
     27 C13        5.6051    1.5859    4.7480 C.2       1 RES1    0.0000
     28 C14        4.8495    1.1325    3.6081 C.2       1 RES1    0.0000
     29 O2         6.3407    1.2904    6.8478 O.3       1 RES1    0.0000
     30 H13        6.1154    2.0682    7.0711 H         1 RES1    0.0000
@<TRIPOS>BOND
     1    1    2 1
     2    3    4 1
     3    5    3 1
     4    6    5 1
     5    7    5 2
     6    8    7 1
     7    9    7 1
     8   10   27 2
     9   11   12 1
    10   13   11 1
    11   14   13 1
    12   15   13 1
    13   16   11 1
    14   17   16 1
    15   18   16 1
    16   19   18 ar
    17   20   19 1
    18   21    1 ar
    19   22   21 1
    20   23    1 ar
    21   24   23 1
    22   25   18 ar
    23   26   25 1
    24   27   11 1
    25   28    3 2
    26   29   10 1
    27   30   29 1
    28    9   28 1
    29   13   16 1
    30   19   21 ar
    31   23   25 ar
    32   27   28 1
@<TRIPOS>SUBSTRUCTURE
     1 RES1 1

@<TRIPOS>CRYSIN
  13.9937    6.1683   14.3233  90.0000 103.0680  90.0000 231 1

