# MOL2 file generated by ConQuest
# Please check atom types

@<TRIPOS>MOLECULE
ATUHAA
    21    21     1
SMALL
NO_CHARGES
****
Generated from CSD

@<TRIPOS>ATOM
      1 N1         3.4415    3.1523    4.2733 N.3       1 RES1    0.0000
      2 O1         5.8746    1.6790    3.9279 O.3       1 RES1    0.0000
      3 N2         1.7456    4.1297    3.0246 N.2       1 RES1    0.0000
      4 O2         0.3368    4.5028    3.1498 O.3       1 RES1    0.0000
      5 N3         1.2790    3.2883    5.1800 N.3       1 RES1    0.0000
      6 C1         3.6438    1.8302    4.9030 C.3       1 RES1    0.0000
      7 H1         3.2921    1.1354    4.3244 H         1 RES1    0.0000
      8 H2         3.1663    1.7933    5.7463 H         1 RES1    0.0000
      9 C2         4.2646    3.3003    3.0612 C.3       1 RES1    0.0000
     10 H3         4.1887    4.2063    2.7230 H         1 RES1    0.0000
     11 H4         3.9474    2.6936    2.3738 H         1 RES1    0.0000
     12 C3         2.1060    3.5484    4.1378 C.2       1 RES1    0.0000
     13 C4         5.1255    1.5951    5.1439 C.3       1 RES1    0.0000
     14 H5         5.4575    2.2559    5.7717 H         1 RES1    0.0000
     15 H6         5.2516    0.7183    5.5383 H         1 RES1    0.0000
     16 C5         5.7206    2.9934    3.3832 C.3       1 RES1    0.0000
     17 H7         6.2512    3.0695    2.5748 H         1 RES1    0.0000
     18 H8         6.0523    3.6456    4.0200 H         1 RES1    0.0000
     19 H9         0.2706    5.2627    2.7179 H         1 RES1    0.0000
     20 H10        0.4811    3.6633    5.1150 H         1 RES1    0.0000
     21 H11        1.6174    3.2275    5.9919 H         1 RES1    0.0000
@<TRIPOS>BOND
     1    1    6 1
     2    2   13 1
     3    3    4 1
     4    4   19 1
     5    5   12 1
     6    6    7 1
     7    8    6 1
     8    9    1 1
     9   10    9 1
    10   11    9 1
    11   12    1 1
    12   13    6 1
    13   14   13 1
    14   15   13 1
    15   16    2 1
    16   17   16 1
    17   18   16 1
    18   20    5 1
    19   21    5 1
    20    3   12 2
    21    9   16 1
@<TRIPOS>SUBSTRUCTURE
     1 RES1 1

@<TRIPOS>CRYSIN
  14.2173    4.7886   10.1522  90.0000  91.4590  90.0000  14 1

