# MOL2 file generated by ConQuest
# Please check atom types

@<TRIPOS>MOLECULE
ATUMAD
    43    45     1
SMALL
USER_CHARGES
****
Generated from CSD

@<TRIPOS>ATOM
      1 O1         4.2465    9.7860    0.9956 O.3       1 RES1    0.0000
      2 N1         4.1634   12.2506   -0.2997 N.2       1 RES1    0.0000
      3 C1         5.4317   11.7607    0.3098 C.3       1 RES1    0.0000
      4 H1         5.9820   11.3011   -0.3873 H         1 RES1    0.0000
      5 O2         4.6562    8.6795    2.9157 O.2       1 RES1    0.0000
      6 C2         5.1684   10.8159    1.4480 C.3       1 RES1    0.0000
      7 H2         6.0166   10.4030    1.7466 H         1 RES1    0.0000
      8 H3         4.7761   11.3071    2.2119 H         1 RES1    0.0000
      9 N2         3.6426   11.5222   -1.1584 N.1       1 RES1    1.0000
     10 N3         3.0390   10.9667   -1.9442 N.2       1 RES1   -1.0000
     11 O3        -0.5821    5.2610   -0.7257 O.2       1 RES1    0.0000
     12 C3         4.0665    8.7799    1.8796 C.2       1 RES1    0.0000
     13 O4        -0.3179    4.2280    1.1371 O.2       1 RES1    0.0000
     14 N4        -0.0431    5.1148    0.3474 N.pl3     1 RES1    0.0000
     15 C4         4.0394   15.8606    1.5861 C.ar      1 RES1    0.0000
     16 C5         3.2701   15.6482    2.7254 C.ar      1 RES1    0.0000
     17 H4         3.4122   14.8810    3.2659 H         1 RES1    0.0000
     18 C6         2.2940   16.5720    3.0610 C.ar      1 RES1    0.0000
     19 H5         1.7618   16.4282    3.8350 H         1 RES1    0.0000
     20 C7         2.0824   17.6997    2.2860 C.ar      1 RES1    0.0000
     21 H6         1.4060   18.3244    2.5206 H         1 RES1    0.0000
     22 C8         2.8617   17.9039    1.1741 C.ar      1 RES1    0.0000
     23 H7         2.7243   18.6794    0.6432 H         1 RES1    0.0000
     24 C9         3.8343   17.0065    0.8183 C.ar      1 RES1    0.0000
     25 H8         4.3691   17.1655    0.0494 H         1 RES1    0.0000
     26 C10        6.1756   12.9988    0.8132 C.3       1 RES1    0.0000
     27 H9         7.0067   12.7270    1.2987 H         1 RES1    0.0000
     28 C11        6.5160   14.0066   -0.2941 C.3       1 RES1    0.0000
     29 H10        7.4625   14.2924   -0.2357 H         1 RES1    0.0000
     30 H11        6.3516   13.6189   -1.1898 H         1 RES1    0.0000
     31 O5         5.6266   15.1131   -0.0398 O.3       1 RES1    0.0000
     32 C12        5.0127   14.8485    1.1522 C.2       1 RES1    0.0000
     33 N5         5.2708   13.7448    1.7270 N.2       1 RES1    0.0000
     34 C13        2.9949    7.8255    1.4160 C.ar      1 RES1    0.0000
     35 C14        2.6815    6.7679    2.2697 C.ar      1 RES1    0.0000
     36 H12        3.1459    6.6593    3.0908 H         1 RES1    0.0000
     37 C15        1.6845    5.8787    1.9054 C.ar      1 RES1    0.0000
     38 H13        1.4554    5.1515    2.4734 H         1 RES1    0.0000
     39 C16        1.0389    6.0592    0.7257 C.ar      1 RES1    0.0000
     40 C17        1.3241    7.0958   -0.1487 C.ar      1 RES1    0.0000
     41 H14        0.8577    7.1932   -0.9704 H         1 RES1    0.0000
     42 C18        2.3203    7.9872    0.2256 C.ar      1 RES1    0.0000
     43 H15        2.5389    8.7162   -0.3440 H         1 RES1    0.0000
@<TRIPOS>BOND
     1    1    6 1
     2    2    3 1
     3    3    4 1
     4    5   12 2
     5    6    3 1
     6    7    6 1
     7    8    6 1
     8    9    2 2
     9   10    9 2
    10   11   14 2
    11   12    1 1
    12   13   14 2
    13   14   39 1
    14   15   16 ar
    15   16   17 1
    16   18   16 ar
    17   19   18 1
    18   20   18 ar
    19   21   20 1
    20   22   20 ar
    21   23   22 1
    22   24   15 ar
    23   25   24 1
    24   26    3 1
    25   27   26 1
    26   28   26 1
    27   29   28 1
    28   30   28 1
    29   31   28 1
    30   32   15 1
    31   33   26 1
    32   34   12 1
    33   35   34 ar
    34   36   35 1
    35   37   35 ar
    36   38   37 1
    37   39   37 ar
    38   40   39 ar
    39   41   40 1
    40   42   34 ar
    41   43   42 1
    42   22   24 ar
    43   31   32 1
    44   32   33 2
    45   40   42 ar
@<TRIPOS>SUBSTRUCTURE
     1 RES1 1

@<TRIPOS>CRYSIN
   5.0702   30.3384    5.6305  90.0000  94.5890  90.0000   4 1

