# MOL2 file generated by ConQuest
# Please check atom types

@<TRIPOS>MOLECULE
ATUSEP
    70    75     1
SMALL
NO_CHARGES
****
Generated from CSD

@<TRIPOS>ATOM
      1 N1         5.1529    0.0303   13.5103 N.pl3     1 RES1    0.0000
      2 C1         8.8528    2.5847   18.1772 C.ar      1 RES1    0.0000
      3 H1         8.0227    3.0020   18.1508 H         1 RES1    0.0000
      4 N2        10.9794    2.3599   19.2429 N.ar      1 RES1    0.0000
      5 C2         6.1701    0.4007   14.4242 C.ar      1 RES1    0.0000
      6 C3         8.1513    1.1805   16.2511 C.ar      1 RES1    0.0000
      7 C4         9.7754    2.9345   19.1523 C.ar      1 RES1    0.0000
      8 C5         8.4550    0.9782   14.9073 C.ar      1 RES1    0.0000
      9 H2         9.3309    1.0866   14.6158 H         1 RES1    0.0000
     10 C6         9.4582    3.9733   20.1627 C.ar      1 RES1    0.0000
     11 C7         5.7257   -2.5065   10.2525 C.ar      1 RES1    0.0000
     12 C8         6.8352    0.9948   16.6512 C.ar      1 RES1    0.0000
     13 H3         6.6044    1.1453   17.5405 H         1 RES1    0.0000
     14 C9         5.3626   -0.8228   12.4246 C.ar      1 RES1    0.0000
     15 C10        5.8634    0.5932   15.7627 C.ar      1 RES1    0.0000
     16 H4         4.9943    0.4495   16.0623 H         1 RES1    0.0000
     17 N3         5.9410   -3.3625    9.1018 N.pl3     1 RES1    0.0000
     18 C11        9.1696    1.6134   17.2423 C.ar      1 RES1    0.0000
     19 C12        7.4791    0.6195   14.0025 C.ar      1 RES1    0.0000
     20 H5         7.6967    0.5238   13.1039 H         1 RES1    0.0000
     21 C13        2.8709   -0.3860   14.2236 C.ar      1 RES1    0.0000
     22 H6         3.1135   -1.2625   14.4157 H         1 RES1    0.0000
     23 O1         5.1650   -3.2834    8.1514 O.2       1 RES1    0.0000
     24 C14        3.8089    0.4954   13.7538 C.ar      1 RES1    0.0000
     25 O2         6.9013   -4.1306    9.1071 O.2       1 RES1    0.0000
     26 C15        4.7037   -1.5840   10.2318 C.ar      1 RES1    0.0000
     27 H7         4.1408   -1.5254    9.4935 H         1 RES1    0.0000
     28 C16        6.3619   -1.8049   12.4395 C.ar      1 RES1    0.0000
     29 H8         6.9075   -1.8958   13.1871 H         1 RES1    0.0000
     30 C17        6.5441   -2.6336   11.3581 C.ar      1 RES1    0.0000
     31 H9         7.2153   -3.2766   11.3700 H         1 RES1    0.0000
     32 C18       10.4346    1.0407   17.3158 C.ar      1 RES1    0.0000
     33 H10       10.6984    0.4046   16.6905 H         1 RES1    0.0000
     34 N4        13.0116   -0.0655   17.5512 N.ar      1 RES1    0.0000
     35 C19       11.3039    1.4296   18.3351 C.ar      1 RES1    0.0000
     36 C20        4.5216   -0.7515   11.3082 C.ar      1 RES1    0.0000
     37 H11        3.8298   -0.1309   11.2947 H         1 RES1    0.0000
     38 C21       12.6472    0.8081   18.4915 C.ar      1 RES1    0.0000
     39 N5         8.2630    4.5420   20.0822 N.ar      1 RES1    0.0000
     40 C22       -2.2617    2.3384   14.4810 C.3       1 RES1    0.0000
     41 H12       -2.8461    1.7902   13.9520 H         1 RES1    0.0000
     42 H13       -2.3815    3.2599   14.2393 H         1 RES1    0.0000
     43 H14       -2.4696    2.2212   15.4104 H         1 RES1    0.0000
     44 C23        1.2018    1.3055   14.1454 C.ar      1 RES1    0.0000
     45 C24       10.3737    4.3378   21.1325 C.ar      1 RES1    0.0000
     46 H15       11.2141    3.9381   21.1687 H         1 RES1    0.0000
     47 C25        3.4542    1.7951   13.4992 C.ar      1 RES1    0.0000
     48 H16        4.0926    2.4010   13.1970 H         1 RES1    0.0000
     49 C26       13.4686    1.1365   19.5504 C.ar      1 RES1    0.0000
     50 H17       13.1844    1.7433   20.1958 H         1 RES1    0.0000
     51 C27       -0.9129    1.9583   14.2452 C.3       1 RES1    0.0000
     52 H18       -1.1217    1.3437   13.5259 H         1 RES1    0.0000
     53 H19       -0.6737    2.7752   13.7796 H         1 RES1    0.0000
     54 C28        2.1473    2.2046   13.6924 C.ar      1 RES1    0.0000
     55 H20        1.9061    3.0850   13.5180 H         1 RES1    0.0000
     56 C29        1.5710    0.0215   14.4117 C.ar      1 RES1    0.0000
     57 H21        0.9382   -0.5853   14.7248 H         1 RES1    0.0000
     58 O3        -0.0809    1.6808   14.3463 O.3       1 RES1    0.0000
     59 C30       15.0996   -0.3215   18.6977 C.ar      1 RES1    0.0000
     60 H22       15.9427   -0.7134   18.7354 H         1 RES1    0.0000
     61 C31        8.7820    5.8876   21.9752 C.ar      1 RES1    0.0000
     62 H23        8.5190    6.5375   22.5855 H         1 RES1    0.0000
     63 C32       14.7062    0.5590   19.6410 C.ar      1 RES1    0.0000
     64 H24       15.2714    0.7710   20.3484 H         1 RES1    0.0000
     65 C33       10.0148    5.3072   22.0418 C.ar      1 RES1    0.0000
     66 H25       10.6148    5.5671   22.7044 H         1 RES1    0.0000
     67 C34       14.2287   -0.6264   17.6792 C.ar      1 RES1    0.0000
     68 H26       14.4925   -1.2537   17.0471 H         1 RES1    0.0000
     69 C35        7.9591    5.4792   20.9825 C.ar      1 RES1    0.0000
     70 H27        7.1210    5.8788   20.9250 H         1 RES1    0.0000
@<TRIPOS>BOND
     1    1    5 1
     2    2    3 1
     3    4    7 ar
     4    5   15 ar
     5    6    8 ar
     6    7    2 ar
     7    8    9 1
     8   10    7 1
     9   11   17 1
    10   12    6 ar
    11   13   12 1
    12   14    1 1
    13   15   12 ar
    14   16   15 1
    15   17   23 2
    16   18    2 ar
    17   19    5 ar
    18   20   19 1
    19   21   22 1
    20   24    1 1
    21   25   17 2
    22   26   11 ar
    23   27   26 1
    24   28   14 ar
    25   29   28 1
    26   30   11 ar
    27   31   30 1
    28   32   18 ar
    29   33   32 1
    30   34   38 ar
    31   35    4 ar
    32   36   14 ar
    33   37   36 1
    34   38   35 1
    35   39   10 ar
    36   40   41 1
    37   42   40 1
    38   43   40 1
    39   44   54 ar
    40   45   10 ar
    41   46   45 1
    42   47   24 ar
    43   48   47 1
    44   49   38 ar
    45   50   49 1
    46   51   40 1
    47   52   51 1
    48   53   51 1
    49   54   47 ar
    50   55   54 1
    51   56   21 ar
    52   57   56 1
    53   58   44 1
    54   59   60 1
    55   61   62 1
    56   63   49 ar
    57   64   63 1
    58   65   45 ar
    59   66   65 1
    60   67   34 ar
    61   68   67 1
    62   69   39 ar
    63   70   69 1
    64    6   18 1
    65    8   19 ar
    66   21   24 ar
    67   26   36 ar
    68   28   30 ar
    69   32   35 ar
    70   44   56 ar
    71   51   58 1
    72   59   63 ar
    73   59   67 ar
    74   61   65 ar
    75   61   69 ar
@<TRIPOS>SUBSTRUCTURE
     1 RES1 1

@<TRIPOS>CRYSIN
  15.0120    9.7720   20.1170  90.0000  99.9350  90.0000  14 1

