# MOL2 file generated by ConQuest
# Please check atom types

@<TRIPOS>MOLECULE
ATUSAL
    63    68     1
SMALL
NO_CHARGES
****
Generated from CSD

@<TRIPOS>ATOM
      1 N1        11.3905    0.3731   15.0417 N.pl3     1 RES1    0.0000
      2 N2        10.3799   -3.2373   19.2301 N.pl3     1 RES1    0.0000
      3 C1        10.4070    0.7436   14.0854 C.ar      1 RES1    0.0000
      4 C2        11.9460   -0.5379   17.2172 C.ar      1 RES1    0.0000
      5 H1        12.6547    0.0613   17.2798 H         1 RES1    0.0000
      6 O1        11.1732   -3.2907   20.1667 O.2       1 RES1    0.0000
      7 C3         8.1387    1.3259   13.5430 C.ar      1 RES1    0.0000
      8 H2         7.2605    1.4599   13.8173 H         1 RES1    0.0000
      9 O2         9.3690   -3.9341   19.1706 O.2       1 RES1    0.0000
     10 C4        11.1225   -0.5219   16.0812 C.ar      1 RES1    0.0000
     11 C5         8.4630    1.4693   12.1945 C.ar      1 RES1    0.0000
     12 N3         5.4931    2.4414    9.2692 N.ar      1 RES1    0.0000
     13 C6        10.6505   -2.2998   18.1516 C.ar      1 RES1    0.0000
     14 C7         7.4321    1.8204   11.1914 C.ar      1 RES1    0.0000
     15 C8        12.7521    0.8012   14.8391 C.ar      1 RES1    0.0000
     16 C9         9.8267   -2.3196   17.0386 C.ar      1 RES1    0.0000
     17 H3         9.1190   -2.9217   16.9859 H         1 RES1    0.0000
     18 C10        9.7889    1.2580   11.8238 C.ar      1 RES1    0.0000
     19 H4        10.0342    1.3636   10.9333 H         1 RES1    0.0000
     20 C11       10.0701   -1.4373   16.0133 C.ar      1 RES1    0.0000
     21 H5         9.5238   -1.4505   15.2611 H         1 RES1    0.0000
     22 C12       10.7469    0.8927   12.7469 C.ar      1 RES1    0.0000
     23 H6        11.6228    0.7465   12.4726 H         1 RES1    0.0000
     24 C13        6.7295    2.9453    9.1921 C.ar      1 RES1    0.0000
     25 C14        6.1454    1.2985   11.2700 C.ar      1 RES1    0.0000
     26 H7         5.9097    0.7333   11.9712 H         1 RES1    0.0000
     27 C15        9.0909    0.9909   14.4712 C.ar      1 RES1    0.0000
     28 H8         8.8548    0.9277   15.3694 H         1 RES1    0.0000
     29 C16       11.7144   -1.4306   18.2394 C.ar      1 RES1    0.0000
     30 H9        12.2728   -1.4457   18.9826 H         1 RES1    0.0000
     31 C17        5.2152    1.6288   10.2946 C.ar      1 RES1    0.0000
     32 C18       13.1256    2.0846   15.1507 C.ar      1 RES1    0.0000
     33 H10       12.4946    2.6924   15.4631 H         1 RES1    0.0000
     34 N4         8.2116    4.3854    7.9485 N.ar      1 RES1    0.0000
     35 C19       13.6716   -0.0840   14.3424 C.ar      1 RES1    0.0000
     36 H11       13.4118   -0.9465   14.1130 H         1 RES1    0.0000
     37 C20        7.7102    2.6697   10.1241 C.ar      1 RES1    0.0000
     38 H12        8.5545    3.0500   10.0387 H         1 RES1    0.0000
     39 C21       14.4408    2.4687   14.9977 C.ar      1 RES1    0.0000
     40 H13       14.6993    3.3341   15.2207 H         1 RES1    0.0000
     41 C22        3.8360    1.0758   10.3378 C.ar      1 RES1    0.0000
     42 N5         3.5798    0.1991   11.3176 N.ar      1 RES1    0.0000
     43 C23        7.0078    3.8409    8.0236 C.ar      1 RES1    0.0000
     44 C24        2.8803    1.4467    9.4164 C.ar      1 RES1    0.0000
     45 H14        3.0905    2.0554    8.7437 H         1 RES1    0.0000
     46 C25       15.3687    1.5807   14.5195 C.ar      1 RES1    0.0000
     47 H15       16.2564    1.8402   14.4216 H         1 RES1    0.0000
     48 C26       14.9811    0.3067   14.1844 C.ar      1 RES1    0.0000
     49 H16       15.6067   -0.2954   13.8503 H         1 RES1    0.0000
     50 C27        1.3459    0.0208   10.4704 C.ar      1 RES1    0.0000
     51 H17        0.5008   -0.3605   10.5365 H         1 RES1    0.0000
     52 C28        2.3418   -0.3143   11.3606 C.ar      1 RES1    0.0000
     53 H18        2.1441   -0.9314   12.0281 H         1 RES1    0.0000
     54 C29        1.6253    0.9182    9.4952 C.ar      1 RES1    0.0000
     55 H19        0.9683    1.1702    8.8870 H         1 RES1    0.0000
     56 C30        8.4568    5.1705    6.8879 C.ar      1 RES1    0.0000
     57 H20        9.2974    5.5641    6.8278 H         1 RES1    0.0000
     58 C31        6.0369    4.0721    7.0719 C.ar      1 RES1    0.0000
     59 H21        5.1900    3.6955    7.1548 H         1 RES1    0.0000
     60 C32        7.5718    5.4291    5.9029 C.ar      1 RES1    0.0000
     61 H22        7.7975    5.9736    5.1838 H         1 RES1    0.0000
     62 C33        6.3519    4.8733    5.9975 C.ar      1 RES1    0.0000
     63 H23        5.7180    5.0299    5.3344 H         1 RES1    0.0000
@<TRIPOS>BOND
     1    1    3 1
     2    2    6 2
     3    3   22 ar
     4    4    5 1
     5    7    8 1
     6    9    2 2
     7   10    1 1
     8   11    7 ar
     9   12   24 ar
    10   13    2 1
    11   14   11 1
    12   15    1 1
    13   16   13 ar
    14   17   16 1
    15   18   11 ar
    16   19   18 1
    17   20   10 ar
    18   21   20 1
    19   22   18 ar
    20   23   22 1
    21   24   37 ar
    22   25   14 ar
    23   26   25 1
    24   27    3 ar
    25   28   27 1
    26   29    4 ar
    27   30   29 1
    28   31   12 ar
    29   32   15 ar
    30   33   32 1
    31   34   43 ar
    32   35   15 ar
    33   36   35 1
    34   37   14 ar
    35   38   37 1
    36   39   32 ar
    37   40   39 1
    38   41   31 1
    39   42   41 ar
    40   43   24 1
    41   44   41 ar
    42   45   44 1
    43   46   39 ar
    44   47   46 1
    45   48   35 ar
    46   49   48 1
    47   50   51 1
    48   52   42 ar
    49   53   52 1
    50   54   44 ar
    51   55   54 1
    52   56   34 ar
    53   57   56 1
    54   58   43 ar
    55   59   58 1
    56   60   56 ar
    57   61   60 1
    58   62   58 ar
    59   63   62 1
    60    4   10 ar
    61    7   27 ar
    62   13   29 ar
    63   16   20 ar
    64   25   31 ar
    65   46   48 ar
    66   50   52 ar
    67   50   54 ar
    68   60   62 ar
@<TRIPOS>SUBSTRUCTURE
     1 RES1 1

@<TRIPOS>CRYSIN
  15.4070    9.4370   19.0420  90.0000 105.2770  90.0000  14 1

