# MOL2 file generated by ConQuest
# Please check atom types

@<TRIPOS>MOLECULE
ATYRAN
    42    43     1
SMALL
NO_CHARGES
****
Generated from CSD

@<TRIPOS>ATOM
      1 C1         1.8870    9.3723    0.0909 C.ar      1 RES1    0.0000
      2 C2         6.2843   13.9447   -0.1240 C.3       1 RES1    0.0000
      3 C3         2.2354   15.9189    0.6950 C.2       1 RES1    0.0000
      4 C4         2.0167   18.1443   -0.3199 C.ar      1 RES1    0.0000
      5 C5         2.6118   18.8602   -1.3600 C.ar      1 RES1    0.0000
      6 C6         2.6118   20.2481   -1.3537 C.ar      1 RES1    0.0000
      7 C7         1.9729   20.8862   -0.3062 C.ar      1 RES1    0.0000
      8 C8         1.3293   20.2062    0.7092 C.ar      1 RES1    0.0000
      9 C9         1.3512   18.8123    0.7086 C.ar      1 RES1    0.0000
     10 C10        1.1872   10.2836   -0.6839 C.ar      1 RES1    0.0000
     11 C11        1.1560   11.6156   -0.3189 C.ar      1 RES1    0.0000
     12 C12        1.8167   12.0703    0.8184 C.ar      1 RES1    0.0000
     13 C13        2.5369   11.1470    1.5633 C.ar      1 RES1    0.0000
     14 C14        2.5743    9.7990    1.2134 C.ar      1 RES1    0.0000
     15 C15        1.7152   13.5180    1.2313 C.3       1 RES1    0.0000
     16 C16        2.5431   14.4632    0.3451 C.3       1 RES1    0.0000
     17 C17        4.8160   13.9667   -0.4596 C.2       1 RES1    0.0000
     18 H1         2.3900    7.4759    0.3441 H         1 RES1    0.0000
     19 H2         6.7217   13.0434   -0.2185 H         1 RES1    0.0000
     20 H3         3.0570   18.4195   -1.9315 H         1 RES1    0.0000
     21 H4         2.9696   20.7705   -2.1285 H         1 RES1    0.0000
     22 H5         0.7904   20.7466    1.4267 H         1 RES1    0.0000
     23 H6         0.9123   18.2979    1.4666 H         1 RES1    0.0000
     24 H7         0.6342    9.8927   -1.4950 H         1 RES1    0.0000
     25 H8         4.3317   14.4692    1.3558 H         1 RES1    0.0000
     26 H9         2.1401   16.2778   -1.3537 H         1 RES1    0.0000
     27 H10        7.1310   14.4772   -0.7496 H         1 RES1    0.0000
     28 H11        0.5608   12.3255   -0.7827 H         1 RES1    0.0000
     29 H12        6.6327   14.0863    0.8757 H         1 RES1    0.0000
     30 H13        2.9118   11.4701    2.4138 H         1 RES1    0.0000
     31 H14        3.0242    9.1928    1.7965 H         1 RES1    0.0000
     32 H15        0.6983   13.8490    1.1199 H         1 RES1    0.0000
     33 H16        1.9464   13.5918    2.1732 H         1 RES1    0.0000
     34 H17        2.3885   14.2578   -0.5815 H         1 RES1    0.0000
     35 N1         3.9802   14.2817    0.5242 N.am      1 RES1    0.0000
     36 N2         2.1057   16.7405   -0.3751 N.am      1 RES1    0.0000
     37 N3         1.9979   22.3578   -0.2511 N.pl3     1 RES1    0.0000
     38 O1         1.8386    8.0641   -0.3089 O.3       1 RES1    0.0000
     39 O2         4.4114   13.6795   -1.5953 O.2       1 RES1    0.0000
     40 O3         2.1338   16.2878    1.8533 O.2       1 RES1    0.0000
     41 O4         1.5355   22.9122    0.6981 O.2       1 RES1    0.0000
     42 O5         2.4666   22.9361   -1.1972 O.2       1 RES1    0.0000
@<TRIPOS>BOND
     1    1   10 ar
     2    2   17 1
     3    3   16 1
     4    4    5 ar
     5    5    6 ar
     6    6    7 ar
     7    7    8 ar
     8    8    9 ar
     9    9    4 ar
    10   10   11 ar
    11   11   12 ar
    12   12   13 ar
    13   13   14 ar
    14   14    1 ar
    15   15   12 1
    16   16   15 1
    17   17   35 1
    18   18   38 1
    19   19    2 1
    20   20    5 1
    21   21    6 1
    22   22    8 1
    23   23    9 1
    24   24   10 1
    25   25   35 1
    26   26   36 1
    27   27    2 1
    28   28   11 1
    29   29    2 1
    30   30   13 1
    31   31   14 1
    32   32   15 1
    33   33   15 1
    34   34   16 1
    35   35   16 1
    36   36    3 1
    37   37    7 1
    38   38    1 1
    39   39   17 2
    40   40    3 2
    41   41   37 2
    42   42   37 2
    43    4   36 1
@<TRIPOS>SUBSTRUCTURE
     1 RES1 1

@<TRIPOS>CRYSIN
  15.6210   19.9410    5.2530  90.0000  90.0000  90.0000  19 1

