# MOL2 file generated by ConQuest
# Please check atom types

@<TRIPOS>MOLECULE
AVAGOT
    78    80     2
SMALL
NO_CHARGES
****
Generated from CSD

@<TRIPOS>ATOM
      1 N1         5.8761    7.9849    3.1330 N.3       1 RES1    0.0000
      2 O1         5.0863    9.0135    2.5934 O.3       1 RES1    0.0000
      3 H1         4.2647    8.4737    2.1224 H         1 RES1    0.0000
      4 C1         7.1677    7.9647    2.7101 C.2       1 RES1    0.0000
      5 N2         7.9059    7.4209    3.6848 N.3       1 RES1    0.0000
      6 H2         8.7466    7.2382    3.4933 H         1 RES1    0.0000
      7 C2         7.0632    6.8944    4.7812 C.3       1 RES1    0.0000
      8 C3         5.8401    7.8304    4.6111 C.3       1 RES1    0.0000
      9 C4         7.6358    8.4012    1.4806 C.2       1 RES1    0.0000
     10 H3         6.9687    8.7289    0.8773 H         1 RES1    0.0000
     11 O2         9.8421    7.8753    1.9498 O.2       1 RES1    0.0000
     12 C5         8.9762    8.3394    1.1508 C.2       1 RES1    0.0000
     13 C6         9.4674    8.8296   -0.1808 C.ar      1 RES1    0.0000
     14 C7         8.7098    9.6259   -1.0191 C.ar      1 RES1    0.0000
     15 H4         7.8288    9.8703   -0.8112 H         1 RES1    0.0000
     16 C8         9.2381   10.0637   -2.2318 C.ar      1 RES1    0.0000
     17 H5         8.5728   10.6089   -2.7198 H         1 RES1    0.0000
     18 C9        10.4810    9.6863   -2.6010 C.ar      1 RES1    0.0000
     19 H6        10.9054    9.9777   -3.3895 H         1 RES1    0.0000
     20 C10       11.2571    8.9061   -1.7966 C.ar      1 RES1    0.0000
     21 H7        12.2299    8.6483   -1.9809 H         1 RES1    0.0000
     22 C11       10.7417    8.4750   -0.5785 C.ar      1 RES1    0.0000
     23 H8        11.2848    7.9365    0.0031 H         1 RES1    0.0000
     24 C12        6.7459    5.4307    4.5001 C.3       1 RES1    0.0000
     25 H9         6.2039    5.3045    3.5247 H         1 RES1    0.0000
     26 H10        6.1967    5.1030    5.1944 H         1 RES1    0.0000
     27 H11        7.7047    4.9150    4.4460 H         1 RES1    0.0000
     28 C13        7.7954    7.0153    6.1046 C.3       1 RES1    0.0000
     29 H12        8.0928    7.9231    6.2414 H         1 RES1    0.0000
     30 H13        8.6526    6.4862    6.2225 H         1 RES1    0.0000
     31 H14        7.1636    6.9025    6.8105 H         1 RES1    0.0000
     32 C14        6.0272    9.1962    5.2764 C.3       1 RES1    0.0000
     33 H15        6.9397    9.5614    5.0592 H         1 RES1    0.0000
     34 H16        5.9903    9.1183    6.2666 H         1 RES1    0.0000
     35 H17        5.2853    9.7629    4.9711 H         1 RES1    0.0000
     36 C15        4.5023    7.2382    5.0258 C.3       1 RES1    0.0000
     37 H18        4.2894    6.4191    4.4806 H         1 RES1    0.0000
     38 H19        3.7890    7.8291    4.8233 H         1 RES1    0.0000
     39 H20        4.5318    7.0905    5.9867 H         1 RES1    0.0000
     40 O3         0.3676    1.6519    4.2067 O.3       2 RES2    0.0000
     41 H21       -0.4176    1.3563    4.7070 H         2 RES2    0.0000
     42 N3         1.1933    0.5237    4.0766 N.3       2 RES2    0.0000
     43 C16        2.4792    0.6876    4.5058 C.2       2 RES2    0.0000
     44 N4         3.2484   -0.1611    3.8190 N.3       2 RES2    0.0000
     45 H22        4.1203   -0.2954    4.1316 H         2 RES2    0.0000
     46 C17        2.4509   -1.0555    2.9654 C.3       2 RES2    0.0000
     47 C18        1.1873   -0.1679    2.7572 C.3       2 RES2    0.0000
     48 C19        2.8986    1.5766    5.4890 C.2       2 RES2    0.0000
     49 H23        2.2685    2.0949    5.8295 H         2 RES2    0.0000
     50 O4         5.1251    0.8914    5.4123 O.2       2 RES2    0.0000
     51 C20        4.2261    1.6813    5.8477 C.2       2 RES2    0.0000
     52 C21        4.6751    2.7744    6.7888 C.ar      2 RES2    0.0000
     53 C22        3.8778    3.8702    7.0800 C.ar      2 RES2    0.0000
     54 H24        2.9804    3.9481    6.6627 H         2 RES2    0.0000
     55 C23        4.3280    4.8653    7.9406 C.ar      2 RES2    0.0000
     56 H25        3.7081    5.5999    8.1185 H         2 RES2    0.0000
     57 C24        5.5610    4.7646    8.4993 C.ar      2 RES2    0.0000
     58 H26        5.8838    5.4790    9.0681 H         2 RES2    0.0000
     59 C25        6.3689    3.6943    8.2151 C.ar      2 RES2    0.0000
     60 H27        7.2728    3.5990    8.6028 H         2 RES2    0.0000
     61 C26        5.9254    2.7006    7.3677 C.ar      2 RES2    0.0000
     62 H28        6.5113    1.8935    7.1312 H         2 RES2    0.0000
     63 C27        2.1576   -2.3380    3.7448 C.3       2 RES2    0.0000
     64 H29        1.6074   -2.1218    4.6001 H         2 RES2    0.0000
     65 H30        3.0394   -2.7664    4.0278 H         2 RES2    0.0000
     66 H31        1.6330   -2.9678    3.2418 H         2 RES2    0.0000
     67 C28        3.2074   -1.3980    1.6963 C.3       2 RES2    0.0000
     68 H32        3.4871   -0.6446    1.2357 H         2 RES2    0.0000
     69 H33        2.5796   -1.8398    1.0533 H         2 RES2    0.0000
     70 H34        3.9091   -2.0412    1.9337 H         2 RES2    0.0000
     71 C29        1.3678    0.8648    1.6404 C.3       2 RES2    0.0000
     72 H35        2.2704    1.3698    1.7294 H         2 RES2    0.0000
     73 H36        0.5971    1.4638    1.7073 H         2 RES2    0.0000
     74 H37        1.2167    0.4163    0.8018 H         2 RES2    0.0000
     75 C30       -0.1058   -0.9373    2.5805 C.3       2 RES2    0.0000
     76 H38       -0.7966   -0.3357    2.4211 H         2 RES2    0.0000
     77 H39       -0.3092   -1.4906    3.3612 H         2 RES2    0.0000
     78 H40       -0.0731   -1.4638    1.7105 H         2 RES2    0.0000
@<TRIPOS>BOND
     1    1    2 1
     2    2    3 1
     3    4    1 1
     4    5    4 1
     5    6    5 1
     6    7    5 1
     7    8    1 1
     8    9    4 2
     9   10    9 1
    10   11   12 2
    11   12    9 1
    12   13   12 1
    13   14   13 ar
    14   15   14 1
    15   16   14 ar
    16   17   16 1
    17   18   16 ar
    18   19   18 1
    19   20   18 ar
    20   21   20 1
    21   22   13 ar
    22   23   22 1
    23   24    7 1
    24   25   24 1
    25   26   24 1
    26   27   24 1
    27   28    7 1
    28   29   28 1
    29   30   28 1
    30   31   28 1
    31   32    8 1
    32   33   32 1
    33   34   32 1
    34   35   32 1
    35   36    8 1
    36   37   36 1
    37   38   36 1
    38   39   36 1
    39   40   41 1
    40   42   40 1
    41   43   42 1
    42   44   43 1
    43   45   44 1
    44   46   44 1
    45   47   42 1
    46   48   43 2
    47   49   48 1
    48   50   51 2
    49   51   48 1
    50   52   51 1
    51   53   52 ar
    52   54   53 1
    53   55   53 ar
    54   56   55 1
    55   57   55 ar
    56   58   57 1
    57   59   57 ar
    58   60   59 1
    59   61   52 ar
    60   62   61 1
    61   63   46 1
    62   64   63 1
    63   65   63 1
    64   66   63 1
    65   67   46 1
    66   68   67 1
    67   69   67 1
    68   70   67 1
    69   71   47 1
    70   72   71 1
    71   73   71 1
    72   74   71 1
    73   75   47 1
    74   76   75 1
    75   77   75 1
    76   78   75 1
    77    7    8 1
    78   20   22 ar
    79   46   47 1
    80   59   61 ar
@<TRIPOS>SUBSTRUCTURE
     1 RES1 1
     2 RES2 40

@<TRIPOS>CRYSIN
   6.9790   13.4290   31.5320  90.0000  94.3100  90.0000 231 1

