# MOL2 file generated by ConQuest
# Please check atom types

@<TRIPOS>MOLECULE
AVAGUZ
    41    40     2
SMALL
NO_CHARGES
****
Generated from CSD

@<TRIPOS>ATOM
      1 O1         3.3384    5.1016   -3.2927 O.3       1 RES1    0.0000
      2 O2         0.8963    5.4657   -3.6112 O.2       1 RES1    0.0000
      3 O3        -1.8572    5.0111   -2.3488 O.2       1 RES1    0.0000
      4 O4        -0.8428    3.1565   -3.0929 O.3       1 RES1    0.0000
      5 O5        -0.3888    3.6591   -0.2163 O.2       1 RES1    0.0000
      6 O6         1.1459    4.6489    1.0243 O.3       1 RES1    0.0000
      7 N1         3.3040    5.9435   -2.1765 N.3       1 RES1    0.0000
      8 C1         2.4747    5.6930   -1.1552 C.2       1 RES1    0.0000
      9 N2         2.9824    6.2354   -0.0593 N.3       1 RES1    0.0000
     10 C2         4.1560    7.0831   -0.3727 C.3       1 RES1    0.0000
     11 C3         4.6072    6.4628   -1.7178 C.3       1 RES1    0.0000
     12 C4         1.2199    5.0058   -1.2889 C.2       1 RES1    0.0000
     13 C5         0.5391    4.9654   -2.5109 C.2       1 RES1    0.0000
     14 C6        -0.8583    4.3862   -2.5875 C.2       1 RES1    0.0000
     15 C7        -2.1237    2.5257   -3.2612 C.3       1 RES1    0.0000
     16 C8         0.5679    4.3846   -0.1389 C.2       1 RES1    0.0000
     17 C9         0.5386    4.0671    2.2000 C.3       1 RES1    0.0000
     18 C10        5.1657    7.0566    0.7406 C.3       1 RES1    0.0000
     19 C11        3.6292    8.5212   -0.5603 C.3       1 RES1    0.0000
     20 C12        5.5572    5.2758   -1.5526 C.3       1 RES1    0.0000
     21 C13        5.1922    7.4221   -2.7415 C.3       1 RES1    0.0000
     22 H1         5.3762    6.0496    0.8689 H         1 RES1    0.0000
     23 H2         4.5329    8.1418   -2.8341 H         1 RES1    0.0000
     24 H3         4.3563    9.1249   -0.7714 H         1 RES1    0.0000
     25 H4         2.5255    6.3937    0.6123 H         1 RES1    0.0000
     26 H5         5.2099    4.6002   -0.8445 H         1 RES1    0.0000
     27 H6         6.4314    5.6337   -1.3480 H         1 RES1    0.0000
     28 H7        -2.5608    2.3694   -2.3549 H         1 RES1    0.0000
     29 H8         2.9287    8.4947   -1.3967 H         1 RES1    0.0000
     30 H9        -1.9574    1.6510   -3.6055 H         1 RES1    0.0000
     31 H10        4.8566    7.5242    1.5754 H         1 RES1    0.0000
     32 H11        5.9163    7.6125    0.4710 H         1 RES1    0.0000
     33 H12        6.0634    7.8141   -2.3225 H         1 RES1    0.0000
     34 H13       -2.7227    3.0752   -3.8004 H         1 RES1    0.0000
     35 H14        0.4268    3.1004    2.1601 H         1 RES1    0.0000
     36 H15        3.2378    8.8980    0.2923 H         1 RES1    0.0000
     37 H16        1.0743    4.3356    2.8909 H         1 RES1    0.0000
     38 H17        5.4453    6.8689   -3.5893 H         1 RES1    0.0000
     39 H18        5.6219    4.8271   -2.3225 H         1 RES1    0.0000
     40 H19        2.0310    5.2430   -3.6705 Du        2 SUP2    0.0000
     41 H20       -0.3238    4.3608    2.3225 H         1 RES1    0.0000
@<TRIPOS>BOND
     1    1    7 1
     2    2   13 2
     3    3   14 2
     4    4   14 1
     5    5   16 2
     6    6   16 1
     7    7    8 1
     8    8    9 1
     9    9   10 1
    10   10   11 1
    11   11    7 1
    12   12    8 2
    13   13   12 1
    14   14   13 1
    15   15    4 1
    16   16   12 1
    17   17    6 1
    18   18   10 1
    19   19   10 1
    20   20   11 1
    21   21   11 1
    22   22   18 1
    23   23   21 1
    24   24   19 1
    25   25    9 1
    26   26   20 1
    27   27   20 1
    28   28   15 1
    29   29   19 1
    30   30   15 1
    31   31   18 1
    32   32   18 1
    33   33   21 1
    34   34   15 1
    35   35   17 1
    36   36   19 1
    37   37   17 1
    38   38   21 1
    39   39   20 1
    40   41   17 1
@<TRIPOS>SUBSTRUCTURE
     1 RES1 1
     2 SUP2 40

@<TRIPOS>CRYSIN
  14.7171   12.6034   16.2410  90.0000  90.0000  90.0000  61 1

