# MOL2 file generated by ConQuest
# Please check atom types

@<TRIPOS>MOLECULE
AVAHEK
   166   170     2
SMALL
NO_CHARGES
****
Generated from CSD

@<TRIPOS>ATOM
      1 O1        -0.7672    6.9714    7.5009 O.2       1 RES1    0.0000
      2 N1        -1.9372    6.7963    7.0675 N.pl3     1 RES1    0.0000
      3 C1        -3.0899    6.4628    7.9366 C.3       1 RES1    0.0000
      4 C2        -2.7981    5.1033    8.5518 C.3       1 RES1    0.0000
      5 H1        -2.0591    5.1672    9.0778 H         1 RES1    0.0000
      6 H2        -2.7407    4.3894    7.8566 H         1 RES1    0.0000
      7 H3        -3.5650    4.8440    9.0418 H         1 RES1    0.0000
      8 C3        -3.2039    7.5226    9.0165 C.3       1 RES1    0.0000
      9 H4        -2.5139    7.4842    9.5353 H         1 RES1    0.0000
     10 H5        -3.9916    7.3948    9.5461 H         1 RES1    0.0000
     11 H6        -3.2849    8.5195    8.6005 H         1 RES1    0.0000
     12 C4        -4.2321    6.4596    6.8683 C.3       1 RES1    0.0000
     13 C5        -5.1646    5.2676    6.9236 C.3       1 RES1    0.0000
     14 H7        -5.7483    5.2768    6.2320 H         1 RES1    0.0000
     15 H8        -5.5124    5.0942    7.8710 H         1 RES1    0.0000
     16 H9        -4.5613    4.3857    6.8281 H         1 RES1    0.0000
     17 C6        -5.0581    7.7435    6.8696 C.3       1 RES1    0.0000
     18 H10       -5.6241    7.6979    6.0771 H         1 RES1    0.0000
     19 H11       -4.3974    8.5067    6.8624 H         1 RES1    0.0000
     20 H12       -5.5809    7.7472    7.7107 H         1 RES1    0.0000
     21 N2        -3.5228    6.4503    5.5491 N.2       1 RES1    0.0000
     22 C7        -2.2943    6.6909    5.7370 C.2       1 RES1    0.0000
     23 C8        -1.2507    6.8399    4.6799 C.3       1 RES1    0.0000
     24 H13       -0.3956    6.9894    5.1459 H         1 RES1    0.0000
     25 C9        -1.4932    8.1065    3.8202 C.3       1 RES1    0.0000
     26 O2        -1.7801    9.0527    4.8101 O.3       1 RES1    0.0000
     27 H14       -2.1441    9.7301    4.5245 H         1 RES1    0.0000
     28 C10       -2.6591    7.9031    2.9555 C.1       1 RES1    0.0000
     29 N3        -3.5433    7.8288    2.2430 N.1       1 RES1    0.0000
     30 C11       -0.2691    8.5491    2.9346 C.3       1 RES1    0.0000
     31 C12        0.0058    7.5372    1.8318 C.3       1 RES1    0.0000
     32 H15        0.3688    6.7356    2.2172 H         1 RES1    0.0000
     33 H16        0.6354    7.9060    1.2086 H         1 RES1    0.0000
     34 H17       -0.8130    7.3309    1.3761 H         1 RES1    0.0000
     35 C13        0.9360    8.7697    3.8545 C.3       1 RES1    0.0000
     36 H18        1.3063    7.9206    4.1066 H         1 RES1    0.0000
     37 H19        0.6565    9.2444    4.6416 H         1 RES1    0.0000
     38 H20        1.6028    9.2845    3.3916 H         1 RES1    0.0000
     39 C14       -0.6175    9.8794    2.2640 C.3       1 RES1    0.0000
     40 H21        0.0727   10.1153    1.6408 H         1 RES1    0.0000
     41 H22       -0.6920   10.5645    2.9323 H         1 RES1    0.0000
     42 H23       -1.4531    9.7940    1.7993 H         1 RES1    0.0000
     43 O3        -1.2161    5.6785    3.8305 O.3       1 RES1    0.0000
     44 N4        -1.0456    4.5289    4.6691 N.3       1 RES1    0.0000
     45 C15        0.2987    3.8853    4.6151 C.3       1 RES1    0.0000
     46 C16        0.7674    3.7686    3.1693 C.3       1 RES1    0.0000
     47 H24        0.8683    4.6468    2.7936 H         1 RES1    0.0000
     48 H25        0.1181    3.2756    2.6621 H         1 RES1    0.0000
     49 H26        1.6098    3.3103    3.1430 H         1 RES1    0.0000
     50 C17        1.3157    4.6556    5.4305 C.3       1 RES1    0.0000
     51 H27        1.5066    5.4904    4.9964 H         1 RES1    0.0000
     52 H28        2.1231    4.1411    5.5025 H         1 RES1    0.0000
     53 H29        0.9622    4.8239    6.3076 H         1 RES1    0.0000
     54 C18       -0.1354    2.5055    5.2082 C.3       1 RES1    0.0000
     55 C19        0.7201    1.3327    4.7514 C.3       1 RES1    0.0000
     56 H30        0.3962    0.5240    5.1531 H         1 RES1    0.0000
     57 H31        1.6311    1.4790    5.0162 H         1 RES1    0.0000
     58 H32        0.6739    1.2562    3.7950 H         1 RES1    0.0000
     59 C20       -0.2200    2.5160    6.7278 C.3       1 RES1    0.0000
     60 H33       -0.6781    1.7273    7.0281 H         1 RES1    0.0000
     61 H34       -0.6999    3.2939    7.0173 H         1 RES1    0.0000
     62 H35        0.6652    2.5307    7.0983 H         1 RES1    0.0000
     63 N5        -1.5395    2.3393    4.6976 N.2       1 RES1    0.0000
     64 C21       -1.9432    3.5022    4.3851 C.2       1 RES1    0.0000
     65 C22       -3.2663    3.8044    3.8006 C.3       1 RES1    0.0000
     66 H36       -3.6224    4.6249    4.0292 H         1 RES1    0.0000
     67 O4        -4.1700    2.7089    3.7732 O.3       1 RES1    0.0000
     68 C23       -3.6876    3.2008    2.5274 C.3       1 RES1    0.0000
     69 C24       -2.7130    2.3187    1.8874 C.1       1 RES1    0.0000
     70 N6        -1.9517    1.6906    1.3238 N.1       1 RES1    0.0000
     71 C25       -4.7009    3.7987    1.5674 C.3       1 RES1    0.0000
     72 C26       -5.6220    4.7619    2.2873 C.3       1 RES1    0.0000
     73 H37       -5.1312    5.5506    2.5324 H         1 RES1    0.0000
     74 H38       -5.9704    4.3437    3.0782 H         1 RES1    0.0000
     75 H39       -6.3488    5.0047    1.7075 H         1 RES1    0.0000
     76 C27       -3.9620    4.5377    0.4606 C.3       1 RES1    0.0000
     77 H40       -3.3710    3.9293    0.0090 H         1 RES1    0.0000
     78 H41       -3.4532    5.2567    0.8411 H         1 RES1    0.0000
     79 H42       -4.5970    4.8915   -0.1657 H         1 RES1    0.0000
     80 C28       -5.5035    2.6238    0.9852 C.3       1 RES1    0.0000
     81 H43       -4.8988    1.9665    0.6340 H         1 RES1    0.0000
     82 H44       -6.0724    2.9433    0.2810 H         1 RES1    0.0000
     83 H45       -6.0386    2.2294    1.6751 H         1 RES1    0.0000
     84 O5       -10.2759    9.7403    1.7044 O.2       2 RES2    0.0000
     85 N7       -11.4773    9.4523    1.9587 N.pl3     2 RES2    0.0000
     86 C29      -12.4674    9.0039    0.9443 C.3       2 RES2    0.0000
     87 C30      -12.4365    9.9346   -0.2469 C.3       2 RES2    0.0000
     88 H46      -12.6571   10.8238    0.0360 H         2 RES2    0.0000
     89 H47      -13.0734    9.6388   -0.9006 H         2 RES2    0.0000
     90 H48      -11.5582    9.9309   -0.6322 H         2 RES2    0.0000
     91 C31      -11.9942    7.6144    0.5169 C.3       2 RES2    0.0000
     92 H49      -11.1179    7.6796    0.1279 H         2 RES2    0.0000
     93 H50      -12.6055    7.2524   -0.1297 H         2 RES2    0.0000
     94 H51      -11.9623    7.0369    1.2842 H         2 RES2    0.0000
     95 C32      -13.7346    9.0008    1.8292 C.3       2 RES2    0.0000
     96 C33      -14.6674    7.8421    1.6228 C.3       2 RES2    0.0000
     97 H52      -14.1889    7.0205    1.7543 H         2 RES2    0.0000
     98 H53      -15.0184    7.8695    0.7295 H         2 RES2    0.0000
     99 H54      -15.3907    7.8969    2.2532 H         2 RES2    0.0000
    100 C34      -14.5254   10.3125    1.7024 C.3       2 RES2    0.0000
    101 H55      -15.1727   10.3636    2.4081 H         2 RES2    0.0000
    102 H56      -14.9721   10.3344    0.8537 H         2 RES2    0.0000
    103 H57      -13.9219   11.0556    1.7669 H         2 RES2    0.0000
    104 N8       -13.2381    8.9851    3.2309 N.2       2 RES2    0.0000
    105 C35      -12.0100    9.3023    3.2286 C.2       2 RES2    0.0000
    106 C36      -11.1280    9.4936    4.4296 C.3       2 RES2    0.0000
    107 H58      -10.1968    9.6424    4.0742 H         2 RES2    0.0000
    108 C37      -11.5393   10.7405    5.2431 C.3       2 RES2    0.0000
    109 O6       -11.5643   11.7128    4.2284 O.3       2 RES2    0.0000
    110 H59      -12.0083   12.4798    4.4236 H         2 RES2    0.0000
    111 C38      -12.9019   10.5577    5.7936 C.1       2 RES2    0.0000
    112 N9       -13.9431   10.4891    6.2595 N.1       2 RES2    0.0000
    113 C39      -10.5817   11.1360    6.4106 C.3       2 RES2    0.0000
    114 C40      -10.9515   12.5340    6.9033 C.3       2 RES2    0.0000
    115 H60      -10.3959   12.7665    7.6513 H         2 RES2    0.0000
    116 H61      -11.8730   12.5456    7.1722 H         2 RES2    0.0000
    117 H62      -10.8160   13.1682    6.1959 H         2 RES2    0.0000
    118 C41      -10.7085   10.1725    7.6062 C.3       2 RES2    0.0000
    119 H63      -10.0685   10.4111    8.2799 H         2 RES2    0.0000
    120 H64      -10.5449    9.2736    7.3127 H         2 RES2    0.0000
    121 H65      -11.5941   10.2322    7.9719 H         2 RES2    0.0000
    122 C42       -9.1599   11.1670    5.9040 C.3       2 RES2    0.0000
    123 H66       -8.5933   11.5687    6.5652 H         2 RES2    0.0000
    124 H67       -9.1202   11.6801    5.0936 H         2 RES2    0.0000
    125 H68       -8.8630   10.2705    5.7294 H         2 RES2    0.0000
    126 O7       -11.1569    8.3400    5.2826 O.3       2 RES2    0.0000
    127 N10      -10.8339    7.1894    4.4901 N.3       2 RES2    0.0000
    128 C43       -9.4647    6.6149    4.7073 C.3       2 RES2    0.0000
    129 C44       -9.1444    6.6184    6.1983 C.3       2 RES2    0.0000
    130 H69       -9.0694    7.5244    6.5075 H         2 RES2    0.0000
    131 H70       -8.3158    6.1587    6.3490 H         2 RES2    0.0000
    132 H71       -9.8462    6.1733    6.6768 H         2 RES2    0.0000
    133 C45       -8.4112    7.3818    3.9350 C.3       2 RES2    0.0000
    134 H72       -8.2472    8.2237    4.3678 H         2 RES2    0.0000
    135 H73       -8.7206    7.5372    3.0403 H         2 RES2    0.0000
    136 H74       -7.5980    6.8707    3.9085 H         2 RES2    0.0000
    137 C46       -9.7685    5.1783    4.1679 C.3       2 RES2    0.0000
    138 C47       -9.6475    5.0816    2.6498 C.3       2 RES2    0.0000
    139 H75      -10.0119    4.2451    2.3523 H         2 RES2    0.0000
    140 H76       -8.7228    5.1362    2.3991 H         2 RES2    0.0000
    141 H77      -10.1332    5.8044    2.2442 H         2 RES2    0.0000
    142 C48       -8.9443    4.0664    4.8139 C.3       2 RES2    0.0000
    143 H78       -9.1634    3.2263    4.4038 H         2 RES2    0.0000
    144 H79       -9.1411    4.0260    5.7529 H         2 RES2    0.0000
    145 H80       -8.0095    4.2488    4.6902 H         2 RES2    0.0000
    146 N11      -11.2095    4.9700    4.5149 N.2       2 RES2    0.0000
    147 C49      -11.7126    6.1252    4.7185 C.2       2 RES2    0.0000
    148 C50      -13.0927    6.3995    5.1522 C.3       2 RES2    0.0000
    149 H81      -13.4555    7.2031    4.8613 H         2 RES2    0.0000
    150 O8       -13.9941    5.2843    5.1190 O.3       2 RES2    0.0000
    151 C51      -13.6330    5.8119    6.4016 C.3       2 RES2    0.0000
    152 C52      -12.7273    4.9246    7.1324 C.1       2 RES2    0.0000
    153 N12      -12.0483    4.2661    7.7583 N.1       2 RES2    0.0000
    154 C53      -14.7028    6.4435    7.2597 C.3       2 RES2    0.0000
    155 C54      -14.0058    7.3108    8.3177 C.3       2 RES2    0.0000
    156 H82      -13.5755    6.7448    8.9625 H         2 RES2    0.0000
    157 H83      -14.6583    7.8604    8.7608 H         2 RES2    0.0000
    158 H84      -13.3511    7.8695    7.8926 H         2 RES2    0.0000
    159 C55      -15.6286    7.3048    6.4159 C.3       2 RES2    0.0000
    160 H85      -15.9428    6.7959    5.6646 H         2 RES2    0.0000
    161 H86      -15.1497    8.0758    6.1023 H         2 RES2    0.0000
    162 H87      -16.3763    7.5865    6.9470 H         2 RES2    0.0000
    163 C56      -15.5027    5.3206    7.9286 C.3       2 RES2    0.0000
    164 H88      -15.7996    4.6980    7.2604 H         2 RES2    0.0000
    165 H89      -16.2636    5.6949    8.3771 H         2 RES2    0.0000
    166 H90      -14.9464    4.8659    8.5644 H         2 RES2    0.0000
@<TRIPOS>BOND
     1    1    2 1
     2    2    3 1
     3    3    4 1
     4    4    5 1
     5    6    4 1
     6    7    4 1
     7    8    3 1
     8    9    8 1
     9   10    8 1
    10   11    8 1
    11   12    3 1
    12   13   12 1
    13   14   13 1
    14   15   13 1
    15   16   13 1
    16   17   12 1
    17   18   17 1
    18   19   17 1
    19   20   17 1
    20   21   12 1
    21   22    2 1
    22   23   22 1
    23   24   23 1
    24   25   23 1
    25   26   25 1
    26   27   26 1
    27   28   25 1
    28   29   28 3
    29   30   25 1
    30   31   30 1
    31   32   31 1
    32   33   31 1
    33   34   31 1
    34   35   30 1
    35   36   35 1
    36   37   35 1
    37   38   35 1
    38   39   30 1
    39   40   39 1
    40   41   39 1
    41   42   39 1
    42   43   23 1
    43   44   43 1
    44   45   44 1
    45   46   45 1
    46   47   46 1
    47   48   46 1
    48   49   46 1
    49   50   45 1
    50   51   50 1
    51   52   50 1
    52   53   50 1
    53   54   45 1
    54   55   54 1
    55   56   55 1
    56   57   55 1
    57   58   55 1
    58   59   54 1
    59   60   59 1
    60   61   59 1
    61   62   59 1
    62   63   54 1
    63   64   44 1
    64   65   64 1
    65   66   65 1
    66   67   65 1
    67   68   65 1
    68   69   68 1
    69   70   69 3
    70   71   68 1
    71   72   71 1
    72   73   72 1
    73   74   72 1
    74   75   72 1
    75   76   71 1
    76   77   76 1
    77   78   76 1
    78   79   76 1
    79   80   71 1
    80   81   80 1
    81   82   80 1
    82   83   80 1
    83   84   85 1
    84   85   86 1
    85   86   87 1
    86   87   88 1
    87   89   87 1
    88   90   87 1
    89   91   86 1
    90   92   91 1
    91   93   91 1
    92   94   91 1
    93   95   86 1
    94   96   95 1
    95   97   96 1
    96   98   96 1
    97   99   96 1
    98  100   95 1
    99  101  100 1
   100  102  100 1
   101  103  100 1
   102  104   95 1
   103  105   85 1
   104  106  105 1
   105  107  106 1
   106  108  106 1
   107  109  108 1
   108  110  109 1
   109  111  108 1
   110  112  111 3
   111  113  108 1
   112  114  113 1
   113  115  114 1
   114  116  114 1
   115  117  114 1
   116  118  113 1
   117  119  118 1
   118  120  118 1
   119  121  118 1
   120  122  113 1
   121  123  122 1
   122  124  122 1
   123  125  122 1
   124  126  106 1
   125  127  126 1
   126  128  127 1
   127  129  128 1
   128  130  129 1
   129  131  129 1
   130  132  129 1
   131  133  128 1
   132  134  133 1
   133  135  133 1
   134  136  133 1
   135  137  128 1
   136  138  137 1
   137  139  138 1
   138  140  138 1
   139  141  138 1
   140  142  137 1
   141  143  142 1
   142  144  142 1
   143  145  142 1
   144  146  137 1
   145  147  127 1
   146  148  147 1
   147  149  148 1
   148  150  148 1
   149  151  148 1
   150  152  151 1
   151  153  152 3
   152  154  151 1
   153  155  154 1
   154  156  155 1
   155  157  155 1
   156  158  155 1
   157  159  154 1
   158  160  159 1
   159  161  159 1
   160  162  159 1
   161  163  154 1
   162  164  163 1
   163  165  163 1
   164  166  163 1
   165   21   22 2
   166   63   64 2
   167   67   68 1
   168  104  105 2
   169  146  147 2
   170  150  151 1
@<TRIPOS>SUBSTRUCTURE
     1 RES1 1
     2 RES2 84

@<TRIPOS>CRYSIN
  19.5487   18.2587   20.3345  90.0000 117.6550  90.0000  14 1

