# MOL2 file generated by ConQuest
# Please check atom types

@<TRIPOS>MOLECULE
AVALEQ
    31    33     1
SMALL
NO_CHARGES
****
Generated from CSD

@<TRIPOS>ATOM
      1 O1        -3.3690    3.7766    8.1354 O.2       1 RES1    0.0000
      2 O2        -3.4559    1.9792    6.9638 O.2       1 RES1    0.0000
      3 O3         4.3113   -2.0247    6.7036 O.2       1 RES1    0.0000
      4 N1        -2.8374    2.9206    7.4730 N.pl3     1 RES1    0.0000
      5 N2         1.5705    0.9851    6.5430 N.pl3     1 RES1    0.0000
      6 C1        -0.6065    1.9116    7.0587 C.ar      1 RES1    0.0000
      7 C2         0.7454    2.1178    6.7311 C.ar      1 RES1    0.0000
      8 C3         1.2418    3.4029    6.5982 C.ar      1 RES1    0.0000
      9 H1         2.1401    3.5315    6.3963 H         1 RES1    0.0000
     10 C4         0.4144    4.4940    6.7636 C.ar      1 RES1    0.0000
     11 H2         0.7607    5.3522    6.6671 H         1 RES1    0.0000
     12 C5        -0.9114    4.3265    7.0676 C.ar      1 RES1    0.0000
     13 H3        -1.4701    5.0606    7.1803 H         1 RES1    0.0000
     14 C6        -1.3934    3.0536    7.2014 C.ar      1 RES1    0.0000
     15 C7        -1.0536    0.5500    7.2955 C.2       1 RES1    0.0000
     16 H4        -1.9482    0.4003    7.5055 H         1 RES1    0.0000
     17 C8        -0.2443   -0.4668    7.2233 C.2       1 RES1    0.0000
     18 H5        -0.5759   -1.3106    7.4300 H         1 RES1    0.0000
     19 C9         1.1550   -0.3493    6.8357 C.3       1 RES1    0.0000
     20 H6         0.9845   -0.5744    5.8969 H         1 RES1    0.0000
     21 C10        2.0354   -1.3793    7.0206 C.3       1 RES1    0.0000
     22 H7         2.2222   -1.1543    7.9554 H         1 RES1    0.0000
     23 C11        3.4522   -1.1520    6.5593 C.2       1 RES1    0.0000
     24 C12        3.7208    0.1109    6.0039 C.2       1 RES1    0.0000
     25 H8         4.5399    0.2528    5.5896 H         1 RES1    0.0000
     26 C13        2.8365    1.1177    6.0501 C.2       1 RES1    0.0000
     27 H9         3.0999    1.9493    5.7290 H         1 RES1    0.0000
     28 C14        1.6999   -2.7620    7.3003 C.3       1 RES1    0.0000
     29 H10        2.5009   -3.2898    7.3101 H         1 RES1    0.0000
     30 H11        1.1075   -3.0913    6.6209 H         1 RES1    0.0000
     31 H12        1.2678   -2.8186    8.1565 H         1 RES1    0.0000
@<TRIPOS>BOND
     1    1    4 2
     2    2    4 2
     3    3   23 2
     4    4   14 1
     5    5    7 1
     6    6    7 ar
     7    7    8 ar
     8    8    9 1
     9   10    8 ar
    10   11   10 1
    11   12   10 ar
    12   13   12 1
    13   14    6 ar
    14   15    6 1
    15   16   15 1
    16   17   15 2
    17   18   17 1
    18   19    5 1
    19   20   19 1
    20   21   19 1
    21   22   21 1
    22   23   21 1
    23   24   23 1
    24   25   24 1
    25   26    5 1
    26   27   26 1
    27   28   21 1
    28   29   28 1
    29   30   28 1
    30   31   28 1
    31   12   14 ar
    32   17   19 1
    33   24   26 2
@<TRIPOS>SUBSTRUCTURE
     1 RES1 1

@<TRIPOS>CRYSIN
  13.4080   11.0880    8.6320  90.0000 110.0690  90.0000  14 1

