# MOL2 file generated by ConQuest
# Please check atom types

@<TRIPOS>MOLECULE
AVOJUR
    23    23     1
SMALL
NO_CHARGES
****
Generated from CSD

@<TRIPOS>ATOM
      1 C1         4.2398    9.0758    3.4377 C.ar      1 RES1    0.0000
      2 C2         4.4996    8.0319    2.5438 C.ar      1 RES1    0.0000
      3 C3         5.7017    7.3402    2.5306 C.ar      1 RES1    0.0000
      4 C4         6.6972    7.6346    3.4687 C.ar      1 RES1    0.0000
      5 C5         6.4482    8.6681    4.3885 C.ar      1 RES1    0.0000
      6 C6         5.2535    9.3707    4.3522 C.ar      1 RES1    0.0000
      7 C7         2.4600   10.4051    2.3994 C.2       1 RES1    0.0000
      8 C8         1.1534   11.1054    2.6661 C.3       1 RES1    0.0000
      9 H1         0.9707   11.2280    3.5849 H         1 RES1    0.0000
     10 H2         0.4379   10.5734    2.3006 H         1 RES1    0.0000
     11 H3         1.1087   11.9063    2.1971 H         1 RES1    0.0000
     12 N1         3.0367    9.8280    3.4753 N.am      1 RES1    0.0000
     13 N2         3.4856    7.5619    1.5845 N.pl3     1 RES1    0.0000
     14 N3         7.8423    6.8656    3.5322 N.3       1 RES1    0.0000
     15 O1         2.9438   10.3463    1.2679 O.2       1 RES1    0.0000
     16 O2         2.3028    7.6077    1.9044 O.2       1 RES1    0.0000
     17 O3         3.8783    7.1178    0.5039 O.2       1 RES1    0.0000
     18 H4         2.6968    9.9637    4.2342 H         1 RES1    0.0000
     19 H5         5.8176    6.6621    1.9148 H         1 RES1    0.0000
     20 H6         7.1396    8.8813    5.0622 H         1 RES1    0.0000
     21 H7         5.0973   10.0889    5.0057 H         1 RES1    0.0000
     22 H8         8.0575    6.4376    2.7710 H         1 RES1    0.0000
     23 H9         8.5292    7.1986    3.9566 H         1 RES1    0.0000
@<TRIPOS>BOND
     1    1    2 ar
     2    2    3 ar
     3    3    4 ar
     4    4    5 ar
     5    5    6 ar
     6    6    1 ar
     7    7    8 1
     8    8    9 1
     9   10    8 1
    10   11    8 1
    11   12    1 1
    12   13    2 1
    13   14    4 1
    14   15    7 2
    15   16   13 2
    16   17   13 2
    17   18   12 1
    18   19    3 1
    19   20    5 1
    20   21    6 1
    21   22   14 1
    22   23   14 1
    23    7   12 1
@<TRIPOS>SUBSTRUCTURE
     1 RES1 1

@<TRIPOS>CRYSIN
   7.9430   23.6330    4.8675  90.0000 104.8640  90.0000  14 1

