# MOL2 file generated by ConQuest
# Please check atom types

@<TRIPOS>MOLECULE
AVOJUR01
    26    23     2
SMALL
NO_CHARGES
****
Generated from CSD

@<TRIPOS>ATOM
      1 C1         4.1428    9.2647    3.3746 C.ar      1 RES1    0.0000
      2 C2         4.3945    8.2078    2.5036 C.ar      1 RES1    0.0000
      3 C3         5.5840    7.5039    2.5121 C.ar      1 RES1    0.0000
      4 C4         6.5734    7.8027    3.4445 C.ar      1 RES1    0.0000
      5 C5         6.3216    8.8422    4.3423 C.ar      1 RES1    0.0000
      6 C6         5.1469    9.5558    4.2913 C.ar      1 RES1    0.0000
      7 C7         2.4074   10.6255    2.3157 C.2       1 RES1    0.0000
      8 C8         1.1271   11.3664    2.5665 C.3       1 RES1    0.0000
      9 H1         1.1055   11.6775    3.4959 H         1 RES1    0.0000
     10 H2         0.3669   10.7692    2.4035 H         1 RES1    0.0000
     11 H3         1.0722   12.1365    1.9638 H         1 RES1    0.0000
     12 N1         2.9558   10.0346    3.3897 N.am      1 RES1    0.0000
     13 N2         3.3815    7.7327    1.5477 N.pl3     1 RES1    0.0000
     14 N3         7.7098    7.0256    3.5214 N.3       1 RES1    0.0000
     15 O1         2.9012   10.5588    1.1968 O.2       1 RES1    0.0000
     16 O2         2.2041    7.7909    1.8637 O.2       1 RES1    0.0000
     17 O3         3.7684    7.2681    0.4865 O.2       1 RES1    0.0000
     18 H4         2.5955   10.1677    4.1279 H         1 RES1    0.0000
     19 H5         5.6890    6.8026    1.8797 H         1 RES1    0.0000
     20 H6         6.9749    9.0492    4.9827 H         1 RES1    0.0000
     21 H7         5.0200   10.2812    4.9072 H         1 RES1    0.0000
     22 H8         7.9352    6.5731    2.7629 H         1 RES1    0.0000
     23 H9         8.3467    7.3824    3.9342 H         1 RES1    0.0000
     24 H10        0.5915   11.3804    1.7461 Du        2 SUP2    0.0000
     25 H11        1.3301   12.2863    2.8385 Du        2 SUP2    0.0000
     26 H12        0.6240   10.9190    3.2782 Du        2 SUP2    0.0000
@<TRIPOS>BOND
     1    1    2 ar
     2    2    3 ar
     3    3    4 ar
     4    4    5 ar
     5    5    6 ar
     6    6    1 ar
     7    7    8 1
     8    8    9 1
     9   10    8 1
    10   11    8 1
    11   12    1 1
    12   13    2 1
    13   14    4 1
    14   15    7 2
    15   16   13 2
    16   17   13 2
    17   18   12 1
    18   19    3 1
    19   20    5 1
    20   21    6 1
    21   22   14 1
    22   23   14 1
    23    7   12 1
@<TRIPOS>SUBSTRUCTURE
     1 RES1 1
     2 SUP2 24

@<TRIPOS>CRYSIN
   7.9620   24.1570    4.8805  90.0000 104.5970  90.0000  14 1

