# MOL2 file generated by ConQuest
# Please check atom types

@<TRIPOS>MOLECULE
AVOJUR02
    26    23     2
SMALL
NO_CHARGES
****
Generated from CSD

@<TRIPOS>ATOM
      1 C1        12.5162    0.2000    4.5859 C.ar      1 RES1    0.0000
      2 C2        12.8330    0.7085    5.8591 C.ar      1 RES1    0.0000
      3 C3        11.9541    0.6448    6.9274 C.ar      1 RES1    0.0000
      4 C4        10.6972    0.0687    6.7627 C.ar      1 RES1    0.0000
      5 C5        10.3850   -0.4799    5.5086 C.ar      1 RES1    0.0000
      6 C6        11.2674   -0.4153    4.4568 C.ar      1 RES1    0.0000
      7 C7        12.9018    0.7730    2.2273 C.2       1 RES1    0.0000
      8 C8        13.9841    0.9567    1.1963 C.3       1 RES1    0.0000
      9 H1        14.8518    0.7272    1.5900 H         1 RES1    0.0000
     10 H2        13.9976    1.8900    0.8991 H         1 RES1    0.0000
     11 H3        13.8090    0.3718    0.4305 H         1 RES1    0.0000
     12 N1        13.3492    0.3508    3.4439 N.am      1 RES1    0.0000
     13 N2        14.1268    1.3289    6.1267 N.pl3     1 RES1    0.0000
     14 N3         9.8042   -0.0244    7.8106 N.3       1 RES1    0.0000
     15 O1        11.7239    0.9941    1.9822 O.2       1 RES1    0.0000
     16 O2        15.0844    1.0750    5.3835 O.2       1 RES1    0.0000
     17 O3        14.2250    2.0729    7.0951 O.2       1 RES1    0.0000
     18 H4        14.2535    0.4199    3.5080 H         1 RES1    0.0000
     19 H5        12.2018    1.0002    7.7554 H         1 RES1    0.0000
     20 H6         9.5510   -0.8704    5.3861 H         1 RES1    0.0000
     21 H7        11.0357   -0.8628    3.6555 H         1 RES1    0.0000
     22 H8         9.9087    0.5421    8.4358 H         1 RES1    0.0000
     23 H9         8.9432   -0.2901    7.5488 H         1 RES1    0.0000
     24 H10       13.5863    1.2655    0.3558 Du        2 SUP2    0.0000
     25 H11       14.4418    0.1027    1.0467 Du        2 SUP2    0.0000
     26 H12       14.6304    1.6209    1.5153 Du        2 SUP2    0.0000
@<TRIPOS>BOND
     1    1    2 ar
     2    2    3 ar
     3    3    4 ar
     4    4    5 ar
     5    5    6 ar
     6    6    1 ar
     7    7    8 1
     8    8    9 1
     9   10    8 1
    10   11    8 1
    11   12    1 1
    12   13    2 1
    13   14    4 1
    14   15    7 2
    15   16   13 2
    16   17   13 2
    17   18   12 1
    18   19    3 1
    19   20    5 1
    20   21    6 1
    21   22   14 1
    22   23   14 1
    23    7   12 1
@<TRIPOS>SUBSTRUCTURE
     1 RES1 1
     2 SUP2 24

@<TRIPOS>CRYSIN
  12.7022    3.8175   17.3647  90.0000  91.6320  90.0000 231 1

