# MOL2 file generated by ConQuest
# Please check atom types

@<TRIPOS>MOLECULE
AVUZIB
    31    33     1
SMALL
NO_CHARGES
****
Generated from CSD

@<TRIPOS>ATOM
      1 N1         3.5706    6.7335   12.6471 N.2       1 RES1    0.0000
      2 N2        -1.6742    3.6387    9.9580 N.pl3     1 RES1    0.0000
      3 H1        -2.3643    3.2675   10.3128 H         1 RES1    0.0000
      4 O1         2.5826    6.0145   13.4360 O.3       1 RES1    0.0000
      5 O2         0.7322    4.8289   13.0906 O.2       1 RES1    0.0000
      6 O3        -0.0226    4.1266    4.7632 O.3       1 RES1    0.0000
      7 C1         4.0279    7.2509   10.3466 C.3       1 RES1    0.0000
      8 H2         4.7710    7.7070   10.7461 H         1 RES1    0.0000
      9 H3         3.4789    7.8827    9.8771 H         1 RES1    0.0000
     10 H4         4.3518    6.5888    9.7318 H         1 RES1    0.0000
     11 C2         3.2230    6.5872   11.4085 C.2       1 RES1    0.0000
     12 C3         2.0322    5.7986   11.2502 C.2       1 RES1    0.0000
     13 C4         1.6532    5.4653   12.6148 C.2       1 RES1    0.0000
     14 C5         1.4480    5.4600   10.0636 C.2       1 RES1    0.0000
     15 H5         1.9113    5.7584    9.3136 H         1 RES1    0.0000
     16 C6         0.2678    4.7380    9.7611 C.2       1 RES1    0.0000
     17 C7        -0.6857    4.2228   10.6369 C.2       1 RES1    0.0000
     18 H6        -0.6387    4.2774   11.5650 H         1 RES1    0.0000
     19 C8        -1.4260    3.7205    8.5966 C.ar      1 RES1    0.0000
     20 C9        -2.1527    3.2107    7.5333 C.ar      1 RES1    0.0000
     21 H7        -2.9601    2.7697    7.6657 H         1 RES1    0.0000
     22 C10       -1.6303    3.3826    6.2751 C.ar      1 RES1    0.0000
     23 H8        -2.0890    3.0463    5.5396 H         1 RES1    0.0000
     24 C11       -0.4171    4.0592    6.0805 C.ar      1 RES1    0.0000
     25 C12        0.3000    4.5811    7.1378 C.ar      1 RES1    0.0000
     26 H9         1.0986    5.0365    6.9971 H         1 RES1    0.0000
     27 C13       -0.2127    4.4054    8.4313 C.ar      1 RES1    0.0000
     28 C14        1.2567    4.6569    4.4647 C.3       1 RES1    0.0000
     29 H10        1.3143    5.5577    4.7908 H         1 RES1    0.0000
     30 H11        1.3912    4.6531    3.5136 H         1 RES1    0.0000
     31 H12        1.9321    4.1205    4.8859 H         1 RES1    0.0000
@<TRIPOS>BOND
     1    1    4 1
     2    2    3 1
     3    4   13 1
     4    5   13 2
     5    6   24 1
     6    7    8 1
     7    9    7 1
     8   10    7 1
     9   11    1 2
    10   12   11 1
    11   13   12 1
    12   14   12 2
    13   15   14 1
    14   16   14 1
    15   17    2 1
    16   18   17 1
    17   19    2 1
    18   20   19 ar
    19   21   20 1
    20   22   20 ar
    21   23   22 1
    22   24   22 ar
    23   25   24 ar
    24   26   25 1
    25   27   16 1
    26   28    6 1
    27   29   28 1
    28   30   28 1
    29   31   28 1
    30    7   11 1
    31   16   17 2
    32   19   27 ar
    33   25   27 ar
@<TRIPOS>SUBSTRUCTURE
     1 RES1 1

@<TRIPOS>CRYSIN
   6.4195    7.5759   25.1810  90.0000  95.9950  90.0000 231 1

