# MOL2 file generated by ConQuest
# Please check atom types

@<TRIPOS>MOLECULE
AWALOB
   120   124     2
SMALL
NO_CHARGES
****
Generated from CSD

@<TRIPOS>ATOM
      1 C1         8.8896    2.5553    7.9484 C.ar      1 RES1    0.0000
      2 C2         8.1907    2.7427    9.1551 C.ar      1 RES1    0.0000
      3 H1         7.6206    3.4714    9.2421 H         1 RES1    0.0000
      4 C3         8.3357    1.8531   10.2311 C.ar      1 RES1    0.0000
      5 C4         9.2048    0.7801   10.0736 C.ar      1 RES1    0.0000
      6 H2         9.3415    0.1973   10.7851 H         1 RES1    0.0000
      7 C5         9.8809    0.5545    8.8620 C.ar      1 RES1    0.0000
      8 H3        10.4507   -0.1752    8.7745 H         1 RES1    0.0000
      9 C6         9.6989    1.4119    7.8100 C.ar      1 RES1    0.0000
     10 C7         7.5364    2.0984   11.5097 C.3       1 RES1    0.0000
     11 C8         6.0372    2.0213   11.1978 C.3       1 RES1    0.0000
     12 H4         5.5354    2.1686   12.0034 H         1 RES1    0.0000
     13 H5         5.8275    1.1538   10.8435 H         1 RES1    0.0000
     14 H6         5.8089    2.6942   10.5512 H         1 RES1    0.0000
     15 C9         7.8510    1.0485   12.6073 C.3       1 RES1    0.0000
     16 H7         8.7879    1.0712   12.8125 H         1 RES1    0.0000
     17 H8         7.6120    0.1732   12.2911 H         1 RES1    0.0000
     18 H9         7.3471    1.2504   13.3986 H         1 RES1    0.0000
     19 C10        7.8536    3.4990   12.0662 C.3       1 RES1    0.0000
     20 H10        7.5574    4.1661   11.4419 H         1 RES1    0.0000
     21 H11        8.7992    3.5842   12.1988 H         1 RES1    0.0000
     22 H12        7.4010    3.6205   12.9033 H         1 RES1    0.0000
     23 C11       11.5520    1.6973    6.2514 C.3       1 RES1    0.0000
     24 H13       12.2556    1.3028    6.7916 H         1 RES1    0.0000
     25 H14       11.5400    2.6539    6.4086 H         1 RES1    0.0000
     26 C12       11.7820    1.4035    4.7834 C.3       1 RES1    0.0000
     27 H15       11.0474    1.7760    4.2734 H         1 RES1    0.0000
     28 H16       11.7730    0.4430    4.6534 H         1 RES1    0.0000
     29 C13       13.0886    1.9588    4.2317 C.3       1 RES1    0.0000
     30 H17       13.1251    2.9217    4.3488 H         1 RES1    0.0000
     31 H18       13.8476    1.5605    4.6872 H         1 RES1    0.0000
     32 C14       14.0868    2.1793    2.0370 C.ar      1 RES1    0.0000
     33 C15       15.1481    1.3880    1.6306 C.ar      1 RES1    0.0000
     34 H19       15.2350    0.5235    1.9644 H         1 RES1    0.0000
     35 C16       16.0841    1.8722    0.7292 C.ar      1 RES1    0.0000
     36 H20       16.7812    1.3189    0.4569 H         1 RES1    0.0000
     37 C17       16.0093    3.1765    0.2164 C.ar      1 RES1    0.0000
     38 C18       14.9369    3.9791    0.6667 C.ar      1 RES1    0.0000
     39 H21       14.8601    4.8508    0.3492 H         1 RES1    0.0000
     40 C19       13.9955    3.5081    1.5663 C.ar      1 RES1    0.0000
     41 C20       17.0670    3.7153   -0.7384 C.3       1 RES1    0.0000
     42 C21       17.6984    2.6016   -1.5660 C.3       1 RES1    0.0000
     43 H22       18.1185    1.9673   -0.9814 H         1 RES1    0.0000
     44 H23       18.3563    2.9761   -2.1582 H         1 RES1    0.0000
     45 H24       17.0196    2.1606   -2.0813 H         1 RES1    0.0000
     46 C22       18.1643    4.3695    0.1138 C.3       1 RES1    0.0000
     47 H25       17.8218    5.1729    0.5123 H         1 RES1    0.0000
     48 H26       18.9162    4.5830   -0.4430 H         1 RES1    0.0000
     49 H27       18.4401    3.7614    0.8030 H         1 RES1    0.0000
     50 C23       16.4901    4.8085   -1.6752 C.3       1 RES1    0.0000
     51 H28       15.7598    4.4420   -2.1813 H         1 RES1    0.0000
     52 H29       17.1764    5.1105   -2.2736 H         1 RES1    0.0000
     53 H30       16.1762    5.5455   -1.1491 H         1 RES1    0.0000
     54 C24       12.8388    4.3079    2.0567 C.2       1 RES1    0.0000
     55 C25       13.0684    5.2950    3.0243 C.2       1 RES1    0.0000
     56 C26       14.2889    5.9949    3.3034 C.2       1 RES1    0.0000
     57 H31       15.1014    5.8676    2.8705 H         1 RES1    0.0000
     58 C27       14.0462    6.8815    4.3168 C.2       1 RES1    0.0000
     59 H32       14.6459    7.5007    4.6626 H         1 RES1    0.0000
     60 C28       12.6939    6.6791    4.7471 C.2       1 RES1    0.0000
     61 C29       12.1105    7.0722    5.9714 C.2       1 RES1    0.0000
     62 C30       12.7791    8.2105    6.6770 C.ar      1 RES1    0.0000
     63 C31       12.8241    9.4595    6.0548 C.ar      1 RES1    0.0000
     64 H33       12.4480    9.5666    5.2102 H         1 RES1    0.0000
     65 C32       13.4249   10.5420    6.6809 C.ar      1 RES1    0.0000
     66 H34       13.4589   11.3728    6.2640 H         1 RES1    0.0000
     67 C33       13.9707   10.3614    7.9361 C.ar      1 RES1    0.0000
     68 C34       13.9759    9.1369    8.5607 C.ar      1 RES1    0.0000
     69 H35       14.3742    9.0350    9.3944 H         1 RES1    0.0000
     70 C35       13.3783    8.0500    7.9238 C.ar      1 RES1    0.0000
     71 H36       13.3803    7.2147    8.3330 H         1 RES1    0.0000
     72 C36       11.0812    6.3459    6.5852 C.2       1 RES1    0.0000
     73 C37       10.7118    6.4413    7.9796 C.2       1 RES1    0.0000
     74 H37       10.9491    7.1181    8.5714 H         1 RES1    0.0000
     75 C38        9.9429    5.3445    8.2604 C.2       1 RES1    0.0000
     76 H38        9.6153    5.0843    9.0914 H         1 RES1    0.0000
     77 C39        9.7461    4.6703    6.9899 C.2       1 RES1    0.0000
     78 C40        8.9187    3.5379    6.8193 C.2       1 RES1    0.0000
     79 C41        8.3277    3.1509    5.6160 C.2       1 RES1    0.0000
     80 C42        7.1846    2.3173    5.4476 C.2       1 RES1    0.0000
     81 H39        6.7372    1.8606    6.1225 H         1 RES1    0.0000
     82 C43        6.8646    2.3086    4.1170 C.2       1 RES1    0.0000
     83 H40        6.1277    1.8867    3.7350 H         1 RES1    0.0000
     84 C44        7.8590    3.0613    3.4170 C.2       1 RES1    0.0000
     85 C45        8.1514    3.0939    2.0546 C.2       1 RES1    0.0000
     86 C46        7.2306    2.4312    1.0850 C.ar      1 RES1    0.0000
     87 C47        6.5902    3.1976    0.1032 C.ar      1 RES1    0.0000
     88 H41        6.7309    4.1158    0.0708 H         1 RES1    0.0000
     89 C48        5.7491    2.5957   -0.8230 C.ar      1 RES1    0.0000
     90 H42        5.3073    3.1050   -1.4629 H         1 RES1    0.0000
     91 C49        5.5824    1.2305   -0.7772 C.ar      1 RES1    0.0000
     92 C50        6.1982    0.4424    0.1883 C.ar      1 RES1    0.0000
     93 H43        6.0640   -0.4772    0.2107 H         1 RES1    0.0000
     94 C51        7.0091    1.0588    1.1085 C.ar      1 RES1    0.0000
     95 H44        7.4204    0.5457    1.7644 H         1 RES1    0.0000
     96 C52        9.4231    3.4739    1.5648 C.2       1 RES1    0.0000
     97 C53        9.9820    2.9793    0.3284 C.2       1 RES1    0.0000
     98 H45        9.5138    2.5975   -0.3800 H         1 RES1    0.0000
     99 C54       11.3275    3.1799    0.4027 C.2       1 RES1    0.0000
    100 H46       11.9675    2.9117   -0.2154 H         1 RES1    0.0000
    101 C55       11.5528    3.8911    1.6332 C.2       1 RES1    0.0000
    102 N1        10.3874    4.0963    2.3295 N.pl3     1 RES1    0.0000
    103 H47       10.2813    4.5165    3.0720 H         1 RES1    0.0000
    104 N2         8.6760    3.5995    4.3745 N.2       1 RES1    0.0000
    105 N3        10.4162    5.3040    5.9905 N.pl3     1 RES1    0.0000
    106 H48       10.4210    5.0944    5.1564 H         1 RES1    0.0000
    107 N4        12.1301    5.7667    3.8981 N.2       1 RES1    0.0000
    108 N5         4.7717    0.5765   -1.8063 N.pl3     1 RES1    0.0000
    109 O1        10.2650    1.1089    6.5778 O.3       1 RES1    0.0000
    110 O2        13.1021    1.6185    2.8334 O.3       1 RES1    0.0000
    111 O3         4.9246   -0.6272   -1.9880 O.2       1 RES1    0.0000
    112 O4         3.9955    1.2684   -2.4510 O.2       1 RES1    0.0000
    113 N6        14.5611   11.5863    8.5330 N.pl3     1 RES1    0.0000
    114 O5        15.1154   11.3809    9.5775 O.2       1 RES1    0.0000
    115 O6        14.4572   12.6474    7.9484 O.2       1 RES1    0.0000
    116 H49        9.3222    4.1460    4.2150 Du        2 SUP2    0.0000
    117 H50       11.3033    5.5253    3.9119 Du        2 SUP2    0.0000
    118 O7        15.1709   11.0486    9.9851 Du        2 SUP2    0.0000
    119 O8        14.7181   12.4722    8.2822 Du        2 SUP2    0.0000
    120 N7        14.7088   11.3003    8.8329 Du        2 SUP2    0.0000
@<TRIPOS>BOND
     1    1    2 ar
     2    2    3 1
     3    4    2 ar
     4    5    4 ar
     5    6    5 1
     6    7    5 ar
     7    8    7 1
     8    9    1 ar
     9   10    4 1
    10   11   10 1
    11   12   11 1
    12   13   11 1
    13   14   11 1
    14   15   10 1
    15   16   15 1
    16   17   15 1
    17   18   15 1
    18   19   10 1
    19   20   19 1
    20   21   19 1
    21   22   19 1
    22   23   24 1
    23   25   23 1
    24   26   23 1
    25   27   26 1
    26   28   26 1
    27   29   26 1
    28   30   29 1
    29   31   29 1
    30   32   33 ar
    31   33   34 1
    32   35   33 ar
    33   36   35 1
    34   37   35 ar
    35   38   37 ar
    36   39   38 1
    37   40   32 ar
    38   41   37 1
    39   42   41 1
    40   43   42 1
    41   44   42 1
    42   45   42 1
    43   46   41 1
    44   47   46 1
    45   48   46 1
    46   49   46 1
    47   50   41 1
    48   51   50 1
    49   52   50 1
    50   53   50 1
    51   54   40 1
    52   55   54 2
    53   56   55 1
    54   57   56 1
    55   58   56 2
    56   59   58 1
    57   60   58 1
    58   61   60 1
    59   62   61 1
    60   63   62 ar
    61   64   63 1
    62   65   63 ar
    63   66   65 1
    64   67   65 ar
    65   68   67 ar
    66   69   68 1
    67   70   62 ar
    68   71   70 1
    69   72   61 2
    70   73   72 1
    71   74   73 1
    72   75   73 2
    73   76   75 1
    74   77   75 1
    75   78    1 1
    76   79   78 1
    77   80   79 1
    78   81   80 1
    79   82   80 2
    80   83   82 1
    81   84   82 1
    82   85   84 2
    83   86   85 1
    84   87   86 ar
    85   88   87 1
    86   89   87 ar
    87   90   89 1
    88   91   89 ar
    89   92   91 ar
    90   93   92 1
    91   94   86 ar
    92   95   94 1
    93   96   85 1
    94   97   96 2
    95   98   97 1
    96   99   97 1
    97  100   99 1
    98  101   54 1
    99  102   96 1
   100  103  102 1
   101  104   79 2
   102  105   72 1
   103  106  105 1
   104  107   55 1
   105  108   91 1
   106  109    9 1
   107  110   29 1
   108  111  108 2
   109  112  108 2
   110  113   67 1
   111  114  113 2
   112  115  113 2
   113    7    9 ar
   114   23  109 1
   115   32  110 1
   116   38   40 ar
   117   60  107 2
   118   68   70 ar
   119   77   78 2
   120   77  105 1
   121   84  104 1
   122   92   94 ar
   123   99  101 2
   124  101  102 1
@<TRIPOS>SUBSTRUCTURE
     1 RES1 1
     2 SUP2 116

@<TRIPOS>CRYSIN
  32.7660   20.1360   15.4351  90.0000  94.7070  90.0000  15 1

