# MOL2 file generated by ConQuest
# Please check atom types

@<TRIPOS>MOLECULE
AWAMIW
   129   136     2
SMALL
NO_CHARGES
****
Generated from CSD

@<TRIPOS>ATOM
      1 N1        18.7988   22.5875   11.2007 N.2       1 RES1    0.0000
      2 N2        18.3199   19.8657   10.4901 N.pl3     1 RES1    0.0000
      3 H1        17.9208   20.4578   10.9696 H         1 RES1    0.0000
      4 N3        15.6518   19.9994   11.8314 N.2       1 RES1    0.0000
      5 N4        16.1224   22.6918   12.5266 N.pl3     1 RES1    0.0000
      6 H2        16.5672   22.0552   12.1618 H         1 RES1    0.0000
      7 N5        25.5956   21.0587    7.7169 N.pl3     1 RES1    0.0000
      8 N6         8.8294   21.5328   15.2994 N.pl3     1 RES1    0.0000
      9 O1        26.5165   21.2718    8.2061 O.2       1 RES1    0.0000
     10 O2        25.6696   20.9640    6.4583 O.2       1 RES1    0.0000
     11 O3         7.9058   21.8121   14.5430 O.2       1 RES1    0.0000
     12 O4         8.6808   21.2412   16.4625 O.2       1 RES1    0.0000
     13 O5        14.7210   18.5196    8.5768 O.3       1 RES1    0.0000
     14 O6        16.3002   25.8840   10.3163 O.3       1 RES1    0.0000
     15 C1        18.7319   23.9171   11.4750 C.2       1 RES1    0.0000
     16 C2        19.9126   24.5579   10.9664 C.2       1 RES1    0.0000
     17 H3        20.1098   25.4649   11.0069 H         1 RES1    0.0000
     18 C3        20.6868   23.5902   10.4140 C.2       1 RES1    0.0000
     19 H4        21.5237   23.7049   10.0252 H         1 RES1    0.0000
     20 C4        19.9723   22.3652   10.5468 C.2       1 RES1    0.0000
     21 C5        20.3757   21.1231    9.9993 C.2       1 RES1    0.0000
     22 C6        19.5684   19.9776    9.9637 C.2       1 RES1    0.0000
     23 C7        19.8824   18.7569    9.2688 C.2       1 RES1    0.0000
     24 H5        20.6879   18.5536    8.8508 H         1 RES1    0.0000
     25 C8        18.8035   17.9683    9.3336 C.2       1 RES1    0.0000
     26 H6        18.7111   17.1309    8.9415 H         1 RES1    0.0000
     27 C9        17.8101   18.6579   10.1257 C.2       1 RES1    0.0000
     28 C10       16.5452   18.1486   10.4415 C.2       1 RES1    0.0000
     29 C11       15.6061   18.7404   11.3081 C.2       1 RES1    0.0000
     30 C12       14.3959   18.1069   11.7471 C.2       1 RES1    0.0000
     31 H7        14.1256   17.2382   11.5495 H         1 RES1    0.0000
     32 C13       13.7194   19.0050   12.5003 C.2       1 RES1    0.0000
     33 H8        12.8987   18.8633   12.9150 H         1 RES1    0.0000
     34 C14       14.4921   20.2097   12.5408 C.2       1 RES1    0.0000
     35 C15       14.1177   21.4233   13.1240 C.2       1 RES1    0.0000
     36 C16       14.8884   22.5854   13.1013 C.2       1 RES1    0.0000
     37 C17       14.5047   23.8524   13.6294 C.2       1 RES1    0.0000
     38 H9        13.7182   24.0483   14.0862 H         1 RES1    0.0000
     39 C18       15.4967   24.7124   13.3410 C.2       1 RES1    0.0000
     40 H10       15.5144   25.6151   13.5613 H         1 RES1    0.0000
     41 C19       16.5225   23.9962   12.6364 C.2       1 RES1    0.0000
     42 C20       17.6988   24.5867   12.1391 C.2       1 RES1    0.0000
     43 C21       21.7343   21.0704    9.3757 C.ar      1 RES1    0.0000
     44 C22       22.8434   21.0986   10.1419 C.ar      1 RES1    0.0000
     45 H11       22.7664   21.1201   11.0684 H         1 RES1    0.0000
     46 C23       24.1268   21.0925    9.5344 C.ar      1 RES1    0.0000
     47 H12       24.8930   21.1170   10.0625 H         1 RES1    0.0000
     48 C24       24.2306   21.0566    8.2288 C.ar      1 RES1    0.0000
     49 C25       23.1833   21.0054    7.4481 C.ar      1 RES1    0.0000
     50 H13       23.2864   20.9606    6.5247 H         1 RES1    0.0000
     51 C26       21.9169   21.0204    8.0199 C.ar      1 RES1    0.0000
     52 H14       21.1704   20.9974    7.4642 H         1 RES1    0.0000
     53 C27       16.0407   16.9656    9.6802 C.ar      1 RES1    0.0000
     54 C28       16.5012   15.6696    9.8875 C.ar      1 RES1    0.0000
     55 H15       17.1540   15.5150   10.5339 H         1 RES1    0.0000
     56 C29       16.0076   14.5982    9.1521 C.ar      1 RES1    0.0000
     57 C30       15.0454   14.8711    8.2110 C.ar      1 RES1    0.0000
     58 H16       14.7147   14.1690    7.6991 H         1 RES1    0.0000
     59 C31       14.5414   16.1534    7.9875 C.ar      1 RES1    0.0000
     60 H17       13.8713   16.2938    7.3573 H         1 RES1    0.0000
     61 C32       15.0548   17.2152    8.7212 C.ar      1 RES1    0.0000
     62 C33       13.4263   18.9050    8.0976 C.3       1 RES1    0.0000
     63 H18       12.7686   18.2317    8.3357 H         1 RES1    0.0000
     64 H19       13.4410   18.9921    7.1322 H         1 RES1    0.0000
     65 C34       13.0726   20.2296    8.7358 C.3       1 RES1    0.0000
     66 H20       12.9693   20.0867    9.6899 H         1 RES1    0.0000
     67 H21       12.2112   20.5129    8.3908 H         1 RES1    0.0000
     68 C35       14.0675   21.3684    8.5301 C.3       1 RES1    0.0000
     69 H22       14.9296   21.1017    8.8832 H         1 RES1    0.0000
     70 H23       14.1733   21.5248    7.5776 H         1 RES1    0.0000
     71 C36       13.6429   22.6621    9.1959 C.3       1 RES1    0.0000
     72 H24       13.5353   22.4998   10.1451 H         1 RES1    0.0000
     73 H25       12.7781   22.9199    8.8427 H         1 RES1    0.0000
     74 C37       14.6113   23.8306    9.0112 C.3       1 RES1    0.0000
     75 H26       15.4775   23.5822    9.3692 H         1 RES1    0.0000
     76 H27       14.7217   24.0023    8.0620 H         1 RES1    0.0000
     77 C38       14.1434   25.0982    9.6899 C.3       1 RES1    0.0000
     78 H28       13.9616   24.8946   10.6197 H         1 RES1    0.0000
     79 H29       13.3040   25.3668    9.2833 H         1 RES1    0.0000
     80 C39       15.0904   26.2765    9.6413 C.3       1 RES1    0.0000
     81 H30       15.2813   26.5166    8.7212 H         1 RES1    0.0000
     82 H31       14.6930   27.0440   10.0835 H         1 RES1    0.0000
     83 C40       16.9339   26.7116   11.1915 C.ar      1 RES1    0.0000
     84 C41       17.7221   26.0775   12.1472 C.ar      1 RES1    0.0000
     85 C42       18.4217   26.8296   13.0705 C.ar      1 RES1    0.0000
     86 H32       18.9494   26.3909   13.6990 H         1 RES1    0.0000
     87 C43       18.3645   28.2337   13.0932 C.ar      1 RES1    0.0000
     88 C44       17.6053   28.8322   12.1164 C.ar      1 RES1    0.0000
     89 H33       17.5688   29.7606   12.0905 H         1 RES1    0.0000
     90 C45       16.8840   28.1104   11.1575 C.ar      1 RES1    0.0000
     91 H34       16.3807   28.5525   10.5112 H         1 RES1    0.0000
     92 C46       16.5560   13.1960    9.4291 C.3       1 RES1    0.0000
     93 C47       18.0720   13.1770    9.1813 C.3       1 RES1    0.0000
     94 H35       18.2479   13.3840    8.2596 H         1 RES1    0.0000
     95 H36       18.4180   12.3047    9.3838 H         1 RES1    0.0000
     96 H37       18.4967   13.8286    9.7434 H         1 RES1    0.0000
     97 C48       15.8563   12.1305    8.5738 C.3       1 RES1    0.0000
     98 H38       14.9168   12.1330    8.7682 H         1 RES1    0.0000
     99 H39       16.2223   11.2653    8.7747 H         1 RES1    0.0000
    100 H40       15.9904   12.3262    7.6441 H         1 RES1    0.0000
    101 C49       16.3181   12.8253   10.9145 C.3       1 RES1    0.0000
    102 H41       16.7521   13.4699   11.4782 H         1 RES1    0.0000
    103 H42       16.6817   11.9521   11.0878 H         1 RES1    0.0000
    104 H43       15.3771   12.8229   11.0959 H         1 RES1    0.0000
    105 C50       19.1152   29.0036   14.1882 C.3       1 RES1    0.0000
    106 C51       20.6112   28.7151   14.1137 C.3       1 RES1    0.0000
    107 H44       20.9641   29.0585   13.2876 H         1 RES1    0.0000
    108 H45       20.7566   27.7676   14.1542 H         1 RES1    0.0000
    109 H46       21.0570   29.1413   14.8507 H         1 RES1    0.0000
    110 C52       18.8824   30.5229   14.0732 C.3       1 RES1    0.0000
    111 H47       19.2918   30.9657   14.8183 H         1 RES1    0.0000
    112 H48       17.9396   30.7020   14.0716 H         1 RES1    0.0000
    113 H49       19.2697   30.8461   13.2552 H         1 RES1    0.0000
    114 C53       18.5682   28.5942   15.5424 C.3       1 RES1    0.0000
    115 H50       18.9531   29.1505   16.2244 H         1 RES1    0.0000
    116 H51       18.7930   27.6756   15.7141 H         1 RES1    0.0000
    117 H52       17.6139   28.6967   15.5473 H         1 RES1    0.0000
    118 C54       12.7392   21.4806   13.7055 C.ar      1 RES1    0.0000
    119 C55       12.5512   21.4297   15.0629 C.ar      1 RES1    0.0000
    120 H53       13.2857   21.3837   15.6315 H         1 RES1    0.0000
    121 C56       11.2501   21.4460   15.5959 C.ar      1 RES1    0.0000
    122 H54       11.1142   21.3929   16.5143 H         1 RES1    0.0000
    123 C57       10.2039   21.5377   14.7471 C.ar      1 RES1    0.0000
    124 C58       10.3750   21.6444   13.4285 C.ar      1 RES1    0.0000
    125 H55        9.6429   21.7578   12.8648 H         1 RES1    0.0000
    126 C59       11.6541   21.5861   12.9183 C.ar      1 RES1    0.0000
    127 H56       11.7714   21.6229   11.9966 H         1 RES1    0.0000
    128 H57       18.2090   21.9970   11.4037 Du        2 SUP2    0.0000
    129 H58       16.2944   20.5651   11.7342 Du        2 SUP2    0.0000
@<TRIPOS>BOND
     1    1   15 1
     2    2    3 1
     3    4   29 2
     4    5    6 1
     5    7    9 2
     6    8   11 2
     7   10    7 2
     8   12    8 2
     9   13   61 1
    10   14   80 1
    11   15   16 1
    12   16   17 1
    13   18   16 2
    14   19   18 1
    15   20    1 2
    16   21   20 1
    17   22    2 1
    18   23   22 1
    19   24   23 1
    20   25   23 2
    21   26   25 1
    22   27    2 1
    23   28   27 2
    24   29   28 1
    25   30   29 1
    26   31   30 1
    27   32   30 2
    28   33   32 1
    29   34    4 1
    30   35   34 2
    31   36    5 1
    32   37   36 2
    33   38   37 1
    34   39   37 1
    35   40   39 1
    36   41    5 1
    37   42   15 2
    38   43   21 1
    39   44   43 ar
    40   45   44 1
    41   46   44 ar
    42   47   46 1
    43   48    7 1
    44   49   48 ar
    45   50   49 1
    46   51   43 ar
    47   52   51 1
    48   53   28 1
    49   54   53 ar
    50   55   54 1
    51   56   54 ar
    52   57   56 ar
    53   58   57 1
    54   59   57 ar
    55   60   59 1
    56   61   53 ar
    57   62   13 1
    58   63   62 1
    59   64   62 1
    60   65   62 1
    61   66   65 1
    62   67   65 1
    63   68   65 1
    64   69   68 1
    65   70   68 1
    66   71   68 1
    67   72   71 1
    68   73   71 1
    69   74   71 1
    70   75   74 1
    71   76   74 1
    72   77   74 1
    73   78   77 1
    74   79   77 1
    75   80   77 1
    76   81   80 1
    77   82   80 1
    78   83   14 1
    79   84   42 1
    80   85   84 ar
    81   86   85 1
    82   87   85 ar
    83   88   87 ar
    84   89   88 1
    85   90   83 ar
    86   91   90 1
    87   92   56 1
    88   93   92 1
    89   94   93 1
    90   95   93 1
    91   96   93 1
    92   97   92 1
    93   98   97 1
    94   99   97 1
    95  100   97 1
    96  101   92 1
    97  102  101 1
    98  103  101 1
    99  104  101 1
   100  105   87 1
   101  106  105 1
   102  107  106 1
   103  108  106 1
   104  109  106 1
   105  110  105 1
   106  111  110 1
   107  112  110 1
   108  113  110 1
   109  114  105 1
   110  115  114 1
   111  116  114 1
   112  117  114 1
   113  118   35 1
   114  119  118 ar
   115  120  119 1
   116  121  119 ar
   117  122  121 1
   118  123    8 1
   119  124  123 ar
   120  125  124 1
   121  126  118 ar
   122  127  126 1
   123   18   20 1
   124   21   22 2
   125   25   27 1
   126   32   34 1
   127   35   36 1
   128   39   41 2
   129   41   42 1
   130   46   48 ar
   131   49   51 ar
   132   59   61 ar
   133   83   84 ar
   134   88   90 ar
   135  121  123 ar
   136  124  126 ar
@<TRIPOS>SUBSTRUCTURE
     1 RES1 1
     2 SUP2 128

@<TRIPOS>CRYSIN
  24.4349   30.6621   16.7802  90.0000 105.1310  90.0000  15 1

