# MOL2 file generated by ConQuest
# Please check atom types

@<TRIPOS>MOLECULE
AWAMAO
   133   130     2
SMALL
NO_CHARGES
****
Generated from CSD

@<TRIPOS>ATOM
      1 O1        -0.1105    4.8716   14.7842 O.3       1 RES1    0.0000
      2 O2        -2.1019   -0.3100   10.1774 O.3       1 RES1    0.0000
      3 O3        -1.4412    8.7980    5.7396 O.2       1 RES1    0.0000
      4 O4        -3.4196    8.4189    4.9865 O.2       1 RES1    0.0000
      5 O5        -7.5617   -2.4922   20.7049 O.2       1 RES1    0.0000
      6 O6        -9.4824   -2.2876   19.7647 O.2       1 RES1    0.0000
      7 N1        -3.5723    4.7525   12.8292 N.pl3     1 RES1    0.0000
      8 H1        -4.0102    3.9920   12.9006 H         1 RES1    0.0000
      9 N2        -4.4210    2.7322   11.1001 N.2       1 RES1    0.0000
     10 N3        -5.3555    1.0749   13.3223 N.pl3     1 RES1    0.0000
     11 H2        -5.1076    1.9133   13.2200 H         1 RES1    0.0000
     12 N4        -4.4920    3.1125   15.0789 N.2       1 RES1    0.0000
     13 N5        -2.5321    8.2802    5.8256 N.pl3     1 RES1    0.0000
     14 N6        -8.2886   -2.0538   19.8240 N.pl3     1 RES1    0.0000
     15 C1        -2.9697    5.4218   13.8677 C.2       1 RES1    0.0000
     16 C2        -2.3988    6.6290   13.3422 C.2       1 RES1    0.0000
     17 H3        -1.9102    7.2789   13.8339 H         1 RES1    0.0000
     18 C3        -2.6862    6.6715   12.0053 C.2       1 RES1    0.0000
     19 H4        -2.4639    7.3778   11.4109 H         1 RES1    0.0000
     20 C4        -3.3812    5.4595   11.6550 C.2       1 RES1    0.0000
     21 C5        -3.6556    4.9661   10.3761 C.2       1 RES1    0.0000
     22 C6        -4.0774    3.6522   10.1347 C.2       1 RES1    0.0000
     23 C7        -3.9984    3.0033    8.8252 C.2       1 RES1    0.0000
     24 H5        -3.8320    3.4274    7.9915 H         1 RES1    0.0000
     25 C8        -4.2101    1.6887    9.0340 C.2       1 RES1    0.0000
     26 H6        -4.1738    0.9988    8.3816 H         1 RES1    0.0000
     27 C9        -4.5043    1.5281   10.4450 C.2       1 RES1    0.0000
     28 C10       -4.8356    0.2875   11.0362 C.2       1 RES1    0.0000
     29 C11       -5.2997    0.1084   12.3435 C.2       1 RES1    0.0000
     30 C12       -5.8282   -1.1054   12.9111 C.2       1 RES1    0.0000
     31 H7        -5.9173   -1.9426   12.4708 H         1 RES1    0.0000
     32 C13       -6.1807   -0.8225   14.2125 C.2       1 RES1    0.0000
     33 H8        -6.5731   -1.4333   14.8245 H         1 RES1    0.0000
     34 C14       -5.8562    0.5326   14.4861 C.2       1 RES1    0.0000
     35 C15       -5.8675    1.1707   15.7420 C.2       1 RES1    0.0000
     36 C16       -5.1883    2.3668   16.0164 C.2       1 RES1    0.0000
     37 C17       -4.9746    2.8975   17.3497 C.2       1 RES1    0.0000
     38 H9        -5.3846    2.5977   18.1527 H         1 RES1    0.0000
     39 C18       -4.0657    3.9110   17.2267 C.2       1 RES1    0.0000
     40 H10       -3.6868    4.4263   17.9290 H         1 RES1    0.0000
     41 C19       -3.7904    4.0435   15.7841 C.2       1 RES1    0.0000
     42 C20       -2.9690    5.0511   15.2259 C.2       1 RES1    0.0000
     43 C21       -1.9895    5.7660   16.0831 C.ar      1 RES1    0.0000
     44 C22       -0.6113    5.5847   15.8696 C.ar      1 RES1    0.0000
     45 C23        0.2928    6.2627   16.6645 C.ar      1 RES1    0.0000
     46 H11        1.2232    6.1407   16.5203 H         1 RES1    0.0000
     47 C24       -0.1356    7.1228   17.6714 C.ar      1 RES1    0.0000
     48 H12        0.5108    7.5662   18.2072 H         1 RES1    0.0000
     49 C25       -1.4781    7.3463   17.9113 C.ar      1 RES1    0.0000
     50 C26       -2.3919    6.6388   17.1052 C.ar      1 RES1    0.0000
     51 H13       -3.3205    6.7589   17.2607 H         1 RES1    0.0000
     52 C27       -1.9946    8.3133   18.9711 C.3       1 RES1    0.0000
     53 C28       -2.8484    9.4163   18.2778 C.3       1 RES1    0.0000
     54 H14       -3.5843    8.9981   17.7832 H         1 RES1    0.0000
     55 H15       -2.2846    9.9248   17.6566 H         1 RES1    0.0000
     56 H16       -3.2138   10.0213   18.9564 H         1 RES1    0.0000
     57 C29       -0.8371    9.0220   19.7439 C.3       1 RES1    0.0000
     58 H17       -1.2160    9.6470   20.3975 H         1 RES1    0.0000
     59 H18       -0.2745    9.5133   19.1110 H         1 RES1    0.0000
     60 H19       -0.2972    8.3510   20.2106 H         1 RES1    0.0000
     61 C30       -2.8528    7.5836   20.0060 C.3       1 RES1    0.0000
     62 H20       -3.5806    7.1090   19.5511 H         1 RES1    0.0000
     63 H21       -3.2312    8.2325   20.6360 H         1 RES1    0.0000
     64 H22       -2.2978    6.9389   20.4947 H         1 RES1    0.0000
     65 C31       -0.3890    3.4549   14.6876 C.3       1 RES1    0.0000
     66 H23       -1.2581    3.2512   15.1160 H         1 RES1    0.0000
     67 H24        0.3155    2.9402   15.1528 H         1 RES1    0.0000
     68 C32       -0.4300    3.0719   13.2465 C.3       1 RES1    0.0000
     69 H25        0.4725    3.1663   12.8520 H         1 RES1    0.0000
     70 H26       -1.0441    3.6764   12.7608 H         1 RES1    0.0000
     71 C33       -0.9074    1.6263   13.0934 C.3       1 RES1    0.0000
     72 H27       -0.2366    1.0217   13.5012 H         1 RES1    0.0000
     73 H28       -1.7570    1.5141   13.5895 H         1 RES1    0.0000
     74 C34       -1.1156    1.2309   11.7009 C.3       1 RES1    0.0000
     75 H29       -0.2385    1.2021   11.2431 H         1 RES1    0.0000
     76 H30       -1.6670    1.9204   11.2534 H         1 RES1    0.0000
     77 C35       -1.8073   -0.1411   11.5405 C.3       1 RES1    0.0000
     78 H31       -1.2087   -0.8658   11.8540 H         1 RES1    0.0000
     79 H32       -2.6401   -0.1690   12.0763 H         1 RES1    0.0000
     80 C36       -4.4907   -0.9237   10.2457 C.ar      1 RES1    0.0000
     81 C37       -3.1436   -1.1975    9.9566 C.ar      1 RES1    0.0000
     82 C38       -2.7968   -2.3367    9.2236 C.ar      1 RES1    0.0000
     83 H33       -1.8862   -2.5227    9.0307 H         1 RES1    0.0000
     84 C39       -3.7792   -3.1807    8.7849 C.ar      1 RES1    0.0000
     85 H34       -3.5322   -3.9521    8.2903 H         1 RES1    0.0000
     86 C40       -5.1319   -2.9486    9.0396 C.ar      1 RES1    0.0000
     87 C41       -5.4637   -1.8194    9.7682 C.ar      1 RES1    0.0000
     88 H35       -6.3781   -1.6417    9.9492 H         1 RES1    0.0000
     89 C42       -6.2296   -3.9073    8.5523 C.3       1 RES1    0.0000
     90 C43       -6.1028   -4.2381    7.1083 C.3       1 RES1    0.0000
     91 H36       -5.2540   -4.7052    6.9523 H         1 RES1    0.0000
     92 H37       -6.1224   -3.4127    6.5798 H         1 RES1    0.0000
     93 H38       -6.8470   -4.8169    6.8389 H         1 RES1    0.0000
     94 C44       -6.1879   -5.1455    9.4370 C.3       1 RES1    0.0000
     95 H39       -6.9064   -5.7583    9.1735 H         1 RES1    0.0000
     96 H40       -6.3117   -4.8814   10.3732 H         1 RES1    0.0000
     97 H41       -5.3222   -5.5918    9.3325 H         1 RES1    0.0000
     98 C45       -7.6673   -3.2664    8.7893 C.3       1 RES1    0.0000
     99 H42       -7.6832   -2.3565    8.4257 H         1 RES1    0.0000
    100 H43       -7.8567   -3.2393    9.7505 H         1 RES1    0.0000
    101 H44       -8.3448   -3.8112    8.3374 H         1 RES1    0.0000
    102 C46       -3.3467    5.8340    9.1838 C.ar      1 RES1    0.0000
    103 C47       -2.0710    6.3399    8.9899 C.ar      1 RES1    0.0000
    104 H45       -1.3786    6.1313    9.6063 H         1 RES1    0.0000
    105 C48       -1.8009    7.1628    7.8826 C.ar      1 RES1    0.0000
    106 H46       -0.9368    7.5327    7.7530 H         1 RES1    0.0000
    107 C49       -2.8118    7.4212    6.9969 C.ar      1 RES1    0.0000
    108 C50       -4.0887    6.9294    7.1554 C.ar      1 RES1    0.0000
    109 H47       -4.7700    7.1282    6.5239 H         1 RES1    0.0000
    110 C51       -4.3515    6.1310    8.2647 C.ar      1 RES1    0.0000
    111 H48       -5.2274    5.7866    8.3978 H         1 RES1    0.0000
    112 C52       -6.5184    0.4002   16.8525 C.ar      1 RES1    0.0000
    113 C53       -5.7312   -0.1383   17.8952 C.ar      1 RES1    0.0000
    114 H49       -4.8009    0.0497   17.9304 H         1 RES1    0.0000
    115 C54       -6.3088   -0.9399   18.8657 C.ar      1 RES1    0.0000
    116 H50       -5.7824   -1.3119   19.5644 H         1 RES1    0.0000
    117 C55       -7.6737   -1.1907   18.7964 C.ar      1 RES1    0.0000
    118 C56       -8.4667   -0.6642   17.8083 C.ar      1 RES1    0.0000
    119 H51       -9.3995   -0.8433   17.7832 H         1 RES1    0.0000
    120 C57       -7.8683    0.1410   16.8397 C.ar      1 RES1    0.0000
    121 H52       -8.4064    0.5209   16.1537 H         1 RES1    0.0000
    122 C58       -5.5747   -5.0577    7.6780 Du        2 SUP2    0.0000
    123 H53       -6.2656   -5.6998    7.4130 Du        2 SUP2    0.0000
    124 H54       -4.8866   -5.5151    8.2035 Du        2 SUP2    0.0000
    125 H55       -5.1669   -4.6661    6.8772 Du        2 SUP2    0.0000
    126 C59       -6.9237   -4.5984    9.7137 Du        2 SUP2    0.0000
    127 H56       -7.4167   -5.3774    9.3825 Du        2 SUP2    0.0000
    128 H57       -7.5481   -3.9732   10.1391 Du        2 SUP2    0.0000
    129 H58       -6.2554   -4.8884   10.3688 Du        2 SUP2    0.0000
    130 C60       -7.2321   -3.1985    7.6632 Du        2 SUP2    0.0000
    131 H59       -6.7564   -2.6947    6.9714 Du        2 SUP2    0.0000
    132 H60       -7.7701   -2.5834    8.2035 Du        2 SUP2    0.0000
    133 H61       -7.8193   -3.8588    7.2393 Du        2 SUP2    0.0000
@<TRIPOS>BOND
     1    1   44 1
     2    2   77 1
     3    3   13 2
     4    4   13 2
     5    5   14 2
     6    6   14 2
     7    7    8 1
     8    9   22 2
     9   10   11 1
    10   12   36 1
    11   13  107 1
    12   14  117 1
    13   15    7 1
    14   16   15 1
    15   17   16 1
    16   18   16 2
    17   19   18 1
    18   20    7 1
    19   21   20 2
    20   22   21 1
    21   23   22 1
    22   24   23 1
    23   25   23 2
    24   26   25 1
    25   27    9 1
    26   28   27 2
    27   29   10 1
    28   30   29 2
    29   31   30 1
    30   32   30 1
    31   33   32 1
    32   34   10 1
    33   35   34 1
    34   36   35 2
    35   37   36 1
    36   38   37 1
    37   39   37 2
    38   40   39 1
    39   41   12 2
    40   42   15 2
    41   43   42 1
    42   44   43 ar
    43   45   44 ar
    44   46   45 1
    45   47   45 ar
    46   48   47 1
    47   49   47 ar
    48   50   43 ar
    49   51   50 1
    50   52   49 1
    51   53   52 1
    52   54   53 1
    53   55   53 1
    54   56   53 1
    55   57   52 1
    56   58   57 1
    57   59   57 1
    58   60   57 1
    59   61   52 1
    60   62   61 1
    61   63   61 1
    62   64   61 1
    63   65    1 1
    64   66   65 1
    65   67   65 1
    66   68   65 1
    67   69   68 1
    68   70   68 1
    69   71   68 1
    70   72   71 1
    71   73   71 1
    72   74   71 1
    73   75   74 1
    74   76   74 1
    75   77   74 1
    76   78   77 1
    77   79   77 1
    78   80   28 1
    79   81    2 1
    80   82   81 ar
    81   83   82 1
    82   84   82 ar
    83   85   84 1
    84   86   84 ar
    85   87   80 ar
    86   88   87 1
    87   89   86 1
    88   90   89 1
    89   91   90 1
    90   92   90 1
    91   93   90 1
    92   94   89 1
    93   95   94 1
    94   96   94 1
    95   97   94 1
    96   98   89 1
    97   99   98 1
    98  100   98 1
    99  101   98 1
   100  102   21 1
   101  103  102 ar
   102  104  103 1
   103  105  103 ar
   104  106  105 1
   105  107  105 ar
   106  108  107 ar
   107  109  108 1
   108  110  102 ar
   109  111  110 1
   110  112   35 1
   111  113  112 ar
   112  114  113 1
   113  115  113 ar
   114  116  115 1
   115  117  115 ar
   116  118  117 ar
   117  119  118 1
   118  120  112 ar
   119  121  120 1
   120   18   20 1
   121   25   27 1
   122   28   29 1
   123   32   34 2
   124   39   41 1
   125   41   42 1
   126   49   50 ar
   127   80   81 ar
   128   86   87 ar
   129  108  110 ar
   130  118  120 ar
@<TRIPOS>SUBSTRUCTURE
     1 RES1 1
     2 SUP2 122

@<TRIPOS>CRYSIN
  13.7346   16.3850   16.8250 103.4430 107.0630 114.0250   2 1

