# MOL2 file generated by ConQuest
# Please check atom types

@<TRIPOS>MOLECULE
AWEFIR
    56    59     1
SMALL
NO_CHARGES
****
Generated from CSD

@<TRIPOS>ATOM
      1 O1         3.4647    7.8799    2.6329 O.3       1 RES1    0.0000
      2 O2         4.6611    7.7460    0.7167 O.3       1 RES1    0.0000
      3 O3         4.5597    5.0591    3.0580 O.3       1 RES1    0.0000
      4 N1         3.7236    8.8177    0.6414 N.2       1 RES1    0.0000
      5 N2         4.2665    3.7083    2.7921 N.2       1 RES1    0.0000
      6 N3         3.0457    5.5717   -1.3734 N.1       1 RES1    0.0000
      7 C1         3.0963    8.8225    1.7426 C.2       1 RES1    0.0000
      8 C2         4.6119    7.2336    2.0505 C.3       1 RES1    0.0000
      9 C3         4.3096    5.7699    1.9587 C.2       1 RES1    0.0000
     10 C4         3.8594    4.9643    0.9806 C.2       1 RES1    0.0000
     11 C5         3.8582    3.6582    1.5545 C.2       1 RES1    0.0000
     12 C6         2.0001    9.7414    2.1138 C.ar      1 RES1    0.0000
     13 C7         2.2520   10.7320    3.0628 C.ar      1 RES1    0.0000
     14 C8         1.2068   11.5815    3.3822 C.ar      1 RES1    0.0000
     15 C9        -0.0450   11.4742    2.8111 C.ar      1 RES1    0.0000
     16 C10       -0.2496   10.4853    1.8681 C.ar      1 RES1    0.0000
     17 C11        0.7559    9.6116    1.5030 C.ar      1 RES1    0.0000
     18 C12        3.6095   10.9176    3.6661 C.3       1 RES1    0.0000
     19 C13       -1.1524   12.4104    3.1989 C.3       1 RES1    0.0000
     20 C14        0.4902    8.5391    0.4729 C.3       1 RES1    0.0000
     21 C15        5.8545    7.5346    2.8205 C.3       1 RES1    0.0000
     22 C16        3.5146    2.3680    0.9297 C.ar      1 RES1    0.0000
     23 C17        2.3248    1.7308    1.2546 C.ar      1 RES1    0.0000
     24 C18        2.0665    0.4937    0.6868 C.ar      1 RES1    0.0000
     25 C19        2.9568   -0.1172   -0.1802 C.ar      1 RES1    0.0000
     26 C20        4.1264    0.5523   -0.4886 C.ar      1 RES1    0.0000
     27 C21        4.4323    1.7904    0.0434 C.ar      1 RES1    0.0000
     28 C22        1.3197    2.3260    2.2001 C.3       1 RES1    0.0000
     29 C23        2.6571   -1.4620   -0.7694 C.3       1 RES1    0.0000
     30 C24        5.7210    2.4617   -0.3273 C.3       1 RES1    0.0000
     31 C25        3.4330    5.3202   -0.3318 C.1       1 RES1    0.0000
     32 H1         1.3641   12.3549    4.0504 H         1 RES1    0.0000
     33 H2        -1.1738   10.3408    1.4758 H         1 RES1    0.0000
     34 H3         1.2310   -0.0282    0.9812 H         1 RES1    0.0000
     35 H4         4.8290    0.1076   -1.1001 H         1 RES1    0.0000
     36 H5         4.2613   11.2524    2.9435 H         1 RES1    0.0000
     37 H6         3.5588   11.6060    4.4369 H         1 RES1    0.0000
     38 H7         3.9455   10.0141    4.0341 H         1 RES1    0.0000
     39 H8        -1.3177   12.3482    4.2206 H         1 RES1    0.0000
     40 H9        -0.8835   13.3835    2.9530 H         1 RES1    0.0000
     41 H10       -2.0341   12.1505    2.6867 H         1 RES1    0.0000
     42 H11        0.8760    8.8363   -0.4446 H         1 RES1    0.0000
     43 H12       -0.5357    8.3926    0.3811 H         1 RES1    0.0000
     44 H13        0.9401    7.6544    0.7636 H         1 RES1    0.0000
     45 H14        5.9825    8.5109    2.7962 H         1 RES1    0.0000
     46 H15        5.7845    7.1798    3.7030 H         1 RES1    0.0000
     47 H16        6.6313    7.0722    2.3935 H         1 RES1    0.0000
     48 H17        0.4941    1.6995    2.2651 H         1 RES1    0.0000
     49 H18        1.7428    2.4309    3.1395 H         1 RES1    0.0000
     50 H19        1.0235    3.2618    1.8488 H         1 RES1    0.0000
     51 H20        3.2274   -2.1835   -0.2906 H         1 RES1    0.0000
     52 H21        1.6448   -1.6807   -0.6528 H         1 RES1    0.0000
     53 H22        2.8927   -1.4575   -1.7745 H         1 RES1    0.0000
     54 H23        6.3608    1.7734   -0.7541 H         1 RES1    0.0000
     55 H24        6.1570    2.8544    0.5136 H         1 RES1    0.0000
     56 H25        5.5365    3.2215   -1.0041 H         1 RES1    0.0000
@<TRIPOS>BOND
     1    1    7 1
     2    2    4 1
     3    3    5 1
     4    4    7 2
     5    5   11 2
     6    6   31 3
     7    7   12 1
     8    8    1 1
     9    9    3 1
    10   10    9 2
    11   11   10 1
    12   12   13 ar
    13   13   14 ar
    14   14   15 ar
    15   15   16 ar
    16   16   17 ar
    17   17   12 ar
    18   18   13 1
    19   19   15 1
    20   20   17 1
    21   21    8 1
    22   22   11 1
    23   23   22 ar
    24   24   23 ar
    25   25   24 ar
    26   26   25 ar
    27   27   22 ar
    28   28   23 1
    29   29   25 1
    30   30   27 1
    31   31   10 1
    32   32   14 1
    33   33   16 1
    34   34   24 1
    35   35   26 1
    36   36   18 1
    37   37   18 1
    38   38   18 1
    39   39   19 1
    40   40   19 1
    41   41   19 1
    42   42   20 1
    43   43   20 1
    44   44   20 1
    45   45   21 1
    46   46   21 1
    47   47   21 1
    48   48   28 1
    49   49   28 1
    50   50   28 1
    51   51   29 1
    52   52   29 1
    53   53   29 1
    54   54   30 1
    55   55   30 1
    56   56   30 1
    57    2    8 1
    58    8    9 1
    59   26   27 ar
@<TRIPOS>SUBSTRUCTURE
     1 RES1 1

@<TRIPOS>CRYSIN
  12.1920   13.4453   13.5785  90.0000  95.5564  90.0000  14 1

