# MOL2 file generated by ConQuest
# Please check atom types

@<TRIPOS>MOLECULE
AWELUL
    28    29     1
SMALL
NO_CHARGES
****
Generated from CSD

@<TRIPOS>ATOM
      1 O1         2.5539    7.3624    9.7949 O.2       1 RES1    0.0000
      2 O2         2.3051    5.8622    8.2404 O.2       1 RES1    0.0000
      3 N1         2.1607    6.2928    9.3665 N.pl3     1 RES1    0.0000
      4 C1         1.3530    5.4132   10.3022 C.3       1 RES1    0.0000
      5 H1         1.5748    4.4510   10.1456 H         1 RES1    0.0000
      6 N2         1.7240    5.8081   11.7167 N.pl3     1 RES1    0.0000
      7 O3         2.7811    5.3676   12.1240 O.2       1 RES1    0.0000
      8 O4         0.9421    6.5208   12.3237 O.2       1 RES1    0.0000
      9 O5        -1.8635    6.4739    9.1597 O.3       1 RES1    0.0000
     10 C2        -0.0930    5.6566   10.0330 C.2       1 RES1    0.0000
     11 N3        -0.4850    6.5585    9.1856 N.2       1 RES1    0.0000
     12 N4        -2.3184    5.5038   10.0099 N.2       1 RES1    0.0000
     13 C3        -1.2515    4.9999   10.5595 C.2       1 RES1    0.0000
     14 N5        -1.3843    3.9762   11.5155 N.2       1 RES1    0.0000
     15 O1B       -4.2002    0.2618   13.7121 O.2       1 RES1    0.0000
     16 O2B       -3.9514    1.7620   15.2666 O.2       1 RES1    0.0000
     17 N1B       -3.8070    1.3314   14.1405 N.pl3     1 RES1    0.0000
     18 C1B       -2.9992    2.2110   13.2048 C.3       1 RES1    0.0000
     19 H1B       -3.2211    3.1732   13.3614 H         1 RES1    0.0000
     20 N2B       -3.3703    1.8161   11.7903 N.pl3     1 RES1    0.0000
     21 O3B       -4.4273    2.2566   11.3830 O.2       1 RES1    0.0000
     22 O4B       -2.5884    1.1034   11.1833 O.2       1 RES1    0.0000
     23 O5B        0.2173    1.1503   14.3473 O.3       1 RES1    0.0000
     24 C2B       -1.5532    1.9676   13.4740 C.2       1 RES1    0.0000
     25 N3B       -1.1612    1.0657   14.3214 N.2       1 RES1    0.0000
     26 N4B        0.6721    2.1204   13.4971 N.2       1 RES1    0.0000
     27 C3B       -0.3948    2.6243   12.9476 C.2       1 RES1    0.0000
     28 N5B       -0.2620    3.6480   11.9915 N.2       1 RES1    0.0000
@<TRIPOS>BOND
     1    1    3 2
     2    2    3 2
     3    3    4 1
     4    4    5 1
     5    6    4 1
     6    7    6 2
     7    8    6 2
     8    9   11 1
     9   10    4 1
    10   11   10 2
    11   12    9 1
    12   13   10 1
    13   14   13 1
    14   15   17 2
    15   16   17 2
    16   17   18 1
    17   18   19 1
    18   20   18 1
    19   21   20 2
    20   22   20 2
    21   23   25 1
    22   24   18 1
    23   25   24 2
    24   26   23 1
    25   27   24 1
    26   28   14 2
    27   12   13 2
    28   26   27 2
    29   27   28 1
@<TRIPOS>SUBSTRUCTURE
     1 RES1 1

@<TRIPOS>CRYSIN
   7.3983    7.6242   11.7823  90.0000  94.0060  90.0000 231 1

