# MOL2 file generated by ConQuest
# Please check atom types

@<TRIPOS>MOLECULE
AWEMOF
    40    43     1
SMALL
NO_CHARGES
****
Generated from CSD

@<TRIPOS>ATOM
      1 O1         5.5717   -0.1785    6.2917 O.2       1 RES1    0.0000
      2 O2         8.1794   -3.8157    7.0535 O.3       1 RES1    0.0000
      3 O3         0.6059   -3.6409    6.0102 O.3       1 RES1    0.0000
      4 N1         9.0804    0.0509    5.7849 N.2       1 RES1    0.0000
      5 N2         9.6301    1.1790    5.3352 N.pl3     1 RES1    0.0000
      6 N3         8.7811    2.1858    5.1267 N.2       1 RES1    0.0000
      7 C1         7.0459   -1.9719    6.5961 C.2       1 RES1    0.0000
      8 N4         6.8186   -4.1915    6.9644 N.2       1 RES1    0.0000
      9 C2        11.8380    0.1891    5.1662 C.ar      1 RES1    0.0000
     10 H1        11.4733   -0.6392    5.3816 H         1 RES1    0.0000
     11 C3        13.1811    0.3137    4.9243 C.ar      1 RES1    0.0000
     12 H2        13.7344   -0.4315    4.9889 H         1 RES1    0.0000
     13 C4        13.7183    1.5367    4.5856 C.ar      1 RES1    0.0000
     14 H3        14.6275    1.6122    4.4030 H         1 RES1    0.0000
     15 C5        12.9123    2.6428    4.5171 C.ar      1 RES1    0.0000
     16 H4        13.2802    3.4687    4.2972 H         1 RES1    0.0000
     17 C6        11.5664    2.5437    4.7713 C.ar      1 RES1    0.0000
     18 H5        11.0203    3.2956    4.7317 H         1 RES1    0.0000
     19 C7        11.0377    1.3030    5.0871 C.ar      1 RES1    0.0000
     20 C8         7.6101    1.6737    5.4630 C.2       1 RES1    0.0000
     21 H6         6.7978    2.1252    5.4364 H         1 RES1    0.0000
     22 C9         7.7840    0.3507    5.8641 C.2       1 RES1    0.0000
     23 C10        6.7199   -0.5962    6.2712 C.2       1 RES1    0.0000
     24 C11        8.2608   -2.5087    6.8183 C.2       1 RES1    0.0000
     25 H7         9.0566   -2.0275    6.8092 H         1 RES1    0.0000
     26 C12        6.1630   -3.1021    6.7011 C.2       1 RES1    0.0000
     27 C13        4.7054   -3.2209    6.4926 C.ar      1 RES1    0.0000
     28 C14        3.7890   -2.4285    7.1760 C.ar      1 RES1    0.0000
     29 H8         4.0955   -1.7689    7.7558 H         1 RES1    0.0000
     30 C15        2.4435   -2.6043    7.0063 C.ar      1 RES1    0.0000
     31 H9         1.8457   -2.0804    7.4887 H         1 RES1    0.0000
     32 C16        1.9605   -3.5611    6.1167 C.ar      1 RES1    0.0000
     33 C17        0.0575   -4.5899    5.0932 C.3       1 RES1    0.0000
     34 H10       -0.9013   -4.5435    5.1183 H         1 RES1    0.0000
     35 H11        0.3406   -5.4737    5.3390 H         1 RES1    0.0000
     36 H12        0.3637   -4.3908    4.2051 H         1 RES1    0.0000
     37 C18        2.8609   -4.3466    5.4235 C.ar      1 RES1    0.0000
     38 H13        2.5532   -4.9893    4.8261 H         1 RES1    0.0000
     39 C19        4.2132   -4.1801    5.6152 C.ar      1 RES1    0.0000
     40 H14        4.8093   -4.7206    5.1495 H         1 RES1    0.0000
@<TRIPOS>BOND
     1    1   23 2
     2    2    8 1
     3    3   32 1
     4    4    5 1
     5    5    6 1
     6    6   20 2
     7    7   23 1
     8    8   26 2
     9    9   10 1
    10   11    9 ar
    11   12   11 1
    12   13   11 ar
    13   14   13 1
    14   15   13 ar
    15   16   15 1
    16   17   15 ar
    17   18   17 1
    18   19    5 1
    19   20   21 1
    20   22    4 2
    21   23   22 1
    22   24    2 1
    23   25   24 1
    24   26    7 1
    25   27   26 1
    26   28   27 ar
    27   29   28 1
    28   30   28 ar
    29   31   30 1
    30   32   30 ar
    31   33    3 1
    32   34   33 1
    33   35   33 1
    34   36   33 1
    35   37   32 ar
    36   38   37 1
    37   39   27 ar
    38   40   39 1
    39    7   24 2
    40    9   19 ar
    41   17   19 ar
    42   20   22 1
    43   37   39 ar
@<TRIPOS>SUBSTRUCTURE
     1 RES1 1

@<TRIPOS>CRYSIN
  10.6974   20.3560    7.8049  90.0000 102.8400  90.0000  14 1

