# MOL2 file generated by ConQuest
# Please check atom types

@<TRIPOS>MOLECULE
AWENUM
    38    39     1
SMALL
NO_CHARGES
****
Generated from CSD

@<TRIPOS>ATOM
      1 N1        13.8974    4.0659    3.9796 N.pl3     1 RES1    0.0000
      2 N2         6.1572    6.0610    9.0924 N.pl3     1 RES1    0.0000
      3 O1        15.7315    5.5537    9.9908 O.2       1 RES1    0.0000
      4 O2        14.0352    4.1351   10.3196 O.3       1 RES1    0.0000
      5 O3        11.7294    4.4373   11.7128 O.3       1 RES1    0.0000
      6 O4        10.3596    3.4268   13.1731 O.2       1 RES1    0.0000
      7 O5        14.5763    4.6846    3.1754 O.2       1 RES1    0.0000
      8 O6        13.0502    3.2228    3.6642 O.2       1 RES1    0.0000
      9 O7         6.3711    6.5846    7.9989 O.2       1 RES1    0.0000
     10 O8         5.0357    5.9268    9.5667 O.2       1 RES1    0.0000
     11 C1        14.8658    4.8390    9.5576 C.2       1 RES1    0.0000
     12 C2        14.0951    4.3675   11.7544 C.3       1 RES1    0.0000
     13 H1        14.1352    5.3382   11.9449 H         1 RES1    0.0000
     14 H2        14.9002    3.9374   12.1401 H         1 RES1    0.0000
     15 C3        12.8551    3.7716   12.3354 C.3       1 RES1    0.0000
     16 H3        12.8237    2.7992   12.1509 H         1 RES1    0.0000
     17 H4        12.8369    3.9073   13.3152 H         1 RES1    0.0000
     18 C4        10.5292    4.1163   12.1948 C.2       1 RES1    0.0000
     19 C5        14.5803    4.6594    8.1034 C.ar      1 RES1    0.0000
     20 C6        15.4149    5.2610    7.1691 C.ar      1 RES1    0.0000
     21 H5        16.1422    5.7968    7.4613 H         1 RES1    0.0000
     22 C7        15.1914    5.0846    5.8059 C.ar      1 RES1    0.0000
     23 H6        15.7646    5.4813    5.1603 H         1 RES1    0.0000
     24 C8        14.1103    4.3138    5.4220 C.ar      1 RES1    0.0000
     25 C9        13.2403    3.7309    6.3246 C.ar      1 RES1    0.0000
     26 H7        12.4958    3.2220    6.0239 H         1 RES1    0.0000
     27 C10       13.4798    3.9065    7.6806 C.ar      1 RES1    0.0000
     28 H8        12.8965    3.5155    8.3214 H         1 RES1    0.0000
     29 C11        9.4187    4.6748   11.3725 C.ar      1 RES1    0.0000
     30 C12        9.6472    5.3512   10.1644 C.ar      1 RES1    0.0000
     31 H9        10.5385    5.5000    9.8666 H         1 RES1    0.0000
     32 C13        8.5884    5.8008    9.4076 C.ar      1 RES1    0.0000
     33 H10        8.7335    6.2529    8.5849 H         1 RES1    0.0000
     34 C14        7.3024    5.5781    9.8773 C.ar      1 RES1    0.0000
     35 C15        7.0441    4.9236   11.0788 C.ar      1 RES1    0.0000
     36 H11        6.1535    4.7935   11.3795 H         1 RES1    0.0000
     37 C16        8.1102    4.4707   11.8196 C.ar      1 RES1    0.0000
     38 H12        7.9552    4.0163   12.6396 H         1 RES1    0.0000
@<TRIPOS>BOND
     1    1    7 2
     2    2    9 2
     3    3   11 2
     4    4   11 1
     5    5   15 1
     6    6   18 2
     7    8    1 2
     8   10    2 2
     9   11   19 1
    10   12    4 1
    11   13   12 1
    12   14   12 1
    13   15   12 1
    14   16   15 1
    15   17   15 1
    16   18    5 1
    17   19   20 ar
    18   20   21 1
    19   22   20 ar
    20   23   22 1
    21   24    1 1
    22   25   24 ar
    23   26   25 1
    24   27   19 ar
    25   28   27 1
    26   29   18 1
    27   30   29 ar
    28   31   30 1
    29   32   30 ar
    30   33   32 1
    31   34    2 1
    32   35   34 ar
    33   36   35 1
    34   37   29 ar
    35   38   37 1
    36   22   24 ar
    37   25   27 ar
    38   32   34 ar
    39   35   37 ar
@<TRIPOS>SUBSTRUCTURE
     1 RES1 1

@<TRIPOS>CRYSIN
  33.1190    8.1301   11.9784  90.0000  90.0000  90.0000  41 1

