# MOL2 file generated by ConQuest
# Please check atom types

@<TRIPOS>MOLECULE
AWENIB02
    28    29     1
SMALL
NO_CHARGES
****
Generated from CSD

@<TRIPOS>ATOM
      1 O1         1.8494    7.4634    4.0508 O.3       1 RES1    0.0000
      2 N1         2.2951    2.5250    4.1237 N.pl3     1 RES1    0.0000
      3 C1         1.2392    8.7393    3.9615 C.ar      1 RES1    0.0000
      4 O2         3.7825    8.3451    4.7648 O.2       1 RES1    0.0000
      5 C2         0.9401    9.4231    5.1116 C.ar      1 RES1    0.0000
      6 H1         1.1943    9.0923    5.9429 H         1 RES1    0.0000
      7 O3         5.7002    6.6919    5.5028 O.3       1 RES1    0.0000
      8 H2         5.3482    7.4222    5.3828 H         1 RES1    0.0000
      9 C3         0.2555   10.6109    5.0047 C.ar      1 RES1    0.0000
     10 H3         0.0437   11.0893    5.7739 H         1 RES1    0.0000
     11 O4         1.1822    2.7747    3.7114 O.2       1 RES1    0.0000
     12 C4        -0.1124   11.0900    3.8034 C.ar      1 RES1    0.0000
     13 H4        -0.5710   11.8961    3.7482 H         1 RES1    0.0000
     14 O5         2.7016    1.3833    4.2334 O.2       1 RES1    0.0000
     15 C5         0.1850   10.3996    2.6669 C.ar      1 RES1    0.0000
     16 H5        -0.0798   10.7357    1.8411 H         1 RES1    0.0000
     17 C6         0.8911    9.1806    2.7330 C.ar      1 RES1    0.0000
     18 H6         1.1078    8.7021    1.9651 H         1 RES1    0.0000
     19 C7         3.1061    7.3801    4.4977 C.2       1 RES1    0.0000
     20 C8         3.5650    5.9826    4.6340 C.ar      1 RES1    0.0000
     21 C9         2.7360    4.9168    4.3022 C.ar      1 RES1    0.0000
     22 H7         1.8801    5.0732    3.9744 H         1 RES1    0.0000
     23 C10        3.1910    3.6274    4.4616 C.ar      1 RES1    0.0000
     24 C11        4.4663    3.3545    4.9399 C.ar      1 RES1    0.0000
     25 H8         4.7569    2.4768    5.0340 H         1 RES1    0.0000
     26 C12        5.2918    4.3999    5.2718 C.ar      1 RES1    0.0000
     27 H9         6.1479    4.2282    5.5920 H         1 RES1    0.0000
     28 C13        4.8552    5.7230    5.1307 C.ar      1 RES1    0.0000
@<TRIPOS>BOND
     1    1    3 1
     2    2   11 2
     3    3    5 ar
     4    4   19 2
     5    5    6 1
     6    7    8 1
     7    9    5 ar
     8   10    9 1
     9   12    9 ar
    10   13   12 1
    11   14    2 2
    12   15   12 ar
    13   16   15 1
    14   17    3 ar
    15   18   17 1
    16   19    1 1
    17   20   19 1
    18   21   20 ar
    19   22   21 1
    20   23    2 1
    21   24   23 ar
    22   25   24 1
    23   26   24 ar
    24   27   26 1
    25   28    7 1
    26   15   17 ar
    27   20   28 ar
    28   21   23 ar
    29   26   28 ar
@<TRIPOS>SUBSTRUCTURE
     1 RES1 1

@<TRIPOS>CRYSIN
  10.7430   16.6008    6.9203  90.0000 100.0690  90.0000  14 1

