# MOL2 file generated by ConQuest
# Please check atom types

@<TRIPOS>MOLECULE
AWIXIP
    53    55     1
SMALL
NO_CHARGES
****
Generated from CSD

@<TRIPOS>ATOM
      1 N1         6.6010   12.2828    6.0886 N.3       1 RES1    0.0000
      2 O1         6.0740   11.0282    5.4832 O.3       1 RES1    0.0000
      3 O2         2.3837   11.0032    7.8649 O.3       1 RES1    0.0000
      4 H1         1.8777   11.1414    7.2349 H         1 RES1    0.0000
      5 O3         5.0387   13.0530    3.5994 O.3       1 RES1    0.0000
      6 O4         5.8286   15.3755    6.2521 O.3       1 RES1    0.0000
      7 C1         5.3721   12.9870    6.6157 C.3       1 RES1    0.0000
      8 H2         5.5319   13.2714    7.5393 H         1 RES1    0.0000
      9 C2         4.2505   11.9490    6.5907 C.3       1 RES1    0.0000
     10 H3         3.6656   12.1345    5.8262 H         1 RES1    0.0000
     11 C3         5.0043   10.6700    6.3256 C.3       1 RES1    0.0000
     12 C4         7.0654   13.0788    4.9312 C.3       1 RES1    0.0000
     13 H4         7.4042   12.4939    4.2353 H         1 RES1    0.0000
     14 H5         7.7763   13.6797    5.2011 H         1 RES1    0.0000
     15 C5         5.8738   13.8700    4.4186 C.3       1 RES1    0.0000
     16 H6         6.1621   14.6745    3.9400 H         1 RES1    0.0000
     17 C6         5.1599   14.2295    5.7294 C.3       1 RES1    0.0000
     18 H7         4.2071   14.4066    5.5820 H         1 RES1    0.0000
     19 C7         4.4435    9.3274    6.0522 C.3       1 RES1    0.0000
     20 H8         4.8566    8.7991    5.3506 H         1 RES1    0.0000
     21 H9         3.4847    9.2124    6.1397 H         1 RES1    0.0000
     22 C8         5.2425    9.5714    7.3151 C.3       1 RES1    0.0000
     23 H10        4.7613    9.6060    8.1571 H         1 RES1    0.0000
     24 H11        6.1343    9.1928    7.3680 H         1 RES1    0.0000
     25 C9         3.4172   11.9717    7.8615 C.3       1 RES1    0.0000
     26 H12        3.9985   11.8144    8.6218 H         1 RES1    0.0000
     27 H13        3.0246   12.8532    7.9657 H         1 RES1    0.0000
     28 C10        5.0061   16.4224    6.8473 C.3       1 RES1    0.0000
     29 C11        4.1764   15.8603    7.9899 C.3       1 RES1    0.0000
     30 H14        3.6409   16.5594    8.3721 H         1 RES1    0.0000
     31 H15        3.6047   15.1645    7.6577 H         1 RES1    0.0000
     32 H16        4.7601   15.5010    8.6619 H         1 RES1    0.0000
     33 C12        6.0306   17.4091    7.3541 C.3       1 RES1    0.0000
     34 H17        5.5838   18.1487    7.7707 H         1 RES1    0.0000
     35 H18        6.6010   16.9776    7.9949 H         1 RES1    0.0000
     36 H19        6.5594   17.7273    6.6190 H         1 RES1    0.0000
     37 C13        4.1233   17.0654    5.7949 C.3       1 RES1    0.0000
     38 H20        3.5891   17.7518    6.2016 H         1 RES1    0.0000
     39 H21        4.6733   17.4529    5.1100 H         1 RES1    0.0000
     40 H22        3.5499   16.3993    5.4071 H         1 RES1    0.0000
     41 C14        4.6618   13.5863    2.3104 C.3       1 RES1    0.0000
     42 C15        3.7850   12.4971    1.7233 C.3       1 RES1    0.0000
     43 H23        3.4811   12.7650    0.8529 H         1 RES1    0.0000
     44 H24        4.2897   11.6837    1.6493 H         1 RES1    0.0000
     45 H25        3.0277   12.3534    2.2962 H         1 RES1    0.0000
     46 C16        5.8998   13.7921    1.4510 C.3       1 RES1    0.0000
     47 H26        5.6411   14.1469    0.5977 H         1 RES1    0.0000
     48 H27        6.4925   14.4082    1.8862 H         1 RES1    0.0000
     49 H28        6.3466   12.9512    1.3267 H         1 RES1    0.0000
     50 C17        3.8749   14.8770    2.4684 C.3       1 RES1    0.0000
     51 H29        3.6349   15.2135    1.6019 H         1 RES1    0.0000
     52 H30        3.0789   14.7055    2.9778 H         1 RES1    0.0000
     53 H31        4.4140   15.5271    2.9268 H         1 RES1    0.0000
@<TRIPOS>BOND
     1    1    2 1
     2    2   11 1
     3    3    4 1
     4    5   15 1
     5    6   17 1
     6    7    1 1
     7    8    7 1
     8    9    7 1
     9   10    9 1
    10   11    9 1
    11   12    1 1
    12   13   12 1
    13   14   12 1
    14   15   12 1
    15   16   15 1
    16   17    7 1
    17   18   17 1
    18   19   11 1
    19   20   19 1
    20   21   19 1
    21   22   11 1
    22   23   22 1
    23   24   22 1
    24   25    3 1
    25   26   25 1
    26   27   25 1
    27   28    6 1
    28   29   28 1
    29   30   29 1
    30   31   29 1
    31   32   29 1
    32   33   28 1
    33   34   33 1
    34   35   33 1
    35   36   33 1
    36   37   28 1
    37   38   37 1
    38   39   37 1
    39   40   37 1
    40   41    5 1
    41   42   41 1
    42   43   42 1
    43   44   42 1
    44   45   42 1
    45   46   41 1
    46   47   46 1
    47   48   46 1
    48   49   46 1
    49   50   41 1
    50   51   50 1
    51   52   50 1
    52   53   50 1
    53    9   25 1
    54   15   17 1
    55   19   22 1
@<TRIPOS>SUBSTRUCTURE
     1 RES1 1

@<TRIPOS>CRYSIN
   6.0300   16.3340   18.2240  90.0000  90.0000  90.0000  19 1

