# MOL2 file generated by ConQuest
# Please check atom types

@<TRIPOS>MOLECULE
AWIXOV
   152   164     4
SMALL
NO_CHARGES
****
Generated from CSD

@<TRIPOS>ATOM
      1 N1         2.5749   19.8396    4.6017 N.3       1 RES1    0.0000
      2 O1         2.5692   18.4888    5.0918 O.3       1 RES1    0.0000
      3 O2         0.3761   19.4308    2.3995 O.3       1 RES1    0.0000
      4 O3         1.8952   22.4225    3.9431 O.3       1 RES1    0.0000
      5 C1         1.2220   20.3621    4.9408 C.3       1 RES1    0.0000
      6 H1         1.1983   20.7781    5.8281 H         1 RES1    0.0000
      7 C2         0.9567   21.3544    3.8386 C.3       1 RES1    0.0000
      8 H2         0.0267   21.6624    3.8154 H         1 RES1    0.0000
      9 C3         1.3295   20.4854    2.6353 C.3       1 RES1    0.0000
     10 H3         1.4604   21.0308    1.8316 H         1 RES1    0.0000
     11 C4         2.6431   19.8743    3.1045 C.3       1 RES1    0.0000
     12 H4         2.7483   18.9791    2.7480 H         1 RES1    0.0000
     13 H5         3.3940   20.4144    2.8107 H         1 RES1    0.0000
     14 C5         0.2764   19.1453    4.8421 C.3       1 RES1    0.0000
     15 H6        -0.3627   19.1620    5.5854 H         1 RES1    0.0000
     16 C6         1.2366   17.9689    5.0175 C.3       1 RES1    0.0000
     17 C7         1.0214   16.8120    5.9118 C.3       1 RES1    0.0000
     18 H7         0.1553   16.7227    6.3392 H         1 RES1    0.0000
     19 H8         1.7726   16.5027    6.4425 H         1 RES1    0.0000
     20 C8         1.0927   16.6290    4.4158 C.3       1 RES1    0.0000
     21 H9         1.8860   16.2087    4.0476 H         1 RES1    0.0000
     22 H10        0.2687   16.4287    3.9443 H         1 RES1    0.0000
     23 C9        -0.4753   19.1675    3.5180 C.3       1 RES1    0.0000
     24 H11       -0.9127   18.3104    3.3879 H         1 RES1    0.0000
     25 H12       -1.1647   19.8481    3.5575 H         1 RES1    0.0000
     26 C10        1.4613   23.7689    3.6551 C.3       1 RES1    0.0000
     27 C11        0.7170   24.3087    4.8595 C.3       1 RES1    0.0000
     28 H13        0.4235   25.2060    4.6783 H         1 RES1    0.0000
     29 H14       -0.0441   23.7533    5.0407 H         1 RES1    0.0000
     30 H15        1.3010   24.3130    5.6214 H         1 RES1    0.0000
     31 C12        0.5979   23.8339    2.4065 C.3       1 RES1    0.0000
     32 H16        0.3297   24.7421    2.2497 H         1 RES1    0.0000
     33 H17        1.0997   23.5137    1.6527 H         1 RES1    0.0000
     34 H18       -0.1819   23.2872    2.5273 H         1 RES1    0.0000
     35 C13        2.7537   24.5417    3.4553 C.3       1 RES1    0.0000
     36 H19        2.5511   25.4586    3.2567 H         1 RES1    0.0000
     37 H20        3.2805   24.4960    4.2555 H         1 RES1    0.0000
     38 H21        3.2462   24.1584    2.7259 H         1 RES1    0.0000
     39 N2         7.8550   21.2523    5.5784 N.3       2 RES2    0.0000
     40 O4         8.0131   22.6571    5.2265 O.3       2 RES2    0.0000
     41 O5         5.3242   21.6021    7.4518 O.3       2 RES2    0.0000
     42 O6         6.8947   18.6722    5.8537 O.3       2 RES2    0.0000
     43 C14        6.5397   20.8990    4.9791 C.3       2 RES2    0.0000
     44 H22        6.6197   20.5865    4.0535 H         2 RES2    0.0000
     45 C15        6.0401   19.8161    5.9199 C.3       2 RES2    0.0000
     46 H23        5.0980   19.5911    5.7701 H         2 RES2    0.0000
     47 C16        6.2686   20.5298    7.2532 C.3       2 RES2    0.0000
     48 H24        6.2482   19.8960    8.0012 H         2 RES2    0.0000
     49 C17        7.6772   21.0961    7.0453 C.3       2 RES2    0.0000
     50 H25        7.7666   21.9521    7.4913 H         2 RES2    0.0000
     51 H26        8.3435   20.4884    7.4042 H         2 RES2    0.0000
     52 C18        5.6774   22.1801    5.1011 C.3       2 RES2    0.0000
     53 H27        5.2000   22.3419    4.2602 H         2 RES2    0.0000
     54 C19        6.7309   23.2617    5.3136 C.3       2 RES2    0.0000
     55 C20        6.6781   24.6500    4.7608 C.3       2 RES2    0.0000
     56 H28        5.8693   24.9229    4.3008 H         2 RES2    0.0000
     57 H29        7.4978   25.0274    4.4042 H         2 RES2    0.0000
     58 C21        6.5977   24.4197    6.2614 C.3       2 RES2    0.0000
     59 H30        7.3691   24.6571    6.7979 H         2 RES2    0.0000
     60 H31        5.7406   24.5548    6.6946 H         2 RES2    0.0000
     61 C22        4.6813   22.0418    6.2416 C.3       2 RES2    0.0000
     62 H32        4.2513   22.8973    6.3984 H         2 RES2    0.0000
     63 H33        3.9946   21.4032    5.9931 H         2 RES2    0.0000
     64 C23        6.2906   17.4144    5.4785 C.3       2 RES2    0.0000
     65 C24        5.6962   17.5046    4.0918 C.3       2 RES2    0.0000
     66 H34        5.2995   16.6617    3.8583 H         2 RES2    0.0000
     67 H35        5.0236   18.1907    4.0755 H         2 RES2    0.0000
     68 H36        6.3862   17.7180    3.4611 H         2 RES2    0.0000
     69 C25        5.2527   17.0080    6.5192 C.3       2 RES2    0.0000
     70 H37        4.8562   16.1717    6.2648 H         2 RES2    0.0000
     71 H38        5.6771   16.9143    7.3740 H         2 RES2    0.0000
     72 H39        4.5723   17.6832    6.5715 H         2 RES2    0.0000
     73 C26        7.4670   16.4526    5.4983 C.3       2 RES2    0.0000
     74 H40        7.1650   15.5727    5.2590 H         2 RES2    0.0000
     75 H41        8.1305   16.7445    4.8699 H         2 RES2    0.0000
     76 H42        7.8484   16.4308    6.3798 H         2 RES2    0.0000
     77 N3         0.3576   23.3745    9.9815 N.3       3 RES3    0.0000
     78 O7         0.2522   24.6327   10.6818 O.3       3 RES3    0.0000
     79 O8         2.7757   24.1414    8.0825 O.3       3 RES3    0.0000
     80 O9         1.2542   20.9360    8.9315 O.3       3 RES3    0.0000
     81 C27        1.6973   22.8662   10.3810 C.3       3 RES3    0.0000
     82 H43        1.6630   22.3354   11.2045 H         3 RES3    0.0000
     83 C28        2.1170   22.0342    9.1731 C.3       3 RES3    0.0000
     84 H44        3.0612   21.7735    9.2045 H         3 RES3    0.0000
     85 C29        1.8301   23.0583    8.0895 C.3       3 RES3    0.0000
     86 H45        1.7897   22.6294    7.2103 H         3 RES3    0.0000
     87 C30        0.4511   23.5703    8.5018 C.3       3 RES3    0.0000
     88 H46        0.3566   24.5090    8.2776 H         3 RES3    0.0000
     89 H47       -0.2458   23.0716    8.0488 H         3 RES3    0.0000
     90 C31        2.5844   24.1335   10.5332 C.3       3 RES3    0.0000
     91 H48        3.1252   24.0669   11.3485 H         3 RES3    0.0000
     92 C32        1.5519   25.2330   10.6888 C.3       3 RES3    0.0000
     93 C33        1.6552   26.5999   10.0965 C.3       3 RES3    0.0000
     94 H49        0.8602   26.9789    9.6888 H         3 RES3    0.0000
     95 H50        2.4908   26.8460    9.6714 H         3 RES3    0.0000
     96 C34        1.6562   26.4115   11.5912 C.3       3 RES3    0.0000
     97 H51        2.4935   26.5476   12.0628 H         3 RES3    0.0000
     98 H52        0.8628   26.6783   12.0814 H         3 RES3    0.0000
     99 C35        3.4947   24.2825    9.3195 C.3       3 RES3    0.0000
    100 H53        3.9179   25.1559    9.3438 H         3 RES3    0.0000
    101 H54        4.1925   23.6117    9.3601 H         3 RES3    0.0000
    102 C36        1.6807   19.6155    9.3508 C.3       3 RES3    0.0000
    103 C37        1.9433   19.5541   10.8444 C.3       3 RES3    0.0000
    104 H55        2.2229   18.6655   11.0837 H         3 RES3    0.0000
    105 H56        2.6342   20.1792   11.0732 H         3 RES3    0.0000
    106 H57        1.1398   19.7741   11.3195 H         3 RES3    0.0000
    107 C38        2.9035   19.1729    8.5622 C.3       3 RES3    0.0000
    108 H58        3.1724   18.2974    8.8525 H         3 RES3    0.0000
    109 H59        2.6895   19.1468    7.6272 H         3 RES3    0.0000
    110 H60        3.6216   19.7937    8.7097 H         3 RES3    0.0000
    111 C39        0.4882   18.7548    8.9896 C.3       3 RES3    0.0000
    112 H61        0.6661   17.8422    9.2300 H         3 RES3    0.0000
    113 H62       -0.2858   19.0662    9.4658 H         3 RES3    0.0000
    114 H63        0.3273   18.8114    8.0453 H         3 RES3    0.0000
    115 N4         5.3248   21.9279   11.3346 N.3       4 RES4    0.0000
    116 O10        5.2614   20.5431   10.9397 O.3       4 RES4    0.0000
    117 O11        7.8920   21.7003   13.2196 O.3       4 RES4    0.0000
    118 O12        6.1558   24.5626   11.7120 O.3       4 RES4    0.0000
    119 C40        6.6147   22.4005   10.7631 C.3       4 RES4    0.0000
    120 H64        6.5196   22.7361    9.8479 H         4 RES4    0.0000
    121 C41        7.0605   23.4669   11.7260 C.3       4 RES4    0.0000
    122 H65        7.9901   23.7424   11.5820 H         4 RES4    0.0000
    123 C42        6.8688   22.6847   13.0396 C.3       4 RES4    0.0000
    124 H66        6.8432   23.2981   13.8038 H         4 RES4    0.0000
    125 C43        5.5061   22.0566   12.8154 C.3       4 RES4    0.0000
    126 H67        5.4634   21.1832   13.2370 H         4 RES4    0.0000
    127 H68        4.8104   22.6164   13.1929 H         4 RES4    0.0000
    128 C44        7.5625   21.1599   10.8491 C.3       4 RES4    0.0000
    129 H69        8.0489   21.0504   10.0047 H         4 RES4    0.0000
    130 C45        6.5887   20.0126   11.0384 C.3       4 RES4    0.0000
    131 C46        6.7853   18.8571   11.9780 C.3       4 RES4    0.0000
    132 H70        6.0250   18.5696   12.5076 H         4 RES4    0.0000
    133 H71        7.6463   18.7700   12.4147 H         4 RES4    0.0000
    134 C47        6.7273   18.6371   10.4855 C.3       4 RES4    0.0000
    135 H72        7.5530   18.4150   10.0291 H         4 RES4    0.0000
    136 H73        5.9328   18.2146   10.1220 H         4 RES4    0.0000
    137 C48        8.5449   21.3235   11.9954 C.3       4 RES4    0.0000
    138 H74        9.0179   20.4884   12.1302 H         4 RES4    0.0000
    139 H75        9.1975   22.0022   11.7608 H         4 RES4    0.0000
    140 C49        6.7158   25.8899   11.5854 C.3       4 RES4    0.0000
    141 C50        7.3020   26.0750   10.2045 C.3       4 RES4    0.0000
    142 H76        7.6722   26.9571   10.1290 H         4 RES4    0.0000
    143 H77        7.9944   25.4238   10.0605 H         4 RES4    0.0000
    144 H78        6.6131   25.9596    9.5459 H         4 RES4    0.0000
    145 C51        7.7600   26.1556   12.6540 C.3       4 RES4    0.0000
    146 H79        8.1132   27.0420   12.5448 H         4 RES4    0.0000
    147 H80        7.3568   26.0772   13.5227 H         4 RES4    0.0000
    148 H81        8.4712   25.5153   12.5727 H         4 RES4    0.0000
    149 C52        5.5211   26.8068   11.7782 C.3       4 RES4    0.0000
    150 H82        5.8057   27.7216   11.7097 H         4 RES4    0.0000
    151 H83        4.8649   26.6239   11.1023 H         4 RES4    0.0000
    152 H84        5.1382   26.6565   12.6458 H         4 RES4    0.0000
@<TRIPOS>BOND
     1    1    2 1
     2    2   16 1
     3    3    9 1
     4    4    7 1
     5    5    1 1
     6    6    5 1
     7    7    5 1
     8    8    7 1
     9    9    7 1
    10   10    9 1
    11   11    1 1
    12   12   11 1
    13   13   11 1
    14   14    5 1
    15   15   14 1
    16   16   14 1
    17   17   16 1
    18   18   17 1
    19   19   17 1
    20   20   16 1
    21   21   20 1
    22   22   20 1
    23   23    3 1
    24   24   23 1
    25   25   23 1
    26   26    4 1
    27   27   26 1
    28   28   27 1
    29   29   27 1
    30   30   27 1
    31   31   26 1
    32   32   31 1
    33   33   31 1
    34   34   31 1
    35   35   26 1
    36   36   35 1
    37   37   35 1
    38   38   35 1
    39   39   40 1
    40   40   54 1
    41   41   47 1
    42   42   45 1
    43   43   39 1
    44   44   43 1
    45   45   43 1
    46   46   45 1
    47   47   45 1
    48   48   47 1
    49   49   39 1
    50   50   49 1
    51   51   49 1
    52   52   43 1
    53   53   52 1
    54   54   52 1
    55   55   54 1
    56   56   55 1
    57   57   55 1
    58   58   54 1
    59   59   58 1
    60   60   58 1
    61   61   41 1
    62   62   61 1
    63   63   61 1
    64   64   42 1
    65   65   64 1
    66   66   65 1
    67   67   65 1
    68   68   65 1
    69   69   64 1
    70   70   69 1
    71   71   69 1
    72   72   69 1
    73   73   64 1
    74   74   73 1
    75   75   73 1
    76   76   73 1
    77   77   78 1
    78   78   92 1
    79   79   85 1
    80   80   83 1
    81   81   77 1
    82   82   81 1
    83   83   81 1
    84   84   83 1
    85   85   83 1
    86   86   85 1
    87   87   77 1
    88   88   87 1
    89   89   87 1
    90   90   81 1
    91   91   90 1
    92   92   90 1
    93   93   92 1
    94   94   93 1
    95   95   93 1
    96   96   92 1
    97   97   96 1
    98   98   96 1
    99   99   79 1
   100  100   99 1
   101  101   99 1
   102  102   80 1
   103  103  102 1
   104  104  103 1
   105  105  103 1
   106  106  103 1
   107  107  102 1
   108  108  107 1
   109  109  107 1
   110  110  107 1
   111  111  102 1
   112  112  111 1
   113  113  111 1
   114  114  111 1
   115  115  116 1
   116  116  130 1
   117  117  123 1
   118  118  121 1
   119  119  115 1
   120  120  119 1
   121  121  119 1
   122  122  121 1
   123  123  121 1
   124  124  123 1
   125  125  115 1
   126  126  125 1
   127  127  125 1
   128  128  119 1
   129  129  128 1
   130  130  128 1
   131  131  130 1
   132  132  131 1
   133  133  131 1
   134  134  130 1
   135  135  134 1
   136  136  134 1
   137  137  117 1
   138  138  137 1
   139  139  137 1
   140  140  118 1
   141  141  140 1
   142  142  141 1
   143  143  141 1
   144  144  141 1
   145  145  140 1
   146  146  145 1
   147  147  145 1
   148  148  145 1
   149  149  140 1
   150  150  149 1
   151  151  149 1
   152  152  149 1
   153    9   11 1
   154   14   23 1
   155   17   20 1
   156   47   49 1
   157   52   61 1
   158   55   58 1
   159   85   87 1
   160   90   99 1
   161   93   96 1
   162  123  125 1
   163  128  137 1
   164  131  134 1
@<TRIPOS>SUBSTRUCTURE
     1 RES1 1
     2 RES2 39
     3 RES3 77
     4 RES4 115

@<TRIPOS>CRYSIN
  10.1780   21.7800   11.6150  90.0000  90.5470  90.0000   4 1

