# MOL2 file generated by ConQuest
# Please check atom types

@<TRIPOS>MOLECULE
AWIXEL
    53    55     1
SMALL
NO_CHARGES
****
Generated from CSD

@<TRIPOS>ATOM
      1 N1        12.2259    4.4117   -0.4865 N.3       1 RES1    0.0000
      2 O1        12.6608    5.7668   -0.0786 O.3       1 RES1    0.0000
      3 O2        10.8774    4.3970    3.7263 O.3       1 RES1    0.0000
      4 H1        11.1680    4.4590    4.4913 H         1 RES1    0.0000
      5 O3        11.8970    1.5566    0.8694 O.3       1 RES1    0.0000
      6 O4        14.4344    3.9860    1.6536 O.3       1 RES1    0.0000
      7 C1        11.4447    3.9046    0.7056 C.3       1 RES1    0.0000
      8 H2        10.6352    3.4661    0.3703 H         1 RES1    0.0000
      9 C2        11.0124    5.1735    1.4793 C.3       1 RES1    0.0000
     10 H3        10.0336    5.2081    1.5156 H         1 RES1    0.0000
     11 C3        11.5091    6.2635    0.5591 C.3       1 RES1    0.0000
     12 C4        13.4568    3.6017   -0.5670 C.3       1 RES1    0.0000
     13 H4        14.1973    4.1490   -0.8746 H         1 RES1    0.0000
     14 H5        13.3346    2.8720   -1.1935 H         1 RES1    0.0000
     15 C5        13.7508    3.0577    0.8212 C.3       1 RES1    0.0000
     16 H6        14.2450    2.2133    0.7651 H         1 RES1    0.0000
     17 C6        12.3270    2.8239    1.3697 C.3       1 RES1    0.0000
     18 H7        12.2936    2.8672    2.3486 H         1 RES1    0.0000
     19 C7        11.5174    7.7288    0.8099 C.3       1 RES1    0.0000
     20 H8        12.2919    8.2334    0.5169 H         1 RES1    0.0000
     21 H9        11.1063    8.0494    1.6285 H         1 RES1    0.0000
     22 C8        10.6073    7.1460   -0.2568 C.3       1 RES1    0.0000
     23 H10        9.6560    7.1147   -0.0733 H         1 RES1    0.0000
     24 H11       10.8416    7.2987   -1.1855 H         1 RES1    0.0000
     25 C9        11.5634    5.3154    2.8833 C.3       1 RES1    0.0000
     26 H12       12.5142    5.1241    2.8879 H         1 RES1    0.0000
     27 H13       11.4309    6.2219    3.2021 H         1 RES1    0.0000
     28 C10       11.4399    0.5689    1.8219 C.3       1 RES1    0.0000
     29 C11       10.3222    1.1285    2.6846 C.3       1 RES1    0.0000
     30 H14       10.0336    0.4569    3.3084 H         1 RES1    0.0000
     31 H15       10.6423    1.8953    3.1645 H         1 RES1    0.0000
     32 H16        9.5837    1.3835    2.1262 H         1 RES1    0.0000
     33 C12       10.9510   -0.5570    0.9294 C.3       1 RES1    0.0000
     34 H17       10.6211   -1.2754    1.4727 H         1 RES1    0.0000
     35 H18       10.2471   -0.2341    0.3631 H         1 RES1    0.0000
     36 H19       11.6779   -0.8734    0.3868 H         1 RES1    0.0000
     37 C13       12.6024    0.1098    2.6939 C.3       1 RES1    0.0000
     38 H20       12.2919   -0.5441    3.3229 H         1 RES1    0.0000
     39 H21       13.2852   -0.2761    2.1400 H         1 RES1    0.0000
     40 H22       12.9641    0.8637    3.1678 H         1 RES1    0.0000
     41 C14       15.8392    3.7260    1.9037 C.3       1 RES1    0.0000
     42 C15       16.2889    4.9384    2.6793 C.3       1 RES1    0.0000
     43 H23       17.2213    4.8545    2.8932 H         1 RES1    0.0000
     44 H24       16.1522    5.7263    2.1486 H         1 RES1    0.0000
     45 H25       15.7799    5.0063    3.4906 H         1 RES1    0.0000
     46 C16       16.6231    3.6082    0.5974 C.3       1 RES1    0.0000
     47 H26       17.5477    3.4354    0.7934 H         1 RES1    0.0000
     48 H27       16.2668    2.8849    0.0746 H         1 RES1    0.0000
     49 H28       16.5474    4.4283    0.1043 H         1 RES1    0.0000
     50 C17       16.0050    2.4716    2.7374 C.3       1 RES1    0.0000
     51 H29       16.9390    2.3134    2.8945 H         1 RES1    0.0000
     52 H30       15.5541    2.5847    3.5777 H         1 RES1    0.0000
     53 H31       15.6282    1.7242    2.2688 H         1 RES1    0.0000
@<TRIPOS>BOND
     1    1    2 1
     2    2   11 1
     3    3    4 1
     4    5   17 1
     5    6   15 1
     6    7    1 1
     7    8    7 1
     8    9    7 1
     9   10    9 1
    10   11    9 1
    11   12    1 1
    12   13   12 1
    13   14   12 1
    14   15   12 1
    15   16   15 1
    16   17    7 1
    17   18   17 1
    18   19   11 1
    19   20   19 1
    20   21   19 1
    21   22   11 1
    22   23   22 1
    23   24   22 1
    24   25    3 1
    25   26   25 1
    26   27   25 1
    27   28    5 1
    28   29   28 1
    29   30   29 1
    30   31   29 1
    31   32   29 1
    32   33   28 1
    33   34   33 1
    34   35   33 1
    35   36   33 1
    36   37   28 1
    37   38   37 1
    38   39   37 1
    39   40   37 1
    40   41    6 1
    41   42   41 1
    42   43   42 1
    43   44   42 1
    44   45   42 1
    45   46   41 1
    46   47   46 1
    47   48   46 1
    48   49   46 1
    49   50   41 1
    50   51   50 1
    51   52   50 1
    52   53   50 1
    53    9   25 1
    54   15   17 1
    55   19   22 1
@<TRIPOS>SUBSTRUCTURE
     1 RES1 1

@<TRIPOS>CRYSIN
  17.6430   16.1440    6.6010  90.0000  90.0000  90.0000  18 1

