# MOL2 file generated by ConQuest
# Please check atom types

@<TRIPOS>MOLECULE
AWIZUD
    52    55     1
SMALL
NO_CHARGES
****
Generated from CSD

@<TRIPOS>ATOM
      1 C1         1.9875    8.1980    5.2955 C.ar      1 RES1    0.0000
      2 O1        -3.5405    9.3277    0.8703 O.2       1 RES1    0.0000
      3 C2         1.6326    7.8058    7.7384 C.ar      1 RES1    0.0000
      4 C3         3.2311    8.7911    5.5323 C.ar      1 RES1    0.0000
      5 H1         3.4176    9.1726    6.3827 H         1 RES1    0.0000
      6 C4         1.0036    8.0904    6.4121 C.2       1 RES1    0.0000
      7 O2        -5.1585    7.5998   10.4136 O.2       1 RES1    0.0000
      8 C5         1.5446    8.7245    8.7765 C.ar      1 RES1    0.0000
      9 H2         1.0214    9.5118    8.6761 H         1 RES1    0.0000
     10 C6         1.7493    7.6449    4.0397 C.ar      1 RES1    0.0000
     11 H3         0.9075    7.2443    3.8536 H         1 RES1    0.0000
     12 C7        -0.9669    8.7173    5.0198 C.ar      1 RES1    0.0000
     13 C8        -1.9416    7.9499    4.3777 C.ar      1 RES1    0.0000
     14 H4        -2.2085    7.1182    4.7494 H         1 RES1    0.0000
     15 C9        -0.3375    8.2204    6.2811 C.2       1 RES1    0.0000
     16 O3         3.6633    7.9327   12.1990 O.2       1 RES1    0.0000
     17 C10        2.2278    8.4842    9.9659 C.ar      1 RES1    0.0000
     18 H5         2.1927    9.1118   10.6771 H         1 RES1    0.0000
     19 C11       -1.1499    6.7654    8.1667 C.ar      1 RES1    0.0000
     20 H6        -0.3975    6.2003    8.0362 H         1 RES1    0.0000
     21 C12       -0.6326    9.9535    4.4851 C.ar      1 RES1    0.0000
     22 H7         0.0112   10.4932    4.9282 H         1 RES1    0.0000
     23 C13        2.3818    6.6457    7.9119 C.ar      1 RES1    0.0000
     24 H8         2.4486    6.0225    7.1973 H         1 RES1    0.0000
     25 C14       -1.2956    7.8928    7.3708 C.ar      1 RES1    0.0000
     26 C15       -2.4283    8.6873    7.5591 C.ar      1 RES1    0.0000
     27 H9        -2.5668    9.4510    7.0104 H         1 RES1    0.0000
     28 C16        2.7246    7.6733    3.0619 C.ar      1 RES1    0.0000
     29 H10        2.5476    7.2878    2.2122 H         1 RES1    0.0000
     30 C17        4.1957    8.8261    4.5351 C.ar      1 RES1    0.0000
     31 H11        5.0320    9.2479    4.6986 H         1 RES1    0.0000
     32 O4        -2.3388   11.0927    0.9235 O.2       1 RES1    0.0000
     33 O5         4.2959    6.0044   11.4551 O.2       1 RES1    0.0000
     34 C18        2.9526    7.3250   10.0930 C.ar      1 RES1    0.0000
     35 C19        3.9432    8.2502    3.3053 C.ar      1 RES1    0.0000
     36 H12        4.6125    8.2547    2.6307 H         1 RES1    0.0000
     37 C20       -2.0727    6.4425    9.1448 C.ar      1 RES1    0.0000
     38 H13       -1.9546    5.6752    9.6918 H         1 RES1    0.0000
     39 C21       -1.2199   10.4134    3.3203 C.ar      1 RES1    0.0000
     40 H14       -0.9952   11.2642    2.9638 H         1 RES1    0.0000
     41 N1         3.7037    7.0701   11.3385 N.pl3     1 RES1    0.0000
     42 N2        -2.7249   10.0451    1.4053 N.pl3     1 RES1    0.0000
     43 C22        3.0258    6.3826    9.0934 C.ar      1 RES1    0.0000
     44 H15        3.5089    5.5736    9.2185 H         1 RES1    0.0000
     45 O6        -3.9147    5.9899   11.0897 O.2       1 RES1    0.0000
     46 C23       -2.5199    8.3935    3.2045 C.ar      1 RES1    0.0000
     47 H16       -3.1721    7.8656    2.7607 H         1 RES1    0.0000
     48 C24       -2.1425    9.6016    2.6912 C.ar      1 RES1    0.0000
     49 C25       -3.1637    7.2615    9.3047 C.ar      1 RES1    0.0000
     50 N3        -4.1585    6.9141   10.3462 N.pl3     1 RES1    0.0000
     51 C26       -3.3552    8.3672    8.5463 C.ar      1 RES1    0.0000
     52 H17       -4.1152    8.9186    8.6863 H         1 RES1    0.0000
@<TRIPOS>BOND
     1    1    4 ar
     2    2   42 2
     3    3    6 1
     4    4    5 1
     5    6    1 1
     6    7   50 2
     7    8    3 ar
     8    9    8 1
     9   10    1 ar
    10   11   10 1
    11   12   13 ar
    12   13   14 1
    13   15    6 2
    14   16   41 2
    15   17    8 ar
    16   18   17 1
    17   19   20 1
    18   21   12 ar
    19   22   21 1
    20   23    3 ar
    21   24   23 1
    22   25   15 1
    23   26   25 ar
    24   27   26 1
    25   28   10 ar
    26   29   28 1
    27   30    4 ar
    28   31   30 1
    29   32   42 2
    30   33   41 2
    31   34   17 ar
    32   35   28 ar
    33   36   35 1
    34   37   19 ar
    35   38   37 1
    36   39   21 ar
    37   40   39 1
    38   41   34 1
    39   42   48 1
    40   43   23 ar
    41   44   43 1
    42   45   50 2
    43   46   13 ar
    44   47   46 1
    45   48   39 ar
    46   49   37 ar
    47   50   49 1
    48   51   26 ar
    49   52   51 1
    50   12   15 1
    51   19   25 ar
    52   30   35 ar
    53   34   43 ar
    54   46   48 ar
    55   49   51 ar
@<TRIPOS>SUBSTRUCTURE
     1 RES1 1

@<TRIPOS>CRYSIN
  14.7815    9.0701   21.2106  90.0000 106.7180  90.0000 231 1

