# MOL2 file generated by ConQuest
# Please check atom types

@<TRIPOS>MOLECULE
AWIZIR
    50    53     1
SMALL
NO_CHARGES
****
Generated from CSD

@<TRIPOS>ATOM
      1 C1         0.6849    4.7520    8.6653 C.ar      1 RES1    0.0000
      2 H1         1.1916    5.4065    8.2403 H         1 RES1    0.0000
      3 C2         2.9122    3.4882    7.0346 C.2       1 RES1    0.0000
      4 C3         1.2257    3.4801    8.8446 C.ar      1 RES1    0.0000
      5 C4         1.8575    3.7645    6.0139 C.ar      1 RES1    0.0000
      6 C5         2.5905    3.1764    8.3191 C.2       1 RES1    0.0000
      7 C6        -0.8043    2.8213    9.9838 C.ar      1 RES1    0.0000
      8 H2        -1.3062    2.1837   10.4374 H         1 RES1    0.0000
      9 C7         4.3057    3.5709    6.5184 C.ar      1 RES1    0.0000
     10 C8         3.5279    2.8547   10.6253 C.ar      1 RES1    0.0000
     11 H3         2.9088    3.4709   10.9467 H         1 RES1    0.0000
     12 C9         0.7733    2.8986    5.8803 C.ar      1 RES1    0.0000
     13 H4         0.6839    2.1785    6.4611 H         1 RES1    0.0000
     14 C10        4.6029    3.1156    5.2328 C.ar      1 RES1    0.0000
     15 H5         3.9419    2.6967    4.7299 H         1 RES1    0.0000
     16 C11        0.4754    2.5293    9.5377 C.ar      1 RES1    0.0000
     17 H6         0.8386    1.6893    9.7019 H         1 RES1    0.0000
     18 C12        4.4263    2.2701   11.5046 C.ar      1 RES1    0.0000
     19 H7         4.4162    2.4890   12.4084 H         1 RES1    0.0000
     20 C13       -1.3155    4.0772    9.7392 C.ar      1 RES1    0.0000
     21 C14        5.3338    1.3581   11.0122 C.ar      1 RES1    0.0000
     22 C15        3.5370    2.5335    9.2678 C.ar      1 RES1    0.0000
     23 C16        5.3409    0.9714    9.6864 C.ar      1 RES1    0.0000
     24 H8         5.9425    0.3317    9.3822 H         1 RES1    0.0000
     25 O1         6.2648    1.0225   13.1077 O.2       1 RES1    0.0000
     26 C17        4.4348    1.5547    8.8245 C.ar      1 RES1    0.0000
     27 H9         4.4203    1.2925    7.9319 H         1 RES1    0.0000
     28 C18       -0.5853    5.0617    9.1033 C.ar      1 RES1    0.0000
     29 H10       -0.9403    5.9116    8.9734 H         1 RES1    0.0000
     30 O2        -3.2727    3.5864   10.8633 O.2       1 RES1    0.0000
     31 N1         6.3612    0.8102   11.9075 N.pl3     1 RES1    0.0000
     32 N2        -2.6827    4.3988   10.1784 N.pl3     1 RES1    0.0000
     33 C19        1.9703    4.8298    5.1225 C.ar      1 RES1    0.0000
     34 H11        2.6942    5.4101    5.1867 H         1 RES1    0.0000
     35 C20       -0.1687    3.1021    4.8912 C.ar      1 RES1    0.0000
     36 H12       -0.8889    2.5181    4.8144 H         1 RES1    0.0000
     37 O3         7.2906    0.1852   11.4101 O.2       1 RES1    0.0000
     38 C21        5.8665    3.2800    4.6984 C.ar      1 RES1    0.0000
     39 H13        6.0539    2.9633    3.8438 H         1 RES1    0.0000
     40 O4        -3.1630    5.4743    9.8474 O.2       1 RES1    0.0000
     41 C22        5.3167    4.1907    7.2554 C.ar      1 RES1    0.0000
     42 H14        5.1441    4.4915    8.1192 H         1 RES1    0.0000
     43 C23        1.0134    5.0326    4.1400 C.ar      1 RES1    0.0000
     44 H15        1.0887    5.7576    3.5629 H         1 RES1    0.0000
     45 C24       -0.0514    4.1642    4.0171 C.ar      1 RES1    0.0000
     46 H16       -0.6861    4.2927    3.3505 H         1 RES1    0.0000
     47 C25        6.8476    3.9117    5.4270 C.ar      1 RES1    0.0000
     48 H17        7.6934    4.0375    5.0588 H         1 RES1    0.0000
     49 C26        6.5747    4.3587    6.7043 C.ar      1 RES1    0.0000
     50 H18        7.2425    4.7757    7.1988 H         1 RES1    0.0000
@<TRIPOS>BOND
     1    1    2 1
     2    3    5 1
     3    4    1 ar
     4    5   12 ar
     5    6    3 2
     6    7    8 1
     7    9    3 1
     8   10   11 1
     9   12   13 1
    10   14    9 ar
    11   15   14 1
    12   16    4 ar
    13   17   16 1
    14   18   10 ar
    15   19   18 1
    16   20    7 ar
    17   21   18 ar
    18   22    6 1
    19   23   21 ar
    20   24   23 1
    21   25   31 2
    22   26   22 ar
    23   27   26 1
    24   28    1 ar
    25   29   28 1
    26   30   32 2
    27   31   21 1
    28   32   20 1
    29   33    5 ar
    30   34   33 1
    31   35   12 ar
    32   36   35 1
    33   37   31 2
    34   38   14 ar
    35   39   38 1
    36   40   32 2
    37   41    9 ar
    38   42   41 1
    39   43   33 ar
    40   44   43 1
    41   45   35 ar
    42   46   45 1
    43   47   38 ar
    44   48   47 1
    45   49   41 ar
    46   50   49 1
    47    4    6 1
    48    7   16 ar
    49   10   22 ar
    50   20   28 ar
    51   23   26 ar
    52   43   45 ar
    53   47   49 ar
@<TRIPOS>SUBSTRUCTURE
     1 RES1 1

@<TRIPOS>CRYSIN
  10.5231    8.7983   22.9441  90.0000  95.4899  90.0000  14 1

