# MOL2 file generated by ConQuest
# Please check atom types

@<TRIPOS>MOLECULE
AWODEX
    44    48     1
SMALL
NO_CHARGES
****
Generated from CSD

@<TRIPOS>ATOM
      1 N1         3.8891    0.3186   12.3288 N.am      1 RES1    0.0000
      2 N2         4.3876    1.6869    9.1082 N.pl3     1 RES1    0.0000
      3 N3         2.8441    0.4403    8.0735 N.2       1 RES1    0.0000
      4 O1         2.3006    1.6176   11.3006 O.2       1 RES1    0.0000
      5 O2         3.3771   -0.3124    9.1806 O.3       1 RES1    0.0000
      6 C1         5.1093   -0.2827   11.9598 C.ar      1 RES1    0.0000
      7 C2         6.0131   -0.9361   12.7613 C.ar      1 RES1    0.0000
      8 H1         5.8689   -1.0296   13.6752 H         1 RES1    0.0000
      9 C3         7.1492   -1.4500   12.1570 C.ar      1 RES1    0.0000
     10 H2         7.7777   -1.8977   12.6760 H         1 RES1    0.0000
     11 C4         7.3669   -1.3116   10.8049 C.ar      1 RES1    0.0000
     12 H3         8.1345   -1.6706   10.4217 H         1 RES1    0.0000
     13 C5         6.4496   -0.6408   10.0101 C.ar      1 RES1    0.0000
     14 H4         6.5973   -0.5361    9.0985 H         1 RES1    0.0000
     15 C6         5.3207   -0.1364   10.5990 C.ar      1 RES1    0.0000
     16 C7         4.1480    0.5660   10.0061 C.3       1 RES1    0.0000
     17 C8         3.3097    0.9345   11.2787 C.2       1 RES1    0.0000
     18 C9         3.4465    1.5650    8.0964 C.2       1 RES1    0.0000
     19 C10        3.2033    2.6075    7.0863 C.ar      1 RES1    0.0000
     20 C11        1.9147    2.8256    6.6363 C.ar      1 RES1    0.0000
     21 H5         1.2144    2.3060    6.9596 H         1 RES1    0.0000
     22 C12        1.6689    3.8111    5.7114 C.ar      1 RES1    0.0000
     23 H6         0.8013    3.9615    5.4121 H         1 RES1    0.0000
     24 C13        2.6998    4.5725    5.2283 C.ar      1 RES1    0.0000
     25 H7         2.5283    5.2465    4.6109 H         1 RES1    0.0000
     26 C14        3.9780    4.3471    5.6491 C.ar      1 RES1    0.0000
     27 H8         4.6757    4.8588    5.3085 H         1 RES1    0.0000
     28 C15        4.2364    3.3643    6.5748 C.ar      1 RES1    0.0000
     29 H9         5.1093    3.2094    6.8560 H         1 RES1    0.0000
     30 C16        4.8886    2.9239    9.6235 C.ar      1 RES1    0.0000
     31 C17        4.0427    3.9769    9.8895 C.ar      1 RES1    0.0000
     32 H10        3.1292    3.8850    9.7411 H         1 RES1    0.0000
     33 C18        4.5409    5.1647   10.3727 C.ar      1 RES1    0.0000
     34 H11        3.9587    5.8725   10.5305 H         1 RES1    0.0000
     35 C19        5.8869    5.3271   10.6286 C.ar      1 RES1    0.0000
     36 C20        6.7142    4.2584   10.3754 C.ar      1 RES1    0.0000
     37 H12        7.6233    4.3408   10.5541 H         1 RES1    0.0000
     38 C21        6.2369    3.0644    9.8629 C.ar      1 RES1    0.0000
     39 H13        6.8209    2.3639    9.6820 H         1 RES1    0.0000
     40 C22        6.4197    6.6211   11.1755 C.3       1 RES1    0.0000
     41 H14        7.3316    6.5013   11.4498 H         1 RES1    0.0000
     42 H15        5.8912    6.8914   11.9298 H         1 RES1    0.0000
     43 H16        6.3767    7.2981   10.4951 H         1 RES1    0.0000
     44 H17        3.5698    0.3555   13.1651 H         1 RES1    0.0000
@<TRIPOS>BOND
     1    1    6 1
     2    2   16 1
     3    3    5 1
     4    4   17 2
     5    5   16 1
     6    6    7 ar
     7    7    8 1
     8    9    7 ar
     9   10    9 1
    10   11    9 ar
    11   12   11 1
    12   13   11 ar
    13   14   13 1
    14   15    6 ar
    15   16   15 1
    16   17    1 1
    17   18    2 1
    18   19   18 1
    19   20   19 ar
    20   21   20 1
    21   22   20 ar
    22   23   22 1
    23   24   22 ar
    24   25   24 1
    25   26   24 ar
    26   27   26 1
    27   28   19 ar
    28   29   28 1
    29   30    2 1
    30   31   30 ar
    31   32   31 1
    32   33   31 ar
    33   34   33 1
    34   35   33 ar
    35   36   35 ar
    36   37   36 1
    37   38   30 ar
    38   39   38 1
    39   40   35 1
    40   41   40 1
    41   42   40 1
    42   43   40 1
    43   44    1 1
    44    3   18 2
    45   13   15 ar
    46   16   17 1
    47   26   28 ar
    48   36   38 ar
@<TRIPOS>SUBSTRUCTURE
     1 RES1 1

@<TRIPOS>CRYSIN
   6.6117   10.4562   13.3718  83.3400  79.7120  77.5530   2 1

