# MOL2 file generated by ConQuest
# Please check atom types

@<TRIPOS>MOLECULE
AWUCOK
    30    31     1
SMALL
NO_CHARGES
****
Generated from CSD

@<TRIPOS>ATOM
      1 O1        -0.7871   17.9039   -2.0473 O.2       1 RES1    0.0000
      2 O2        -0.8411   15.7801   -2.2840 O.2       1 RES1    0.0000
      3 N1         0.4553   12.7919    1.3925 N.2       1 RES1    0.0000
      4 N2        -0.5870   16.7783   -1.6382 N.pl3     1 RES1    0.0000
      5 C1         2.0617   11.1609    2.2625 C.ar      1 RES1    0.0000
      6 C2         2.3821    9.8580    2.5862 C.ar      1 RES1    0.0000
      7 C3         1.4074    8.8792    2.5260 C.ar      1 RES1    0.0000
      8 C4         0.1168    9.2097    2.1267 C.ar      1 RES1    0.0000
      9 C5        -0.2215   10.5049    1.7674 C.ar      1 RES1    0.0000
     10 C6         0.7680   11.4977    1.8520 C.ar      1 RES1    0.0000
     11 C7         0.8713   13.8133    2.0198 C.2       1 RES1    0.0000
     12 C8         0.6663   15.1655    1.4757 C.ar      1 RES1    0.0000
     13 C9         0.1344   15.3308    0.1937 C.ar      1 RES1    0.0000
     14 C10       -0.0223   16.6130   -0.2873 C.ar      1 RES1    0.0000
     15 C11        0.3200   17.7428    0.4328 C.ar      1 RES1    0.0000
     16 C12        0.8415   17.5624    1.7043 C.ar      1 RES1    0.0000
     17 C13        1.0139   16.2877    2.2210 C.ar      1 RES1    0.0000
     18 C14       -1.6151   10.8430    1.3057 C.3       1 RES1    0.0000
     19 H1         2.7499   11.8681    2.2343 H         1 RES1    0.0000
     20 H2         3.3137    9.6408    2.8504 H         1 RES1    0.0000
     21 H3         1.6129    7.9512    2.7242 H         1 RES1    0.0000
     22 H4        -0.5554    8.5443    2.1081 H         1 RES1    0.0000
     23 H5         1.3694   13.7583    2.8950 H         1 RES1    0.0000
     24 H6        -0.1267   14.5626   -0.3340 H         1 RES1    0.0000
     25 H7         0.2294   18.6054    0.0594 H         1 RES1    0.0000
     26 H8         1.1084   18.3494    2.1824 H         1 RES1    0.0000
     27 H9         1.3995   16.1562    3.0805 H         1 RES1    0.0000
     28 H10       -2.1304   11.2750    2.0265 H         1 RES1    0.0000
     29 H11       -2.1040   10.0888    1.0021 H         1 RES1    0.0000
     30 H12       -1.6027   11.4905    0.5345 H         1 RES1    0.0000
@<TRIPOS>BOND
     1    1    4 2
     2    2    4 2
     3    3   10 1
     4    4   14 1
     5    5    6 ar
     6    6    7 ar
     7    7    8 ar
     8    8    9 ar
     9    9   10 ar
    10   10    5 ar
    11   11    3 2
    12   12   11 1
    13   13   12 ar
    14   14   13 ar
    15   15   14 ar
    16   16   15 ar
    17   17   12 ar
    18   18    9 1
    19   19    5 1
    20   20    6 1
    21   21    7 1
    22   22    8 1
    23   23   11 1
    24   24   13 1
    25   25   15 1
    26   26   16 1
    27   27   17 1
    28   28   18 1
    29   29   18 1
    30   30   18 1
    31   16   17 ar
@<TRIPOS>SUBSTRUCTURE
     1 RES1 1

@<TRIPOS>CRYSIN
   7.3935   21.3340    7.4230  90.0000  89.8220  90.0000  14 2

