# MOL2 file generated by ConQuest
# Please check atom types

@<TRIPOS>MOLECULE
AWUJIM
    35    36     1
SMALL
NO_CHARGES
****
Generated from CSD

@<TRIPOS>ATOM
      1 N1         2.9954    1.9932    2.6846 N.2       1 RES1    0.0000
      2 N2         2.6951    2.3433    1.3678 N.am      1 RES1    0.0000
      3 H1         2.4686    3.1500    1.1729 H         1 RES1    0.0000
      4 N3         0.2088    4.2437   -2.8777 N.pl3     1 RES1    0.0000
      5 O1         3.8630    2.2793    9.0610 O.3       1 RES1    0.0000
      6 O2         3.0643    0.2215    0.6039 O.2       1 RES1    0.0000
      7 O3        -0.2554    4.8768   -1.9260 O.2       1 RES1    0.0000
      8 O4        -0.0907    4.4529   -4.0541 O.2       1 RES1    0.0000
      9 C1         3.1072    2.7154    4.9709 C.ar      1 RES1    0.0000
     10 C2         3.9871    1.7395    5.4070 C.ar      1 RES1    0.0000
     11 H2         4.3910    1.1846    4.7791 H         1 RES1    0.0000
     12 C3         4.2853    1.5640    6.7484 C.ar      1 RES1    0.0000
     13 H3         4.8930    0.9103    7.0114 H         1 RES1    0.0000
     14 C4         3.6672    2.3770    7.7011 C.ar      1 RES1    0.0000
     15 C5         2.7880    3.3612    7.2898 C.ar      1 RES1    0.0000
     16 H4         2.3775    3.9063    7.9222 H         1 RES1    0.0000
     17 C6         2.5141    3.5426    5.9437 C.ar      1 RES1    0.0000
     18 H5         1.9329    4.2182    5.6790 H         1 RES1    0.0000
     19 C7         2.7920    2.9251    3.5448 C.2       1 RES1    0.0000
     20 H6         2.4427    3.7406    3.2654 H         1 RES1    0.0000
     21 C8         2.7626    1.3997    0.4001 C.2       1 RES1    0.0000
     22 C9         2.4231    1.8700   -0.9945 C.ar      1 RES1    0.0000
     23 C10        1.4888    2.8796   -1.2629 C.ar      1 RES1    0.0000
     24 H7         1.0741    3.3402   -0.5701 H         1 RES1    0.0000
     25 C11        1.1969    3.1764   -2.5863 C.ar      1 RES1    0.0000
     26 C12        1.8081    2.5213   -3.6527 C.ar      1 RES1    0.0000
     27 H8         1.5913    2.7418   -4.5301 H         1 RES1    0.0000
     28 C13        2.7429    1.5376   -3.3862 C.ar      1 RES1    0.0000
     29 H9         3.1713    1.0986   -4.0845 H         1 RES1    0.0000
     30 C14        3.0362    1.2095   -2.0685 C.ar      1 RES1    0.0000
     31 H10        3.6529    0.5358   -1.8959 H         1 RES1    0.0000
     32 C15        4.8418    1.3455    9.5306 C.3       1 RES1    0.0000
     33 H11        4.5895    0.4571    9.2677 H         1 RES1    0.0000
     34 H12        4.8962    1.3929   10.4886 H         1 RES1    0.0000
     35 H13        5.6975    1.5596    9.1497 H         1 RES1    0.0000
@<TRIPOS>BOND
     1    1    2 1
     2    2    3 1
     3    4    7 2
     4    5   14 1
     5    6   21 2
     6    8    4 2
     7    9   10 ar
     8   10   11 1
     9   12   10 ar
    10   13   12 1
    11   14   12 ar
    12   15   14 ar
    13   16   15 1
    14   17    9 ar
    15   18   17 1
    16   19    1 2
    17   20   19 1
    18   21    2 1
    19   22   21 1
    20   23   22 ar
    21   24   23 1
    22   25    4 1
    23   26   25 ar
    24   27   26 1
    25   28   26 ar
    26   29   28 1
    27   30   22 ar
    28   31   30 1
    29   32    5 1
    30   33   32 1
    31   34   32 1
    32   35   32 1
    33    9   19 1
    34   15   17 ar
    35   23   25 ar
    36   28   30 ar
@<TRIPOS>SUBSTRUCTURE
     1 RES1 1

@<TRIPOS>CRYSIN
  13.6670    4.8890   22.5220  90.0000 104.1130  90.0000  14 1

