# MOL2 file generated by ConQuest
# Please check atom types

@<TRIPOS>MOLECULE
AWULAG
    35    36     1
SMALL
NO_CHARGES
****
Generated from CSD

@<TRIPOS>ATOM
      1 N1        -0.9481    8.4292    4.9340 N.2       1 RES1    0.0000
      2 N2        -1.0496    7.5624    6.0166 N.am      1 RES1    0.0000
      3 H1        -0.7579    7.7964    6.7911 H         1 RES1    0.0000
      4 N3        -1.3913    1.8376    7.7336 N.pl3     1 RES1    0.0000
      5 O1        -0.4460   12.2497    5.8968 O.3       1 RES1    0.0000
      6 O2        -2.0526    5.9736    4.7547 O.2       1 RES1    0.0000
      7 O3        -1.2340    1.4497    6.5852 O.2       1 RES1    0.0000
      8 O4        -1.4119    1.1235    8.7161 O.2       1 RES1    0.0000
      9 C1        -0.4153   10.6275    4.2099 C.ar      1 RES1    0.0000
     10 C2        -0.3165   11.9776    4.5580 C.ar      1 RES1    0.0000
     11 C3        -0.1134   12.9416    3.5909 C.ar      1 RES1    0.0000
     12 H2        -0.0673   13.8409    3.8255 H         1 RES1    0.0000
     13 C4         0.0186   12.5584    2.2828 C.ar      1 RES1    0.0000
     14 H3         0.1510   13.2087    1.6309 H         1 RES1    0.0000
     15 C5        -0.0413   11.2370    1.9117 C.ar      1 RES1    0.0000
     16 H4         0.0718   10.9900    1.0224 H         1 RES1    0.0000
     17 C6        -0.2701   10.2827    2.8780 C.ar      1 RES1    0.0000
     18 H5        -0.3283    9.3888    2.6302 H         1 RES1    0.0000
     19 C7        -0.2105   13.5788    6.3499 C.3       1 RES1    0.0000
     20 H6         0.6240   13.8941    5.9949 H         1 RES1    0.0000
     21 H7        -0.1741   13.5898    7.3093 H         1 RES1    0.0000
     22 H8        -0.9218   14.1511    6.0509 H         1 RES1    0.0000
     23 C8        -0.6136    9.6171    5.2435 C.2       1 RES1    0.0000
     24 H9        -0.4944    9.8437    6.1377 H         1 RES1    0.0000
     25 C9        -1.6051    6.3644    5.8380 C.2       1 RES1    0.0000
     26 C10       -1.6764    5.4888    7.0481 C.ar      1 RES1    0.0000
     27 C11       -1.5343    4.1277    6.8611 C.ar      1 RES1    0.0000
     28 H10       -1.3912    3.7845    6.0082 H         1 RES1    0.0000
     29 C12       -1.6050    3.2893    7.9353 C.ar      1 RES1    0.0000
     30 C13       -1.8545    3.7549    9.1936 C.ar      1 RES1    0.0000
     31 H11       -1.9024    3.1641    9.9100 H         1 RES1    0.0000
     32 C14       -2.0341    5.0997    9.3960 C.ar      1 RES1    0.0000
     33 H12       -2.2272    5.4241   10.2461 H         1 RES1    0.0000
     34 C15       -1.9242    5.9813    8.3155 C.ar      1 RES1    0.0000
     35 H13       -2.0170    6.8983    8.4493 H         1 RES1    0.0000
@<TRIPOS>BOND
     1    1    2 1
     2    2    3 1
     3    4    7 2
     4    5   10 1
     5    6   25 2
     6    8    4 2
     7    9   10 ar
     8   10   11 ar
     9   11   12 1
    10   13   11 ar
    11   14   13 1
    12   15   13 ar
    13   16   15 1
    14   17    9 ar
    15   18   17 1
    16   19    5 1
    17   20   19 1
    18   21   19 1
    19   22   19 1
    20   23    1 2
    21   24   23 1
    22   25    2 1
    23   26   25 1
    24   27   26 ar
    25   28   27 1
    26   29    4 1
    27   30   29 ar
    28   31   30 1
    29   32   30 ar
    30   33   32 1
    31   34   26 ar
    32   35   34 1
    33    9   23 1
    34   15   17 ar
    35   27   29 ar
    36   32   34 ar
@<TRIPOS>SUBSTRUCTURE
     1 RES1 1

@<TRIPOS>CRYSIN
   6.9886   29.5430    7.4163  90.0000 109.2290  90.0000 231 1

