# MOL2 file generated by ConQuest
# Please check atom types

@<TRIPOS>MOLECULE
AWUXOF
    54    55     1
SMALL
NO_CHARGES
****
Generated from CSD

@<TRIPOS>ATOM
      1 C1         5.0221   11.4155    7.3809 C.3       1 RES1    0.0000
      2 C2         3.6365   10.4945    5.5010 C.3       1 RES1    0.0000
      3 C3         3.5933    9.4135    7.7885 C.3       1 RES1    0.0000
      4 C4         4.4122   10.1610    6.7553 C.3       1 RES1    0.0000
      5 O1         5.6187    9.3824    6.4183 O.3       1 RES1    0.0000
      6 C5         5.5117    8.1429    5.9096 C.2       1 RES1    0.0000
      7 O2         4.4550    7.6240    5.5694 O.2       1 RES1    0.0000
      8 N1         6.7013    7.5467    5.7969 N.am      1 RES1    0.0000
      9 C6         7.9845    8.0673    6.2382 C.3       1 RES1    0.0000
     10 C7         8.5130    7.4599    7.5558 C.3       1 RES1    0.0000
     11 C8         8.7190    5.9203    7.3904 C.3       1 RES1    0.0000
     12 C9         9.8283    5.5559    6.4615 C.2       1 RES1    0.0000
     13 O3        10.9805    5.4294    6.7216 O.2       1 RES1    0.0000
     14 C10        7.4967    7.6892    8.6964 C.3       1 RES1    0.0000
     15 C11        8.0284    7.3384   10.0761 C.3       1 RES1    0.0000
     16 C12        9.3270    8.0524   10.3837 C.3       1 RES1    0.0000
     17 C13       10.3647    7.8020    9.3052 C.3       1 RES1    0.0000
     18 C14        9.8272    8.1739    7.9212 C.3       1 RES1    0.0000
     19 O4         9.3348    5.3338    5.1892 O.3       1 RES1    0.0000
     20 N2        10.3423    5.0477    4.2645 N.am      1 RES1    0.0000
     21 C15       10.8501    3.7709    4.0981 C.2       1 RES1    0.0000
     22 O5        10.4748    2.8027    4.6973 O.2       1 RES1    0.0000
     23 C16       11.8951    3.9047    3.0238 C.3       1 RES1    0.0000
     24 C17       11.9928    5.3724    2.7026 C.3       1 RES1    0.0000
     25 C18       10.9560    6.0492    3.5683 C.2       1 RES1    0.0000
     26 O6        10.6830    7.2095    3.6873 O.2       1 RES1    0.0000
     27 H1         7.8974    9.0243    6.3930 H         1 RES1    0.0000
     28 H2         9.6708    7.8095   11.2484 H         1 RES1    0.0000
     29 H3         8.6195    7.8839    5.5083 H         1 RES1    0.0000
     30 H4         7.2847    8.6276    8.7101 H         1 RES1    0.0000
     31 H5         7.9347    5.5286    7.0039 H         1 RES1    0.0000
     32 H6         8.9351    5.5534    8.2467 H         1 RES1    0.0000
     33 H7         6.7808    7.2145    8.5416 H         1 RES1    0.0000
     34 H8         4.2553   10.8961    4.7921 H         1 RES1    0.0000
     35 H9        11.1129    8.3301    9.4474 H         1 RES1    0.0000
     36 H10        6.6261    6.7806    5.4451 H         1 RES1    0.0000
     37 H11        2.8906    9.9664    8.1414 H         1 RES1    0.0000
     38 H12       10.6779    6.8674    9.3315 H         1 RES1    0.0000
     39 H13        7.4101    7.5368   10.8060 H         1 RES1    0.0000
     40 H14        5.6501   11.1564    8.0992 H         1 RES1    0.0000
     41 H15        4.1203    9.1111    8.6364 H         1 RES1    0.0000
     42 H16        3.1845    8.6152    7.3831 H         1 RES1    0.0000
     43 H17       10.5094    7.9954    7.1935 H         1 RES1    0.0000
     44 H18        9.1833    8.9871   10.4479 H         1 RES1    0.0000
     45 H19        8.1820    6.3591   10.1320 H         1 RES1    0.0000
     46 H20        9.6429    9.1359    7.9518 H         1 RES1    0.0000
     47 H21       12.8160    5.6898    3.0122 H         1 RES1    0.0000
     48 H22       12.6852    3.5700    3.4440 H         1 RES1    0.0000
     49 H23        5.5944   11.8754    6.6458 H         1 RES1    0.0000
     50 H24        2.9477   11.1564    5.7084 H         1 RES1    0.0000
     51 H25        4.2912   11.9993    7.6253 H         1 RES1    0.0000
     52 H26       11.7231    5.5286    1.8115 H         1 RES1    0.0000
     53 H27        3.2375    9.7928    5.1081 H         1 RES1    0.0000
     54 H28       11.7279    3.3593    2.2434 H         1 RES1    0.0000
@<TRIPOS>BOND
     1    1    4 1
     2    2    4 1
     3    3    4 1
     4    4    5 1
     5    5    6 1
     6    6    7 2
     7    8    6 1
     8    9    8 1
     9   10    9 1
    10   11   10 1
    11   12   11 1
    12   13   12 2
    13   14   10 1
    14   15   14 1
    15   16   15 1
    16   17   16 1
    17   18   10 1
    18   19   12 1
    19   20   19 1
    20   21   20 1
    21   22   21 2
    22   23   21 1
    23   24   23 1
    24   25   20 1
    25   26   25 2
    26   27    9 1
    27   28   16 1
    28   29    9 1
    29   30   14 1
    30   31   11 1
    31   32   11 1
    32   33   14 1
    33   34    2 1
    34   35   17 1
    35   36    8 1
    36   37    3 1
    37   38   17 1
    38   39   15 1
    39   40    1 1
    40   41    3 1
    41   42    3 1
    42   43   18 1
    43   44   16 1
    44   45   15 1
    45   46   18 1
    46   47   24 1
    47   48   23 1
    48   49    1 1
    49   50    2 1
    50   51    1 1
    51   52   24 1
    52   53    2 1
    53   54   23 1
    54   17   18 1
    55   24   25 1
@<TRIPOS>SUBSTRUCTURE
     1 RES1 1

@<TRIPOS>CRYSIN
  15.0680   12.3960   11.3730  90.0000 112.1700  90.0000  14 1

