# MOL2 file generated by ConQuest
# Please check atom types

@<TRIPOS>MOLECULE
AWUYEX
    42    44     1
SMALL
NO_CHARGES
****
Generated from CSD

@<TRIPOS>ATOM
      1 C1         2.8627    1.1133    6.6851 C.ar      1 RES1    0.0000
      2 H1         2.4799    0.3745    7.1012 H         1 RES1    0.0000
      3 C2         2.5147    1.4561    5.4058 C.ar      1 RES1    0.0000
      4 H2         1.8910    0.9423    4.9477 H         1 RES1    0.0000
      5 C3         3.0760    2.5513    4.7895 C.ar      1 RES1    0.0000
      6 H3         2.8235    2.7685    3.9208 H         1 RES1    0.0000
      7 C4         4.0018    3.3241    5.4390 C.ar      1 RES1    0.0000
      8 H4         4.3794    4.0658    5.0230 H         1 RES1    0.0000
      9 C5         4.3623    2.9755    6.7283 C.ar      1 RES1    0.0000
     10 C6         3.8005    1.8967    7.3480 C.ar      1 RES1    0.0000
     11 C7         4.3077    1.7637    8.7390 C.3       1 RES1    0.0000
     12 H5         3.6279    2.1167    9.3509 H         1 RES1    0.0000
     13 C8         5.3131    3.6752    7.6512 C.3       1 RES1    0.0000
     14 H6         4.8631    4.4678    8.0130 H         1 RES1    0.0000
     15 C9         6.7875    3.0063   10.6944 C.ar      1 RES1    0.0000
     16 C10        7.0652    3.6164   11.9471 C.ar      1 RES1    0.0000
     17 C11        8.2181    3.3133   12.6597 C.ar      1 RES1    0.0000
     18 H7         8.3896    3.7230   13.4775 H         1 RES1    0.0000
     19 C12        9.0894    2.4088   12.1452 C.ar      1 RES1    0.0000
     20 C13        8.8473    1.7666   10.9367 C.ar      1 RES1    0.0000
     21 H8         9.4480    1.1355   10.6114 H         1 RES1    0.0000
     22 C14        7.7256    2.0716   10.2362 C.ar      1 RES1    0.0000
     23 H9         7.5739    1.6445    9.4240 H         1 RES1    0.0000
     24 C15        5.5543   -0.2148    8.2941 C.3       1 RES1    0.0000
     25 H10        5.0454   -0.6722    7.6213 H         1 RES1    0.0000
     26 H11        6.0639   -0.8532    8.7976 H         1 RES1    0.0000
     27 H12        6.1496    0.4109    7.8747 H         1 RES1    0.0000
     28 C16        7.2828    3.0640    6.4549 C.3       1 RES1    0.0000
     29 H13        7.6113    2.4350    7.1012 H         1 RES1    0.0000
     30 H14        8.0231    3.4624    5.9901 H         1 RES1    0.0000
     31 H15        6.7174    2.6095    5.8264 H         1 RES1    0.0000
     32 N1         5.4535    2.6885    8.7350 N.3       1 RES1    0.0000
     33 N2         5.6920    3.2948    9.9734 N.3       1 RES1    0.0000
     34 H16        5.1242    3.8641   10.2794 H         1 RES1    0.0000
     35 N3         6.1748    4.5663   12.5530 N.pl3     1 RES1    0.0000
     36 N4        10.2787    2.0611   12.8943 N.pl3     1 RES1    0.0000
     37 O1         5.1504    4.8779   11.9548 O.2       1 RES1    0.0000
     38 O2         6.4520    5.0675   13.6130 O.2       1 RES1    0.0000
     39 O3        11.0882    1.3200   12.3986 O.2       1 RES1    0.0000
     40 O4        10.4061    2.5090   14.0187 O.2       1 RES1    0.0000
     41 O5         4.6665    0.4850    9.1695 O.3       1 RES1    0.0000
     42 O6         6.5399    4.0756    7.1144 O.3       1 RES1    0.0000
@<TRIPOS>BOND
     1    1    2 1
     2    3    1 ar
     3    4    3 1
     4    5    3 ar
     5    6    5 1
     6    7    5 ar
     7    8    7 1
     8    9    7 ar
     9   10    1 ar
    10   11   10 1
    11   12   11 1
    12   13    9 1
    13   14   13 1
    14   15   16 ar
    15   16   17 ar
    16   17   18 1
    17   19   17 ar
    18   20   19 ar
    19   21   20 1
    20   22   15 ar
    21   23   22 1
    22   24   25 1
    23   26   24 1
    24   27   24 1
    25   28   29 1
    26   30   28 1
    27   31   28 1
    28   32   11 1
    29   33   15 1
    30   34   33 1
    31   35   16 1
    32   36   19 1
    33   37   35 2
    34   38   35 2
    35   39   36 2
    36   40   36 2
    37   41   11 1
    38   42   13 1
    39    9   10 ar
    40   13   32 1
    41   20   22 ar
    42   24   41 1
    43   28   42 1
    44   32   33 1
@<TRIPOS>SUBSTRUCTURE
     1 RES1 1

@<TRIPOS>CRYSIN
   7.7270   10.2440   11.3260  86.0760  77.7050  70.7940   2 1

