# MOL2 file generated by ConQuest
# Please check atom types

@<TRIPOS>MOLECULE
AXAFIP
    60    64     2
SMALL
NO_CHARGES
****
Generated from CSD

@<TRIPOS>ATOM
      1 C1         1.7492    3.1823   16.5593 C.ar      1 RES1    0.0000
      2 C2         0.5154    3.2043   15.9776 C.ar      1 RES1    0.0000
      3 C3         0.3862    3.1051   14.5975 C.ar      1 RES1    0.0000
      4 C4         1.5225    2.9052   13.8598 C.ar      1 RES1    0.0000
      5 C5         2.8003    2.7894   14.4122 C.ar      1 RES1    0.0000
      6 C6         2.9081    3.0148   15.7968 C.ar      1 RES1    0.0000
      7 C7         5.3184    3.5682   16.0462 C.2       1 RES1    0.0000
      8 C8         3.9228    2.1553   13.6473 C.2       1 RES1    0.0000
      9 C9         6.3426    2.0877   13.2232 C.3       1 RES1    0.0000
     10 C10        7.4295    3.0299   13.6898 C.3       1 RES1    0.0000
     11 C11        6.7545    4.3326   14.0411 C.3       1 RES1    0.0000
     12 C12        5.3807    3.9143   14.5497 C.3       1 RES1    0.0000
     13 C13        3.4348    3.3987    6.2170 C.ar      2 RES2    0.0000
     14 C14        2.7834    3.4242    7.4310 C.ar      2 RES2    0.0000
     15 C15        3.5023    3.4669    8.6115 C.ar      2 RES2    0.0000
     16 C16        4.8701    3.5386    8.5302 C.ar      2 RES2    0.0000
     17 C17        5.5814    3.5800    7.3287 C.ar      2 RES2    0.0000
     18 C18        4.8347    3.4366    6.1599 C.ar      2 RES2    0.0000
     19 C19        6.5722    2.7859    4.4991 C.2       2 RES2    0.0000
     20 C20        7.0083    4.0500    7.3206 C.2       2 RES2    0.0000
     21 C21        9.2178    3.9039    6.2720 C.3       2 RES2    0.0000
     22 C22        9.6812    3.0906    5.0764 C.3       2 RES2    0.0000
     23 C23        8.8448    1.8265    5.1327 C.3       2 RES2    0.0000
     24 C24        7.4844    2.3090    5.6238 C.3       2 RES2    0.0000
     25 H1         1.8205    3.2808   17.4816 H         1 RES1    0.0000
     26 H2        -0.2445    3.2857   16.5080 H         1 RES1    0.0000
     27 H3        -0.4460    3.1726   14.1871 H         1 RES1    0.0000
     28 H4         6.2904    2.0643   12.2543 H         1 RES1    0.0000
     29 H5         6.4916    1.1883   13.5551 H         1 RES1    0.0000
     30 H6         4.8912    3.6392    4.2617 H         2 RES2    0.0000
     31 H7         4.7104    4.5939   14.3266 H         1 RES1    0.0000
     32 H8         6.6771    4.9040   13.2600 H         1 RES1    0.0000
     33 H9         7.2501    4.8055   14.7276 H         1 RES1    0.0000
     34 H10        7.8826    2.6653   14.4661 H         1 RES1    0.0000
     35 H11        8.0821    3.1671   12.9857 H         1 RES1    0.0000
     36 H12        2.9419    3.3566    5.4294 H         2 RES2    0.0000
     37 H13        1.8544    3.4118    7.4568 H         2 RES2    0.0000
     38 H14        3.0724    3.4476    9.4361 H         2 RES2    0.0000
     39 H15        9.7569    3.7137    7.0558 H         2 RES2    0.0000
     40 H16        9.2558    4.8544    6.0838 H         2 RES2    0.0000
     41 H17        4.0530    2.8673   17.2907 H         1 RES1    0.0000
     42 H18        7.0432    1.6135    6.1544 H         2 RES2    0.0000
     43 H19        9.2297    1.1841    5.7486 H         2 RES2    0.0000
     44 H20        8.7737    1.4185    4.2553 H         2 RES2    0.0000
     45 H21        9.5245    3.5724    4.2489 H         2 RES2    0.0000
     46 H22       10.6265    2.8831    5.1455 H         2 RES2    0.0000
     47 N1         5.4178    3.3808    4.8775 N.am      2 RES2    0.0000
     48 N2         5.6366    3.5007    9.8028 N.pl3     2 RES2    0.0000
     49 N3         7.8304    3.4552    6.4624 N.am      2 RES2    0.0000
     50 N4         4.1367    3.0320   16.4738 N.am      1 RES1    0.0000
     51 N5         1.3659    2.9038   12.3802 N.pl3     1 RES1    0.0000
     52 N6         5.1240    2.6805   13.8111 N.am      1 RES1    0.0000
     53 O1         3.7305    1.1262   12.9940 O.2       1 RES1    0.0000
     54 O2         6.2491    3.7226   16.8055 O.2       1 RES1    0.0000
     55 O3         0.3081    2.5289   11.9348 O.2       1 RES1    0.0000
     56 O4         2.2917    3.3449   11.7458 O.2       1 RES1    0.0000
     57 O5         7.3447    4.9798    8.0389 O.2       2 RES2    0.0000
     58 O6         6.8538    2.6591    3.3172 O.2       2 RES2    0.0000
     59 O7         5.2052    4.1259   10.7413 O.2       2 RES2    0.0000
     60 O8         6.6179    2.7797    9.8257 O.2       2 RES2    0.0000
@<TRIPOS>BOND
     1    1    2 ar
     2    2    3 ar
     3    3    4 ar
     4    4    5 ar
     5    5    6 ar
     6    6    1 ar
     7    7   12 1
     8    8    5 1
     9    9   10 1
    10   10   11 1
    11   11   12 1
    12   12   31 1
    13   13   14 ar
    14   14   15 ar
    15   15   16 ar
    16   16   17 ar
    17   17   18 ar
    18   18   13 ar
    19   19   24 1
    20   20   17 1
    21   21   22 1
    22   22   23 1
    23   23   24 1
    24   24   42 1
    25   25    1 1
    26   26    2 1
    27   27    3 1
    28   28    9 1
    29   29    9 1
    30   30   47 1
    31   32   11 1
    32   33   11 1
    33   34   10 1
    34   35   10 1
    35   36   13 1
    36   37   14 1
    37   38   15 1
    38   39   21 1
    39   40   21 1
    40   41   50 1
    41   43   23 1
    42   44   23 1
    43   45   22 1
    44   46   22 1
    45   47   18 1
    46   48   16 1
    47   49   20 1
    48   50    6 1
    49   51    4 1
    50   52    8 1
    51   53    8 2
    52   54    7 2
    53   55   51 2
    54   56   51 2
    55   57   20 2
    56   58   19 2
    57   59   48 2
    58   60   48 2
    59    7   50 1
    60    9   52 1
    61   12   52 1
    62   19   47 1
    63   21   49 1
    64   24   49 1
@<TRIPOS>SUBSTRUCTURE
     1 RES1 1
     2 RES2 13

@<TRIPOS>CRYSIN
  10.7364    6.8925   16.3901  90.0000 101.8700  90.0000   4 1

