# MOL2 file generated by ConQuest
# Please check atom types

@<TRIPOS>MOLECULE
AXAFOU
    66    68     2
SMALL
NO_CHARGES
****
Generated from CSD

@<TRIPOS>ATOM
      1 O1         5.8919    2.9845    0.2806 O.2       1 RES1    0.0000
      2 C1         5.1002    2.4197    0.9862 C.2       1 RES1    0.0000
      3 O2        11.9304    0.0526    7.5054 O.2       2 RES2    0.0000
      4 C2        10.0616   -1.1828    5.4323 C.ar      2 RES2    0.0000
      5 N1         6.5723    2.3569    2.9930 N.pl3     1 RES1    0.0000
      6 C3         7.6258    1.6113    2.4173 C.ar      1 RES1    0.0000
      7 O3        13.2162   -0.1244    3.3009 O.3       2 RES2    0.0000
      8 C4        13.7150   -1.4971    7.3663 C.ar      2 RES2    0.0000
      9 N2         4.2505    2.7512    3.1373 N.2       1 RES1    0.0000
     10 C5         8.9420    2.0356    2.5870 C.ar      1 RES1    0.0000
     11 H1         9.1242    2.8166    3.0577 H         1 RES1    0.0000
     12 N3        13.5125   -0.3535    4.6616 N.2       2 RES2    0.0000
     13 N4        11.1868   -0.6034    4.7998 N.3       2 RES2    0.0000
     14 C6         9.9661    1.2976    2.0577 C.ar      1 RES1    0.0000
     15 H2        10.8409    1.5802    2.2003 H         1 RES1    0.0000
     16 C7         8.4218   -0.2559    1.1522 C.ar      1 RES1    0.0000
     17 H3         8.2377   -1.0170    0.6496 H         1 RES1    0.0000
     18 C8        12.6401   -0.6458    6.8199 C.2       2 RES2    0.0000
     19 C9         3.8750    1.7664    0.4582 C.ar      1 RES1    0.0000
     20 C10        7.3864    0.4490    1.7152 C.ar      1 RES1    0.0000
     21 H4         6.5139    0.1389    1.6229 H         1 RES1    0.0000
     22 C11       12.4362   -0.5884    5.3046 C.2       2 RES2    0.0000
     23 C12        7.7175   -1.1495    5.9120 C.ar      2 RES2    0.0000
     24 H5         6.8831   -0.7531    5.7983 H         2 RES2    0.0000
     25 O4         4.5614    2.9743    4.5076 O.3       1 RES1    0.0000
     26 C13        8.8204   -0.6018    5.2810 C.ar      2 RES2    0.0000
     27 H6         8.7244    0.1582    4.7550 H         2 RES2    0.0000
     28 C14        9.0842   -2.8665    6.8000 C.ar      2 RES2    0.0000
     29 H7         9.1759   -3.6432    7.3031 H         2 RES2    0.0000
     30 C15        9.7533    0.1550    1.3237 C.ar      1 RES1    0.0000
     31 C16       10.8776   -0.6517    0.7218 C.3       1 RES1    0.0000
     32 H8        11.5511   -0.0579    0.3828 H         1 RES1    0.0000
     33 H9        10.5375   -1.1903    0.0044 H         1 RES1    0.0000
     34 H10       11.2595   -1.2203    1.3954 H         1 RES1    0.0000
     35 C17        5.3196    2.4471    2.4886 C.2       1 RES1    0.0000
     36 C18       10.1843   -2.3403    6.1701 C.ar      2 RES2    0.0000
     37 H11       11.0102   -2.7630    6.2423 H         2 RES2    0.0000
     38 C19        3.3508    2.2325   -0.7371 C.ar      1 RES1    0.0000
     39 H12        3.7532    2.9443   -1.1789 H         1 RES1    0.0000
     40 C20        3.2732    0.6861    1.0958 C.ar      1 RES1    0.0000
     41 H13        3.6215    0.3674    1.8963 H         1 RES1    0.0000
     42 C21       14.2587   -2.5608    6.6648 C.ar      2 RES2    0.0000
     43 H14       13.9709   -2.7421    5.7983 H         2 RES2    0.0000
     44 C22       14.1460   -1.2782    8.6703 C.ar      2 RES2    0.0000
     45 H15       13.7710   -0.5874    9.1666 H         2 RES2    0.0000
     46 C23       15.1104   -2.0641    9.2278 C.ar      2 RES2    0.0000
     47 H16       15.3959   -1.8913   10.0961 H         2 RES2    0.0000
     48 C24        1.6320    0.5670   -0.6146 C.ar      1 RES1    0.0000
     49 H17        0.8677    0.1722   -0.9689 H         1 RES1    0.0000
     50 C25       15.2219   -3.3477    7.2484 C.ar      2 RES2    0.0000
     51 H18       15.5817   -4.0595    6.7694 H         2 RES2    0.0000
     52 C26        7.8301   -2.2652    6.7016 C.ar      2 RES2    0.0000
     53 C27       15.6617   -3.0982    8.5345 C.ar      2 RES2    0.0000
     54 H19       16.3248   -3.6266    8.9172 H         2 RES2    0.0000
     55 C28        2.1705    0.0917    0.5490 C.ar      1 RES1    0.0000
     56 H20        1.7849   -0.6410    0.9711 H         1 RES1    0.0000
     57 C29        2.2223    1.6307   -1.2642 C.ar      1 RES1    0.0000
     58 H21        1.8601    1.9455   -2.0603 H         1 RES1    0.0000
     59 C30        6.6503   -2.8279    7.4715 C.3       2 RES2    0.0000
     60 H22        5.8837   -2.2647    7.3402 H         2 RES2    0.0000
     61 H23        6.8667   -2.8622    8.4076 H         2 RES2    0.0000
     62 H24        6.4551   -3.7135    7.1565 H         2 RES2    0.0000
     63 H25        6.7256    2.6445    3.7620 H         1 RES1    0.0000
     64 H26       11.1278   -0.2950    4.0901 H         2 RES2    0.0000
     65 H27       13.8980   -0.0966    2.9527 H         2 RES2    0.0000
     66 H28        3.7155    3.2559    4.8556 H         1 RES1    0.0000
@<TRIPOS>BOND
     1    1    2 2
     2    2   19 1
     3    3   18 2
     4    4   13 1
     5    5    6 1
     6    6   10 ar
     7    7   12 1
     8    8   18 1
     9    9   25 1
    10   10   11 1
    11   12   22 2
    12   13   22 1
    13   14   10 ar
    14   15   14 1
    15   16   17 1
    16   18   22 1
    17   19   38 ar
    18   20    6 ar
    19   21   20 1
    20   23   24 1
    21   25   66 1
    22   26    4 ar
    23   27   26 1
    24   28   29 1
    25   30   14 ar
    26   31   30 1
    27   32   31 1
    28   33   31 1
    29   34   31 1
    30   35    2 1
    31   36    4 ar
    32   37   36 1
    33   38   39 1
    34   40   19 ar
    35   41   40 1
    36   42    8 ar
    37   43   42 1
    38   44    8 ar
    39   45   44 1
    40   46   44 ar
    41   47   46 1
    42   48   49 1
    43   50   42 ar
    44   51   50 1
    45   52   23 ar
    46   53   46 ar
    47   54   53 1
    48   55   40 ar
    49   56   55 1
    50   57   38 ar
    51   58   57 1
    52   59   52 1
    53   60   59 1
    54   61   59 1
    55   62   59 1
    56   63    5 1
    57   64   13 1
    58   65    7 1
    59    5   35 1
    60    9   35 2
    61   16   30 ar
    62   16   20 ar
    63   23   26 ar
    64   28   52 ar
    65   28   36 ar
    66   48   57 ar
    67   48   55 ar
    68   50   53 ar
@<TRIPOS>SUBSTRUCTURE
     1 RES1 1
     2 RES2 3

@<TRIPOS>CRYSIN
  23.5160    5.3640   21.8720  90.0000  90.0000  90.0000  33 1

