# MOL2 file generated by ConQuest
# Please check atom types

@<TRIPOS>MOLECULE
AXALAM
    30    30     1
SMALL
NO_CHARGES
****
Generated from CSD

@<TRIPOS>ATOM
      1 C1        -1.5070    6.3138    6.0016 C.ar      1 RES1    0.0000
      2 C2        -1.0937    6.3839    4.6649 C.ar      1 RES1    0.0000
      3 C3        -1.5823    7.4349    3.8869 C.ar      1 RES1    0.0000
      4 H1        -1.2469    7.5208    3.0033 H         1 RES1    0.0000
      5 C4        -2.4592    8.3768    4.3940 C.ar      1 RES1    0.0000
      6 H2        -2.7176    9.1402    3.8743 H         1 RES1    0.0000
      7 C5        -2.8625    8.2781    5.7098 C.ar      1 RES1    0.0000
      8 H3        -3.4784    8.8313    6.0627 H         1 RES1    0.0000
      9 C6        -2.3977    7.2606    6.5008 C.ar      1 RES1    0.0000
     10 H4        -2.6799    7.1556    7.3192 H         1 RES1    0.0000
     11 C7        -0.1640    5.4290    3.9819 C.2       1 RES1    0.0000
     12 C8         1.7021    2.6481    4.9860 C.2       1 RES1    0.0000
     13 C9         2.6083    1.6699    4.3440 C.2       1 RES1    0.0000
     14 C10        2.7415    1.6160    2.8613 C.3       1 RES1    0.0000
     15 H5         3.5923    1.4232    2.5861 H         1 RES1    0.0000
     16 H6         2.4760    2.4603    2.4898 H         1 RES1    0.0000
     17 H7         2.1437    0.9453    2.5227 H         1 RES1    0.0000
     18 C11        1.4576    2.5680    6.4609 C.3       1 RES1    0.0000
     19 H8         2.1151    2.8714    6.9118 H         1 RES1    0.0000
     20 H9         1.3012    1.6527    6.7056 H         1 RES1    0.0000
     21 H10        0.6679    3.0697    6.6763 H         1 RES1    0.0000
     22 N1         0.3514    4.4418    4.7472 N.am      1 RES1    0.0000
     23 H11        0.1697    4.4365    5.5833 H         1 RES1    0.0000
     24 N2         1.1946    3.5165    4.1867 N.2       1 RES1    0.0000
     25 N3         3.2486    0.9063    5.1496 N.2       1 RES1    0.0000
     26 O1        -1.0404    5.3270    6.8138 O.3       1 RES1    0.0000
     27 H12       -1.4074    5.3213    7.5266 H         1 RES1    0.0000
     28 O2         0.1010    5.5486    2.7909 O.2       1 RES1    0.0000
     29 O3         4.1140    0.0213    4.4840 O.3       1 RES1    0.0000
     30 H13        4.4665   -0.4069    5.1113 H         1 RES1    0.0000
@<TRIPOS>BOND
     1    1    2 ar
     2    2    3 ar
     3    3    4 1
     4    5    3 ar
     5    6    5 1
     6    7    5 ar
     7    8    7 1
     8    9    1 ar
     9   10    9 1
    10   11    2 1
    11   12   13 1
    12   13   14 1
    13   14   15 1
    14   16   14 1
    15   17   14 1
    16   18   12 1
    17   19   18 1
    18   20   18 1
    19   21   18 1
    20   22   11 1
    21   23   22 1
    22   24   12 2
    23   25   13 2
    24   26    1 1
    25   27   26 1
    26   28   11 2
    27   29   25 1
    28   30   29 1
    29    7    9 ar
    30   22   24 1
@<TRIPOS>SUBSTRUCTURE
     1 RES1 1

@<TRIPOS>CRYSIN
   4.5187   20.8680   12.2448  90.0000  94.9740  90.0000 231 1

