# MOL2 file generated by ConQuest
# Please check atom types

@<TRIPOS>MOLECULE
AXEFAM
    44    45     1
SMALL
NO_CHARGES
****
Generated from CSD

@<TRIPOS>ATOM
      1 O1         3.1829   10.7985    2.1527 O.3       1 RES1    0.0000
      2 O2         0.3220    6.5514    4.1256 O.2       1 RES1    0.0000
      3 N1         0.9872    7.5550    3.6602 N.3       1 RES1    0.0000
      4 C1         6.3088   14.9936    3.1113 C.ar      1 RES1    0.0000
      5 H1         6.8667   15.5264    3.6300 H         1 RES1    0.0000
      6 C2         6.3047   15.1173    1.7343 C.ar      1 RES1    0.0000
      7 H2         6.8611   15.7380    1.3238 H         1 RES1    0.0000
      8 C3         5.4731   14.3187    0.9633 C.ar      1 RES1    0.0000
      9 H3         5.4809   14.4116    0.0385 H         1 RES1    0.0000
     10 C4         4.6199   13.3748    1.5505 C.ar      1 RES1    0.0000
     11 C5         3.7392   12.5829    0.6867 C.2       1 RES1    0.0000
     12 H4         3.6135   12.9172   -0.1723 H         1 RES1    0.0000
     13 C6         3.0915   11.4469    0.9626 C.2       1 RES1    0.0000
     14 H5         2.5484   11.0796    0.3029 H         1 RES1    0.0000
     15 C7         2.4073    9.5801    2.2453 C.3       1 RES1    0.0000
     16 H6         2.3120    9.1700    1.3602 H         1 RES1    0.0000
     17 C8         3.1573    8.6529    3.1757 C.3       1 RES1    0.0000
     18 H7         3.2740    9.0921    4.0324 H         1 RES1    0.0000
     19 H8         4.0382    8.4826    2.8082 H         1 RES1    0.0000
     20 C9         2.4416    7.3176    3.3938 C.3       1 RES1    0.0000
     21 C10        3.0457    6.6440    4.6285 C.3       1 RES1    0.0000
     22 H9         2.8615    7.1765    5.4055 H         1 RES1    0.0000
     23 H10        3.9953    6.5619    4.5151 H         1 RES1    0.0000
     24 H11        2.6599    5.7721    4.7388 H         1 RES1    0.0000
     25 C11        0.1799    8.6344    3.0056 C.3       1 RES1    0.0000
     26 C12       -1.0002    8.9622    3.9160 C.3       1 RES1    0.0000
     27 H12       -1.5713    8.1940    3.9886 H         1 RES1    0.0000
     28 H13       -1.4958    9.6955    3.5455 H         1 RES1    0.0000
     29 H14       -0.6756    9.2024    4.7869 H         1 RES1    0.0000
     30 C13       -0.3492    8.1441    1.6555 C.3       1 RES1    0.0000
     31 H15        0.3811    8.0543    1.0391 H         1 RES1    0.0000
     32 H16       -0.9831    8.7772    1.3110 H         1 RES1    0.0000
     33 H17       -0.7769    7.2929    1.7701 H         1 RES1    0.0000
     34 C14        1.0447    9.8893    2.8314 C.3       1 RES1    0.0000
     35 H18        0.5837   10.5136    2.2495 H         1 RES1    0.0000
     36 H19        1.1606   10.3172    3.6943 H         1 RES1    0.0000
     37 C15        5.4690   14.0647    3.7115 C.ar      1 RES1    0.0000
     38 H20        5.4658   13.9793    4.6371 H         1 RES1    0.0000
     39 C16        4.6350   13.2617    2.9476 C.ar      1 RES1    0.0000
     40 H21        4.0816   12.6428    3.3657 H         1 RES1    0.0000
     41 C17        2.5985    6.3911    2.1831 C.3       1 RES1    0.0000
     42 H22        2.0721    5.5990    2.3159 H         1 RES1    0.0000
     43 H23        3.5220    6.1478    2.0836 H         1 RES1    0.0000
     44 H24        2.2999    6.8454    1.3912 H         1 RES1    0.0000
@<TRIPOS>BOND
     1    1   13 1
     2    2    3 1
     3    3   20 1
     4    4    5 1
     5    6    4 ar
     6    7    6 1
     7    8    6 ar
     8    9    8 1
     9   10    8 ar
    10   11   10 1
    11   12   11 1
    12   13   11 2
    13   14   13 1
    14   15    1 1
    15   16   15 1
    16   17   15 1
    17   18   17 1
    18   19   17 1
    19   20   17 1
    20   21   20 1
    21   22   21 1
    22   23   21 1
    23   24   21 1
    24   25    3 1
    25   26   25 1
    26   27   26 1
    27   28   26 1
    28   29   26 1
    29   30   25 1
    30   31   30 1
    31   32   30 1
    32   33   30 1
    33   34   15 1
    34   35   34 1
    35   36   34 1
    36   37    4 ar
    37   38   37 1
    38   39   10 ar
    39   40   39 1
    40   41   20 1
    41   42   41 1
    42   43   41 1
    43   44   41 1
    44   25   34 1
    45   37   39 ar
@<TRIPOS>SUBSTRUCTURE
     1 RES1 1

@<TRIPOS>CRYSIN
  14.5414   10.1248   11.1582  90.0000 106.4440  90.0000  14 1

