# MOL2 file generated by ConQuest
# Please check atom types

@<TRIPOS>MOLECULE
AXELUL
   100    86     3
SMALL
NO_CHARGES
****
Generated from CSD

@<TRIPOS>ATOM
      1 C1         4.3420    8.3067    4.9313 C.3       1 RES1    0.0000
      2 H1         4.5846    8.6572    4.0604 H         1 RES1    0.0000
      3 H2         5.0323    7.6877    5.2168 H         1 RES1    0.0000
      4 C2         4.2160    9.4284    5.9185 C.3       1 RES1    0.0000
      5 H3         5.1141    9.8088    6.0092 H         1 RES1    0.0000
      6 C3         3.3060   10.5904    5.4880 C.2       1 RES1    0.0000
      7 C4         3.8316    8.9332    7.2996 C.3       1 RES1    0.0000
      8 H4         2.9258    8.6185    7.2863 H         1 RES1    0.0000
      9 H5         3.9114    9.6521    7.9304 H         1 RES1    0.0000
     10 H6         4.4161    8.2157    7.5563 H         1 RES1    0.0000
     11 C5         2.6929    7.1164    2.6129 C.2       1 RES1    0.0000
     12 C6         2.6376    6.0305    1.5338 C.3       1 RES1    0.0000
     13 C7         1.3981    5.1788    1.8338 C.3       1 RES1    0.0000
     14 H7         1.2699    4.5389    1.1299 H         1 RES1    0.0000
     15 H8         0.6263    5.7471    1.8946 H         1 RES1    0.0000
     16 H9         1.5217    4.7164    2.6671 H         1 RES1    0.0000
     17 C8         3.8938    5.1460    1.5670 C.3       1 RES1    0.0000
     18 H10        3.8986    4.5673    0.8001 H         1 RES1    0.0000
     19 H11        3.8915    4.6165    2.3672 H         1 RES1    0.0000
     20 H12        4.6770    5.7009    1.5527 H         1 RES1    0.0000
     21 C9         2.5230    6.6988    0.1439 C.3       1 RES1    0.0000
     22 H13        3.3050    7.2313   -0.0210 H         1 RES1    0.0000
     23 H14        1.7447    7.2611    0.1228 H         1 RES1    0.0000
     24 H15        2.4470    6.0216   -0.5323 H         1 RES1    0.0000
     25 C10        1.7394   11.5495    3.9065 C.3       1 RES1    0.0000
     26 H16        1.8837   12.3475    4.4389 H         1 RES1    0.0000
     27 H17        0.8266   11.2556    4.0593 H         1 RES1    0.0000
     28 C11        1.8970   11.8940    2.4767 C.3       1 RES1    0.0000
     29 H18        1.5147   11.0930    2.0595 H         1 RES1    0.0000
     30 C12        0.8245   12.9307    2.1215 C.3       1 RES1    0.0000
     31 H19        0.9200   13.6974    2.6914 H         1 RES1    0.0000
     32 H20       -0.0459   12.5458    2.2465 H         1 RES1    0.0000
     33 H21        0.9291   13.1977    1.2052 H         1 RES1    0.0000
     34 C13        3.0394   11.9910    1.8061 C.3       1 RES1    0.0000
     35 H22        2.8581   11.9925    0.8632 H         1 RES1    0.0000
     36 H23        3.6023   11.2437    2.0219 H         1 RES1    0.0000
     37 H24        3.4844   12.8069    2.0473 H         1 RES1    0.0000
     38 C14       -0.5875    7.0105    5.0840 C.3       2 RES2    0.0000
     39 H25       -0.0036    7.7160    5.4028 H         2 RES2    0.0000
     40 H26       -0.2259    6.6630    4.2540 H         2 RES2    0.0000
     41 C15       -0.6799    5.9008    6.1177 C.3       2 RES2    0.0000
     42 H27       -1.2635    6.2319    6.8326 H         2 RES2    0.0000
     43 C16       -1.2890    4.6105    5.6274 C.2       2 RES2    0.0000
     44 C17        0.6880    5.6561    6.7496 C.3       2 RES2    0.0000
     45 H28        1.3099    5.3832    6.0712 H         2 RES2    0.0000
     46 H29        0.6150    4.9670    7.4136 H         2 RES2    0.0000
     47 H30        1.0002    6.4646    7.1624 H         2 RES2    0.0000
     48 C18       -2.2268    7.8667    2.5785 C.2       2 RES2    0.0000
     49 C19       -2.3013    8.8526    1.4188 C.3       2 RES2    0.0000
     50 C20       -2.2452    8.0889    0.1693 C.3       2 RES2    0.0000
     51 H31       -2.9813    7.4729    0.1383 H         2 RES2    0.0000
     52 H32       -1.4191    7.6042    0.1284 H         2 RES2    0.0000
     53 H33       -2.3012    8.6916   -0.5766 H         2 RES2    0.0000
     54 C21       -3.5543    9.6656    1.6235 C.3       2 RES2    0.0000
     55 H34       -3.5017   10.1295    2.4623 H         2 RES2    0.0000
     56 H35       -4.3174    9.0838    1.6279 H         2 RES2    0.0000
     57 H36       -3.6424   10.3040    0.9108 H         2 RES2    0.0000
     58 C22       -1.1101    9.8058    1.4918 C.3       2 RES2    0.0000
     59 H37       -1.1377   10.2891    2.3207 H         2 RES2    0.0000
     60 H38       -1.1503   10.4248    0.7592 H         2 RES2    0.0000
     61 H39       -0.2937    9.3031    1.4409 H         2 RES2    0.0000
     62 C23       -2.7202    3.4590    3.9741 C.3       2 RES2    0.0000
     63 H40       -3.6564    3.6887    3.8711 H         2 RES2    0.0000
     64 H41       -2.6645    2.7296    4.6115 H         2 RES2    0.0000
     65 C24       -2.2034    2.9892    2.6726 C.3       2 RES2    0.0000
     66 H42       -2.0927    3.7693    2.0894 H         2 RES2    0.0000
     67 C25       -3.1850    2.0912    2.0496 C.3       2 RES2    0.0000
     68 H43       -3.1314    1.2246    2.4590 H         2 RES2    0.0000
     69 H44       -2.9972    2.0137    1.1111 H         2 RES2    0.0000
     70 H45       -4.0668    2.4477    2.1702 H         2 RES2    0.0000
     71 C26       -0.8717    2.3627    2.8596 C.3       2 RES2    0.0000
     72 H46       -0.2681    3.0026    3.2437 H         2 RES2    0.0000
     73 H47       -0.5326    2.0718    2.0097 H         2 RES2    0.0000
     74 H48       -0.9534    1.6065    3.4462 H         2 RES2    0.0000
     75 N1         3.0861    6.7018    3.7959 N.am      1 RES1    0.0000
     76 N2         2.6505   10.5083    4.3647 N.am      1 RES1    0.0000
     77 N3        -1.9230    8.3858    3.7782 N.am      2 RES2    0.0000
     78 N4        -2.0098    4.6165    4.5208 N.am      2 RES2    0.0000
     79 O1         2.4556    8.2942    2.3915 O.2       1 RES1    0.0000
     80 O2         3.0659    7.6312    4.8583 O.3       1 RES1    0.0000
     81 O3         3.2445   11.5748    6.2117 O.2       1 RES1    0.0000
     82 O4        -2.3780    6.6764    2.4302 O.2       2 RES2    0.0000
     83 O5        -1.9058    7.5227    4.8694 O.3       2 RES2    0.0000
     84 O6        -1.1189    3.5754    6.2981 O.2       2 RES2    0.0000
     85 H49       -1.9697    9.2136    3.9840 H         2 RES2    0.0000
     86 H50        3.2498    5.9127    4.1168 H         1 RES1    0.0000
     87 H51        2.6269    9.7909    3.9619 H         1 RES1    0.0000
     88 H52       -2.0474    5.2803    3.9508 H         2 RES2    0.0000
     89 C27       -3.4498    8.3873    0.5035 Du        3 SUP3    0.0000
     90 C28       -2.5248   10.2876    1.7906 Du        3 SUP3    0.0000
     91 C29       -1.0122    8.7318    0.6352 Du        3 SUP3    0.0000
     92 H53       -3.3192    7.4655    0.2700 Du        3 SUP3    0.0000
     93 H54       -3.4606    8.9213   -0.2944 Du        3 SUP3    0.0000
     94 H55       -4.2861    8.4842    0.9650 Du        3 SUP3    0.0000
     95 H56       -3.3475   10.3666    2.2797 Du        3 SUP3    0.0000
     96 H57       -2.5738   10.8216    0.9949 Du        3 SUP3    0.0000
     97 H58       -1.7970   10.5933    2.3373 Du        3 SUP3    0.0000
     98 H59       -0.8649    7.8130    0.4006 Du        3 SUP3    0.0000
     99 H60       -0.2808    9.0466    1.1720 Du        3 SUP3    0.0000
    100 H61       -1.0728    9.2613   -0.1638 Du        3 SUP3    0.0000
@<TRIPOS>BOND
     1    1    2 1
     2    3    1 1
     3    4    1 1
     4    5    4 1
     5    6    4 1
     6    7    4 1
     7    8    7 1
     8    9    7 1
     9   10    7 1
    10   11   12 1
    11   12   13 1
    12   13   14 1
    13   15   13 1
    14   16   13 1
    15   17   12 1
    16   18   17 1
    17   19   17 1
    18   20   17 1
    19   21   12 1
    20   22   21 1
    21   23   21 1
    22   24   21 1
    23   25   26 1
    24   27   25 1
    25   28   25 1
    26   29   28 1
    27   30   28 1
    28   31   30 1
    29   32   30 1
    30   33   30 1
    31   34   28 1
    32   35   34 1
    33   36   34 1
    34   37   34 1
    35   38   39 1
    36   40   38 1
    37   41   38 1
    38   42   41 1
    39   43   41 1
    40   44   41 1
    41   45   44 1
    42   46   44 1
    43   47   44 1
    44   48   49 1
    45   49   50 1
    46   50   51 1
    47   52   50 1
    48   53   50 1
    49   54   49 1
    50   55   54 1
    51   56   54 1
    52   57   54 1
    53   58   49 1
    54   59   58 1
    55   60   58 1
    56   61   58 1
    57   62   63 1
    58   64   62 1
    59   65   62 1
    60   66   65 1
    61   67   65 1
    62   68   67 1
    63   69   67 1
    64   70   67 1
    65   71   65 1
    66   72   71 1
    67   73   71 1
    68   74   71 1
    69   75   11 1
    70   76    6 1
    71   77   48 1
    72   78   43 1
    73   79   11 2
    74   80    1 1
    75   81    6 2
    76   82   48 2
    77   83   38 1
    78   84   43 2
    79   85   77 1
    80   86   75 1
    81   87   76 1
    82   88   78 1
    83   25   76 1
    84   62   78 1
    85   75   80 1
    86   77   83 1
@<TRIPOS>SUBSTRUCTURE
     1 RES1 1
     2 RES2 38
     3 SUP3 89

@<TRIPOS>CRYSIN
   9.6440   14.9160   11.4750  90.0000 105.3300  90.0000   4 1

