# MOL2 file generated by ConQuest
# Please check atom types

@<TRIPOS>MOLECULE
AXEPUQ
    30    31     1
SMALL
NO_CHARGES
****
Generated from CSD

@<TRIPOS>ATOM
      1 O1         1.8665    1.6795    5.3330 O.3       1 RES1    0.0000
      2 N1         0.8298    1.6795    6.2979 N.2       1 RES1    0.0000
      3 N2         2.8499    1.6795    7.3201 N.2       1 RES1    0.0000
      4 N3         8.9291    1.6795    2.6263 N.1       1 RES1    0.0000
      5 C1         1.4679    1.6795    7.4391 C.2       1 RES1    0.0000
      6 C2         0.7547    1.6795    8.7643 C.3       1 RES1    0.0000
      7 C3        -0.7571    1.6795    8.5463 C.3       1 RES1    0.0000
      8 H1        -1.0398    0.8767    8.0553 H         1 RES1    0.0000
      9 H2        -1.1943    1.6795    9.4217 H         1 RES1    0.0000
     10 C4         1.1635    0.4306    9.5541 C.3       1 RES1    0.0000
     11 H3         0.9066   -0.3715    9.0533 H         1 RES1    0.0000
     12 H4         0.7114    0.4320   10.4234 H         1 RES1    0.0000
     13 H5         2.1338    0.4333    9.6904 H         1 RES1    0.0000
     14 C5         3.0158    1.6795    6.0293 C.2       1 RES1    0.0000
     15 C6         4.2702    1.6795    5.2721 C.ar      1 RES1    0.0000
     16 C7         4.2605    1.6795    3.8734 C.ar      1 RES1    0.0000
     17 H6         3.4350    1.6795    3.4027 H         1 RES1    0.0000
     18 C8         5.4561    1.6795    3.1761 C.ar      1 RES1    0.0000
     19 H7         5.4553    1.6795    2.2262 H         1 RES1    0.0000
     20 C9         6.6663    1.6795    3.8808 C.ar      1 RES1    0.0000
     21 C10        6.6786    1.6795    5.2789 C.ar      1 RES1    0.0000
     22 H8         7.5027    1.6795    5.7511 H         1 RES1    0.0000
     23 C11        5.4795    1.6795    5.9671 C.ar      1 RES1    0.0000
     24 H9         5.4793    1.6795    6.9173 H         1 RES1    0.0000
     25 C12        7.9242    1.6795    3.1727 C.1       1 RES1    0.0000
     26 H1C       -1.0398    2.4823    8.0553 H         1 RES1    0.0000
     27 C4C        1.1635    2.9284    9.5541 C.3       1 RES1    0.0000
     28 H3C        0.9066    3.7305    9.0533 H         1 RES1    0.0000
     29 H4C        0.7114    2.9270   10.4234 H         1 RES1    0.0000
     30 H5C        2.1338    2.9257    9.6904 H         1 RES1    0.0000
@<TRIPOS>BOND
     1    1    2 1
     2    2    5 2
     3    3    5 1
     4    4   25 3
     5    5    6 1
     6    6    7 1
     7    7    8 1
     8    9    7 1
     9   10    6 1
    10   11   10 1
    11   12   10 1
    12   13   10 1
    13   14    1 1
    14   15   14 1
    15   16   15 ar
    16   17   16 1
    17   18   16 ar
    18   19   18 1
    19   20   18 ar
    20   21   20 ar
    21   22   21 1
    22   23   15 ar
    23   24   23 1
    24   25   20 1
    25   26    7 1
    26   27    6 1
    27   28   27 1
    28   29   27 1
    29   30   27 1
    30    3   14 2
    31   21   23 ar
@<TRIPOS>SUBSTRUCTURE
     1 RES1 1

@<TRIPOS>CRYSIN
   9.1200    6.7180    9.4957  90.0000  98.2590  90.0000  11 1

