# MOL2 file generated by ConQuest
# Please check atom types

@<TRIPOS>MOLECULE
AXEQAX
    40    45     1
SMALL
NO_CHARGES
****
Generated from CSD

@<TRIPOS>ATOM
      1 O1         1.5278    1.6422    5.2402 O.3       1 RES1    0.0000
      2 O2         6.1427    1.6422   10.4807 O.2       1 RES1    0.0000
      3 N1         0.8418    1.6422    3.9883 N.2       1 RES1    0.0000
      4 N2         3.0894    1.6422    3.6703 N.2       1 RES1    0.0000
      5 C1         1.8159    1.6422    3.1143 C.2       1 RES1    0.0000
      6 C2         1.6005    1.6422    1.6221 C.3       1 RES1    0.0000
      7 C3         0.1119    1.6422    1.2861 C.3       1 RES1    0.0000
      8 H1        -0.3443    0.8467    1.6653 H         1 RES1    0.0000
      9 H2        -0.0148    1.6422    0.3143 H         1 RES1    0.0000
     10 C4         2.2721    0.3902    1.0473 C.3       1 RES1    0.0000
     11 H3         3.2299    0.4086    1.2546 H         1 RES1    0.0000
     12 H4         2.1488    0.3698    0.0753 H         1 RES1    0.0000
     13 H5         1.8671   -0.4092    1.4448 H         1 RES1    0.0000
     14 C5         2.8408    1.6422    4.9451 C.2       1 RES1    0.0000
     15 C6         3.7989    1.6422    6.0541 C.2       1 RES1    0.0000
     16 C7         3.3391    1.6422    7.3700 C.2       1 RES1    0.0000
     17 H6         2.4063    1.6422    7.5513 H         1 RES1    0.0000
     18 C8         4.2460    1.6422    8.4060 C.2       1 RES1    0.0000
     19 H7         3.9328    1.6422    9.3024 H         1 RES1    0.0000
     20 C9         5.6144    1.6422    8.1569 C.2       1 RES1    0.0000
     21 C10        6.0711    1.6422    6.8419 C.2       1 RES1    0.0000
     22 H8         7.0044    1.6422    6.6625 H         1 RES1    0.0000
     23 C11        5.1639    1.6422    5.7950 C.2       1 RES1    0.0000
     24 H9         5.4756    1.6422    4.8982 H         1 RES1    0.0000
     25 C12        6.5212    1.6422    9.3345 C.3       1 RES1    0.0000
     26 C13        8.7385    1.3801   10.1050 C.3       1 RES1    0.0000
     27 H10        9.4834    0.7830    9.8822 H         1 RES1    0.0000
     28 H11        8.2795    1.0451   10.9030 H         1 RES1    0.0000
     29 H12        9.0834    2.2807   10.2797 H         1 RES1    0.0000
     30 O3         7.8056    1.4267    8.9939 O.3       1 RES1    0.0000
     31 H1C       -0.3443    2.4377    1.6653 H         1 RES1    0.0000
     32 C4C        2.2721    2.8942    1.0473 C.3       1 RES1    0.0000
     33 H3C        3.2299    2.8758    1.2546 H         1 RES1    0.0000
     34 H4C        2.1488    2.9146    0.0753 H         1 RES1    0.0000
     35 H5C        1.8671    3.6936    1.4448 H         1 RES1    0.0000
     36 C13C       8.7385    1.9043   10.1050 C.3       1 RES1    0.0000
     37 H10C       9.4834    2.5014    9.8822 H         1 RES1    0.0000
     38 H11C       8.2795    2.2393   10.9030 H         1 RES1    0.0000
     39 H12C       9.0834    1.0037   10.2797 H         1 RES1    0.0000
     40 O3C        7.8056    1.8577    8.9939 O.3       1 RES1    0.0000
@<TRIPOS>BOND
     1    1    3 1
     2    2   25 1
     3    3    5 1
     4    4    5 1
     5    5    6 1
     6    6    7 1
     7    7    8 1
     8    9    7 1
     9   10    6 1
    10   11   10 1
    11   12   10 1
    12   13   10 1
    13   14    1 1
    14   15   14 1
    15   16   15 1
    16   17   16 1
    17   18   16 1
    18   19   18 1
    19   20   18 1
    20   21   20 1
    21   22   21 1
    22   23   15 1
    23   24   23 1
    24   25   20 1
    25   26   27 1
    26   28   26 1
    27   29   26 1
    28   30   25 1
    29   31    7 1
    30   32    6 1
    31   33   32 1
    32   34   32 1
    33   35   32 1
    34   36   28 1
    35   37   36 1
    36   38   26 1
    37   39   36 1
    38   40   25 1
    39    4   14 1
    40   21   23 1
    41   26   30 1
    42   26   40 1
    43   30   36 1
    44   36   38 1
    45   36   40 1
@<TRIPOS>SUBSTRUCTURE
     1 RES1 1

@<TRIPOS>CRYSIN
   7.6876    6.5688   13.3016  90.0000  96.8670  90.0000  11 1

