# MOL2 file generated by ConQuest
# Please check atom types

@<TRIPOS>MOLECULE
AXESIH
    35    36     1
SMALL
NO_CHARGES
****
Generated from CSD

@<TRIPOS>ATOM
      1 O1         7.9871    4.9070    0.7530 O.3       1 RES1    0.0000
      2 O2         1.5191    6.0868    3.8421 O.2       1 RES1    0.0000
      3 O3         0.6557    4.6805    5.3508 O.3       1 RES1    0.0000
      4 H1        -0.1052    5.2145    5.2721 H         1 RES1    0.0000
      5 N1         7.8714    7.0478    1.3034 N.2       1 RES1    0.0000
      6 N2         9.0442    5.5649    0.0586 N.2       1 RES1    0.0000
      7 C1         8.9200    6.8077    0.4328 C.2       1 RES1    0.0000
      8 C2         9.8677    7.8976    0.0026 C.3       1 RES1    0.0000
      9 C3        10.6859    8.3200    1.2281 C.3       1 RES1    0.0000
     10 H2        10.0796    8.6121    1.9409 H         1 RES1    0.0000
     11 H3        11.2829    9.0577    0.9839 H         1 RES1    0.0000
     12 H4        11.2193    7.5596    1.5434 H         1 RES1    0.0000
     13 C4        10.8089    7.4064   -1.0952 C.3       1 RES1    0.0000
     14 H5        11.3098    6.6277   -0.7726 H         1 RES1    0.0000
     15 H6        11.4346    8.1221   -1.3321 H         1 RES1    0.0000
     16 H7        10.2850    7.1546   -1.8854 H         1 RES1    0.0000
     17 C5         9.0474    9.0863   -0.5043 C.3       1 RES1    0.0000
     18 H8         8.5313    8.8140   -1.2918 H         1 RES1    0.0000
     19 H9         9.6515    9.8197   -0.7466 H         1 RES1    0.0000
     20 H10        8.4359    9.3851    0.2005 H         1 RES1    0.0000
     21 C6         7.3514    5.8666    1.4624 C.2       1 RES1    0.0000
     22 C7         6.2199    5.4682    2.2856 C.ar      1 RES1    0.0000
     23 C8         5.7278    4.1653    2.2711 C.ar      1 RES1    0.0000
     24 H11        6.1319    3.5145    1.7090 H         1 RES1    0.0000
     25 C9         4.6558    3.8147    3.0698 C.ar      1 RES1    0.0000
     26 H12        4.3292    2.9236    3.0483 H         1 RES1    0.0000
     27 C10        4.0489    4.7485    3.9050 C.ar      1 RES1    0.0000
     28 C11        4.5455    6.0547    3.9109 C.ar      1 RES1    0.0000
     29 H13        4.1434    6.7053    4.4744 H         1 RES1    0.0000
     30 C12        5.6087    6.4140    3.1115 C.ar      1 RES1    0.0000
     31 H14        5.9264    7.3084    3.1226 H         1 RES1    0.0000
     32 C13        2.9079    4.3596    4.8020 C.3       1 RES1    0.0000
     33 H15        3.1943    4.4735    5.7421 H         1 RES1    0.0000
     34 H16        2.7125    3.3988    4.6642 H         1 RES1    0.0000
     35 C14        1.6351    5.1388    4.5946 C.2       1 RES1    0.0000
@<TRIPOS>BOND
     1    1    6 1
     2    2   35 2
     3    3    4 1
     4    5    7 1
     5    6    7 2
     6    7    8 1
     7    8    9 1
     8    9   10 1
     9   11    9 1
    10   12    9 1
    11   13    8 1
    12   14   13 1
    13   15   13 1
    14   16   13 1
    15   17    8 1
    16   18   17 1
    17   19   17 1
    18   20   17 1
    19   21    1 1
    20   22   21 1
    21   23   22 ar
    22   24   23 1
    23   25   23 ar
    24   26   25 1
    25   27   25 ar
    26   28   27 ar
    27   29   28 1
    28   30   22 ar
    29   31   30 1
    30   32   27 1
    31   33   32 1
    32   34   32 1
    33   35    3 1
    34    5   21 2
    35   28   30 ar
    36   32   35 1
@<TRIPOS>SUBSTRUCTURE
     1 RES1 1

@<TRIPOS>CRYSIN
  24.4590   12.3100    8.9524  90.0000  90.0000  90.0000  60 1

