# MOL2 file generated by ConQuest
# Please check atom types

@<TRIPOS>MOLECULE
AXIWAG
    84    85     1
SMALL
NO_CHARGES
****
Generated from CSD

@<TRIPOS>ATOM
      1 O1         3.8272    8.3869    4.9832 O.3       1 RES1    0.0000
      2 O2         2.1338    9.2531    6.2484 O.2       1 RES1    0.0000
      3 O3         7.3954    8.3830    4.4600 O.3       1 RES1    0.0000
      4 O4         7.4974    4.8813    4.7327 O.3       1 RES1    0.0000
      5 H1         7.3814    5.0135    3.9114 H         1 RES1    0.0000
      6 O5        10.6872    5.1135    3.6466 O.3       1 RES1    0.0000
      7 O6        10.8009    3.4123    2.1309 O.2       1 RES1    0.0000
      8 O7        11.5323    9.7802   -1.3429 O.2       1 RES1    0.0000
      9 O8        12.1326    8.1951   -2.7571 O.2       1 RES1    0.0000
     10 N1        11.7726    8.5732   -1.6378 N.pl3     1 RES1    0.0000
     11 C1         4.8116    9.2753    5.5492 C.2       1 RES1    0.0000
     12 C2         5.8581    8.5328    6.3657 C.3       1 RES1    0.0000
     13 H2         6.4746    9.2126    6.7637 H         1 RES1    0.0000
     14 C3         6.7064    7.6062    5.4430 C.3       1 RES1    0.0000
     15 H3         6.0899    6.9729    4.9736 H         1 RES1    0.0000
     16 C4         7.7664    6.7941    6.1865 C.3       1 RES1    0.0000
     17 H4         7.2949    6.2525    6.8826 H         1 RES1    0.0000
     18 C5         8.4547    5.8217    5.2368 C.3       1 RES1    0.0000
     19 H5         8.8031    6.3472    4.4615 H         1 RES1    0.0000
     20 C6         9.6241    5.0035    5.8140 C.3       1 RES1    0.0000
     21 H6        10.3008    5.6513    6.1659 H         1 RES1    0.0000
     22 C7        10.3235    4.1434    4.7247 C.3       1 RES1    0.0000
     23 H7         9.6881    3.4582    4.3696 H         1 RES1    0.0000
     24 C8         4.7933   10.5449    5.1845 C.2       1 RES1    0.0000
     25 H8         5.4819   11.0903    5.5460 H         1 RES1    0.0000
     26 C9         3.8137   11.2423    4.2602 C.3       1 RES1    0.0000
     27 H9         3.5192   10.6182    3.5642 H         1 RES1    0.0000
     28 H10        4.2517   12.0139    3.8416 H         1 RES1    0.0000
     29 H11        3.0377   11.5471    4.7755 H         1 RES1    0.0000
     30 C10        2.5343    8.4105    5.4683 C.2       1 RES1    0.0000
     31 C11        1.7185    7.2716    4.9166 C.3       1 RES1    0.0000
     32 H12        2.1617    6.9332    4.0874 H         1 RES1    0.0000
     33 C12        1.7069    6.1502    5.9551 C.3       1 RES1    0.0000
     34 H13        2.6285    5.8790    6.1517 H         1 RES1    0.0000
     35 H14        1.2081    5.3832    5.6015 H         1 RES1    0.0000
     36 H15        1.2762    6.4687    6.7763 H         1 RES1    0.0000
     37 C13        0.2985    7.6879    4.5725 C.3       1 RES1    0.0000
     38 H16       -0.1262    8.0851    5.3605 H         1 RES1    0.0000
     39 H17       -0.2126    6.9018    4.2871 H         1 RES1    0.0000
     40 H18        0.3185    8.3456    3.8464 H         1 RES1    0.0000
     41 C14        5.1986    7.7903    7.5025 C.3       1 RES1    0.0000
     42 H19        4.5669    8.3853    7.9591 H         1 RES1    0.0000
     43 H20        5.8823    7.4900    8.1367 H         1 RES1    0.0000
     44 H21        4.7168    7.0134    7.1489 H         1 RES1    0.0000
     45 C15        6.7605    8.5946    3.1852 C.3       1 RES1    0.0000
     46 H22        5.8693    9.0232    3.3422 H         1 RES1    0.0000
     47 C16        7.6669    9.6030    2.4781 C.3       1 RES1    0.0000
     48 H23        7.7510   10.4089    3.0283 H         1 RES1    0.0000
     49 H24        7.2786    9.8383    1.6093 H         1 RES1    0.0000
     50 H25        8.5529    9.2065    2.3418 H         1 RES1    0.0000
     51 C17        6.5460    7.3067    2.4068 C.ar      1 RES1    0.0000
     52 C18        7.6312    6.5512    1.9581 C.ar      1 RES1    0.0000
     53 H26        8.5181    6.8423    2.1372 H         1 RES1    0.0000
     54 C19        7.4146    5.3580    1.2383 C.ar      1 RES1    0.0000
     55 H27        8.1520    4.8278    0.9592 H         1 RES1    0.0000
     56 C20        6.1177    4.9638    0.9434 C.ar      1 RES1    0.0000
     57 H28        5.9702    4.1610    0.4566 H         1 RES1    0.0000
     58 C21        5.0530    5.7147    1.3429 C.ar      1 RES1    0.0000
     59 H29        4.1701    5.4443    1.1178 H         1 RES1    0.0000
     60 C22        5.2605    6.8980    2.0928 C.ar      1 RES1    0.0000
     61 H30        4.5158    7.4121    2.3798 H         1 RES1    0.0000
     62 C23        8.7564    7.6993    6.9032 C.3       1 RES1    0.0000
     63 H31        9.3415    7.1570    7.4740 H         1 RES1    0.0000
     64 H32        8.2681    8.3441    7.4565 H         1 RES1    0.0000
     65 H33        9.2986    8.1791    6.2420 H         1 RES1    0.0000
     66 C24        9.1856    4.1258    6.9745 C.3       1 RES1    0.0000
     67 H34        8.7561    4.6797    7.6595 H         1 RES1    0.0000
     68 H35        9.9686    3.6782    7.3598 H         1 RES1    0.0000
     69 H36        8.5508    3.4521    6.6527 H         1 RES1    0.0000
     70 C25       11.5890    3.4719    5.2178 C.3       1 RES1    0.0000
     71 H37       12.0777    3.0953    4.4552 H         1 RES1    0.0000
     72 H38       11.3559    2.7554    5.8441 H         1 RES1    0.0000
     73 H39       12.1530    4.1319    5.6728 H         1 RES1    0.0000
     74 C26       10.8587    4.6086    2.4131 C.2       1 RES1    0.0000
     75 C27       11.1237    5.6697    1.3841 C.ar      1 RES1    0.0000
     76 C28       11.1423    7.0454    1.7171 C.ar      1 RES1    0.0000
     77 H40       11.0070    7.3159    2.6176 H         1 RES1    0.0000
     78 C29       11.3619    8.0064    0.7277 C.ar      1 RES1    0.0000
     79 H41       11.3750    8.9323    0.9402 H         1 RES1    0.0000
     80 C30       11.5571    7.5718   -0.5676 C.ar      1 RES1    0.0000
     81 C31       11.5519    6.2288   -0.9275 C.ar      1 RES1    0.0000
     82 H42       11.6850    5.9630   -1.8296 H         1 RES1    0.0000
     83 C32       11.3469    5.2923    0.0713 C.ar      1 RES1    0.0000
     84 H43       11.3597    4.3687   -0.1506 H         1 RES1    0.0000
@<TRIPOS>BOND
     1    1   11 1
     2    2   30 2
     3    3   14 1
     4    4    5 1
     5    6   22 1
     6    7   74 2
     7    8   10 2
     8    9   10 2
     9   10   80 1
    10   11   12 1
    11   12   13 1
    12   14   12 1
    13   15   14 1
    14   16   14 1
    15   17   16 1
    16   18    4 1
    17   19   18 1
    18   20   18 1
    19   21   20 1
    20   22   20 1
    21   23   22 1
    22   24   11 2
    23   25   24 1
    24   26   24 1
    25   27   26 1
    26   28   26 1
    27   29   26 1
    28   30    1 1
    29   31   30 1
    30   32   31 1
    31   33   31 1
    32   34   33 1
    33   35   33 1
    34   36   33 1
    35   37   31 1
    36   38   37 1
    37   39   37 1
    38   40   37 1
    39   41   12 1
    40   42   41 1
    41   43   41 1
    42   44   41 1
    43   45    3 1
    44   46   45 1
    45   47   45 1
    46   48   47 1
    47   49   47 1
    48   50   47 1
    49   51   45 1
    50   52   51 ar
    51   53   52 1
    52   54   52 ar
    53   55   54 1
    54   56   54 ar
    55   57   56 1
    56   58   56 ar
    57   59   58 1
    58   60   51 ar
    59   61   60 1
    60   62   16 1
    61   63   62 1
    62   64   62 1
    63   65   62 1
    64   66   20 1
    65   67   66 1
    66   68   66 1
    67   69   66 1
    68   70   22 1
    69   71   70 1
    70   72   70 1
    71   73   70 1
    72   74    6 1
    73   75   74 1
    74   76   75 ar
    75   77   76 1
    76   78   76 ar
    77   79   78 1
    78   80   78 ar
    79   81   80 ar
    80   82   81 1
    81   83   75 ar
    82   84   83 1
    83   16   18 1
    84   58   60 ar
    85   81   83 ar
@<TRIPOS>SUBSTRUCTURE
     1 RES1 1

@<TRIPOS>CRYSIN
  13.0500    7.6390   16.3720  90.0000 104.4400  90.0000   4 1

