# MOL2 file generated by ConQuest
# Please check atom types

@<TRIPOS>MOLECULE
AXOKAA
    40    43     1
SMALL
NO_CHARGES
****
Generated from CSD

@<TRIPOS>ATOM
      1 C1         3.5451    0.3177    4.2327 C.3       1 RES1    0.0000
      2 H1         2.9883    0.6809    3.5406 H         1 RES1    0.0000
      3 H2         3.9741   -0.4789    3.9138 H         1 RES1    0.0000
      4 H3         4.2114    0.9637    4.4807 H         1 RES1    0.0000
      5 C2         2.5998   -0.2368   11.7982 C.3       1 RES1    0.0000
      6 H4         2.1805   -0.3335   12.6698 H         1 RES1    0.0000
      7 H5         3.3084   -0.8962   11.7321 H         1 RES1    0.0000
      8 C3         1.5891   -0.4778   10.7282 C.ar      1 RES1    0.0000
      9 C4         0.5370   -1.3751   10.9526 C.ar      1 RES1    0.0000
     10 H6         0.4804   -1.8372   11.7581 H         1 RES1    0.0000
     11 C5        -0.4087   -1.5689    9.9842 C.ar      1 RES1    0.0000
     12 H7        -1.1074   -2.1631   10.1354 H         1 RES1    0.0000
     13 C6        -0.3380   -0.9067    8.8079 C.ar      1 RES1    0.0000
     14 H8        -0.9791   -1.0626    8.1536 H         1 RES1    0.0000
     15 C7         0.6883    0.0111    8.5670 C.ar      1 RES1    0.0000
     16 H9         0.7071    0.4894    7.7686 H         1 RES1    0.0000
     17 C8         1.6843    0.2066    9.5236 C.ar      1 RES1    0.0000
     18 C9         2.8688    1.1167    9.2619 C.3       1 RES1    0.0000
     19 C10        3.3748    1.7499   10.5582 C.2       1 RES1    0.0000
     20 C11        4.0854    0.3230    8.6761 C.3       1 RES1    0.0000
     21 H10        4.9154    0.6553    9.0536 H         1 RES1    0.0000
     22 H11        4.0052   -0.6198    8.8882 H         1 RES1    0.0000
     23 C12        4.0751    0.5226    7.1843 C.3       1 RES1    0.0000
     24 H12        4.9809    0.6855    6.8474 H         1 RES1    0.0000
     25 C13        3.1652    1.7097    6.8852 C.3       1 RES1    0.0000
     26 H13        3.6637    2.4191    6.4294 H         1 RES1    0.0000
     27 C14        2.6217    2.2079    8.2056 C.3       1 RES1    0.0000
     28 H14        1.6723    2.3894    8.1300 H         1 RES1    0.0000
     29 H15        3.0705    3.0284    8.4631 H         1 RES1    0.0000
     30 C15        2.6922   -0.0175    5.4444 C.3       1 RES1    0.0000
     31 C16        1.5495   -0.9608    5.1350 C.3       1 RES1    0.0000
     32 H16        1.0278   -0.6046    4.4122 H         1 RES1    0.0000
     33 H17        0.9951   -1.0585    5.9121 H         1 RES1    0.0000
     34 H18        1.9021   -1.8180    4.8846 H         1 RES1    0.0000
     35 N1         3.1579    1.0842   11.6770 N.am      1 RES1    0.0000
     36 O1         4.0477    2.8003   10.5600 O.2       1 RES1    0.0000
     37 O2         3.7294    1.4915   12.8736 O.3       1 RES1    0.0000
     38 H19        4.1727    2.1701   12.7477 H         1 RES1    0.0000
     39 O3         3.4722   -0.5662    6.5021 O.3       1 RES1    0.0000
     40 O4         2.1497    1.1755    6.0243 O.3       1 RES1    0.0000
@<TRIPOS>BOND
     1    1    2 1
     2    3    1 1
     3    4    1 1
     4    5    6 1
     5    7    5 1
     6    8    5 1
     7    9    8 ar
     8   10    9 1
     9   11    9 ar
    10   12   11 1
    11   13   11 ar
    12   14   13 1
    13   15   13 ar
    14   16   15 1
    15   17    8 ar
    16   18   17 1
    17   19   18 1
    18   20   18 1
    19   21   20 1
    20   22   20 1
    21   23   20 1
    22   24   23 1
    23   25   23 1
    24   26   25 1
    25   27   18 1
    26   28   27 1
    27   29   27 1
    28   30    1 1
    29   31   30 1
    30   32   31 1
    31   33   31 1
    32   34   31 1
    33   35    5 1
    34   36   19 2
    35   37   35 1
    36   38   37 1
    37   39   23 1
    38   40   25 1
    39   15   17 ar
    40   19   35 1
    41   25   27 1
    42   30   39 1
    43   30   40 1
@<TRIPOS>SUBSTRUCTURE
     1 RES1 1

@<TRIPOS>CRYSIN
  10.4490    5.8194   23.6240  90.0000  91.0500  90.0000  14 1

