# MOL2 file generated by ConQuest
# Please check atom types

@<TRIPOS>MOLECULE
AXOYER
    62    64     1
SMALL
NO_CHARGES
****
Generated from CSD

@<TRIPOS>ATOM
      1 C1         9.4935    6.9172    8.5085 C.3       1 RES1    0.0000
      2 H1         9.1941    7.1199    7.5984 H         1 RES1    0.0000
      3 C2         8.8562    7.8979    9.4779 C.3       1 RES1    0.0000
      4 H2         9.2428    7.7215   10.3615 H         1 RES1    0.0000
      5 C3         9.3371    9.2959    9.0434 C.3       1 RES1    0.0000
      6 H3         9.0210    9.4786    8.1451 H         1 RES1    0.0000
      7 H4         8.9567    9.9636    9.6366 H         1 RES1    0.0000
      8 C4        10.8604    9.3999    9.0760 C.3       1 RES1    0.0000
      9 H5        11.1226   10.2841    8.7724 H         1 RES1    0.0000
     10 H6        11.1661    9.2973    9.9898 H         1 RES1    0.0000
     11 C5        11.5371    8.3611    8.2086 C.3       1 RES1    0.0000
     12 H7        11.3123    8.5467    7.2732 H         1 RES1    0.0000
     13 C6        11.0107    6.9652    8.5602 C.3       1 RES1    0.0000
     14 H8        11.3744    6.3172    7.9376 H         1 RES1    0.0000
     15 H9        11.3102    6.7249    9.4508 H         1 RES1    0.0000
     16 C7         7.2997    7.7735    9.6242 C.3       1 RES1    0.0000
     17 C8         6.7370    8.9810   10.3971 C.3       1 RES1    0.0000
     18 H10        7.1474    9.0260   11.2644 H         1 RES1    0.0000
     19 H11        5.7877    8.8812   10.4978 H         1 RES1    0.0000
     20 H12        6.9246    9.7879    9.9123 H         1 RES1    0.0000
     21 C9         6.6354    7.7201    8.2536 C.3       1 RES1    0.0000
     22 H13        6.9784    6.9709    7.7610 H         1 RES1    0.0000
     23 H14        6.8230    8.5312    7.7750 H         1 RES1    0.0000
     24 H15        5.6862    7.6245    8.3604 H         1 RES1    0.0000
     25 C10        6.9474    6.5379   10.4767 C.ar      1 RES1    0.0000
     26 C11        7.4728    6.4170   11.7585 C.ar      1 RES1    0.0000
     27 H16        8.0562    7.0679   12.0744 H         1 RES1    0.0000
     28 C12        7.1474    5.3501   12.5716 C.ar      1 RES1    0.0000
     29 H17        7.5329    5.2784   13.4157 H         1 RES1    0.0000
     30 C13        6.2520    4.3872   12.1395 C.ar      1 RES1    0.0000
     31 H18        6.0302    3.6689   12.6878 H         1 RES1    0.0000
     32 C14        5.7017    4.5109   10.9020 C.ar      1 RES1    0.0000
     33 H19        5.0893    3.8769   10.6062 H         1 RES1    0.0000
     34 C15        6.0447    5.5708   10.0765 C.ar      1 RES1    0.0000
     35 H20        5.6582    5.6326    9.2324 H         1 RES1    0.0000
     36 C16       13.0584    8.3892    8.3496 C.3       1 RES1    0.0000
     37 H21       13.4450    7.7159    7.7843 H         1 RES1    0.0000
     38 H22       13.2988    8.2163    9.2618 H         1 RES1    0.0000
     39 H23       13.3880    9.2523    8.0894 H         1 RES1    0.0000
     40 O1         9.0692    5.5587    8.8692 O.3       1 RES1    0.0000
     41 C17        8.9598    4.6697    7.8897 C.2       1 RES1    0.0000
     42 O2         9.1692    4.8665    6.7266 O.2       1 RES1    0.0000
     43 C18        8.4510    3.3284    8.4297 C.3       1 RES1    0.0000
     44 H24        7.4842    3.4271    8.5556 H         1 RES1    0.0000
     45 O3         8.6303    2.3098    7.4833 O.3       1 RES1    0.0000
     46 H25        8.1018    2.4150    6.8643 H         1 RES1    0.0000
     47 C19        9.0262    2.9478    9.7836 C.3       1 RES1    0.0000
     48 H26        8.6137    3.5325   10.4529 H         1 RES1    0.0000
     49 N1        10.5205    3.1794    9.8364 N.pl3     1 RES1    0.0000
     50 O4        11.0117    3.3160   10.9190 O.2       1 RES1    0.0000
     51 O5        11.1340    3.2176    8.7987 O.2       1 RES1    0.0000
     52 C20        8.7215    1.5182   10.1801 C.ar      1 RES1    0.0000
     53 C21        7.4106    1.2103   10.5086 C.ar      1 RES1    0.0000
     54 H27        6.7587    1.8724   10.4792 H         1 RES1    0.0000
     55 C22        7.0634   -0.0801   10.8803 C.ar      1 RES1    0.0000
     56 H28        6.1784   -0.2825   11.0817 H         1 RES1    0.0000
     57 C23        8.0230   -1.0585   10.9531 C.ar      1 RES1    0.0000
     58 H29        7.7961   -1.9146   11.2365 H         1 RES1    0.0000
     59 C24        9.3236   -0.7689   10.6062 C.ar      1 RES1    0.0000
     60 H30        9.9723   -1.4338   10.6372 H         1 RES1    0.0000
     61 C25        9.6614    0.5103   10.2128 C.ar      1 RES1    0.0000
     62 H31       10.5381    0.6944    9.9665 H         1 RES1    0.0000
@<TRIPOS>BOND
     1    1    2 1
     2    3    1 1
     3    4    3 1
     4    5    3 1
     5    6    5 1
     6    7    5 1
     7    8    5 1
     8    9    8 1
     9   10    8 1
    10   11    8 1
    11   12   11 1
    12   13    1 1
    13   14   13 1
    14   15   13 1
    15   16    3 1
    16   17   16 1
    17   18   17 1
    18   19   17 1
    19   20   17 1
    20   21   16 1
    21   22   21 1
    22   23   21 1
    23   24   21 1
    24   25   16 1
    25   26   25 ar
    26   27   26 1
    27   28   26 ar
    28   29   28 1
    29   30   28 ar
    30   31   30 1
    31   32   30 ar
    32   33   32 1
    33   34   25 ar
    34   35   34 1
    35   36   11 1
    36   37   36 1
    37   38   36 1
    38   39   36 1
    39   40    1 1
    40   41   40 1
    41   42   41 2
    42   43   41 1
    43   44   43 1
    44   45   43 1
    45   46   45 1
    46   47   43 1
    47   48   47 1
    48   49   47 1
    49   50   49 2
    50   51   49 2
    51   52   47 1
    52   53   52 ar
    53   54   53 1
    54   55   53 ar
    55   56   55 1
    56   57   55 ar
    57   58   57 1
    58   59   57 ar
    59   60   59 1
    60   61   52 ar
    61   62   61 1
    62   11   13 1
    63   32   34 ar
    64   59   61 ar
@<TRIPOS>SUBSTRUCTURE
     1 RES1 1

@<TRIPOS>CRYSIN
  10.3630   14.0570   15.4880  90.0000  90.0000  90.0000  19 1

