# MOL2 file generated by ConQuest
# Please check atom types

@<TRIPOS>MOLECULE
AYALOC
    28    32     1
SMALL
NO_CHARGES
****
Generated from CSD

@<TRIPOS>ATOM
      1 O1         0.0000    2.4953   10.9107 O.3       1 RES1    0.0000
      2 O2         0.0000    0.5046   11.7284 O.2       1 RES1    0.0000
      3 O3         0.0000    2.1905   13.0927 O.2       1 RES1    0.0000
      4 N1         0.0000    1.6828   12.0064 N.pl3     1 RES1    0.0000
      5 C1         0.0000    4.5729    9.8584 C.3       1 RES1    0.0000
      6 C2         0.0000    6.1219    9.6293 C.3       1 RES1    0.0000
      7 C3         1.1028    4.4114    8.7696 C.3       1 RES1    0.0000
      8 C4         0.0000    3.9272   11.2113 C.3       1 RES1    0.0000
      9 H1         0.0000    6.8078   10.4015 H         1 RES1    0.0000
     10 H2         1.9214    3.8339    8.8698 H         1 RES1    0.0000
     11 H3         0.7723    4.1137   11.7393 H         1 RES1    0.0000
     12 O1B        0.0000    7.8667    6.3963 O.3       1 RES1    0.0000
     13 O2B        0.0000    9.8574    5.5786 O.2       1 RES1    0.0000
     14 O3B        0.0000    8.1715    4.2143 O.2       1 RES1    0.0000
     15 N1B        0.0000    8.6792    5.3006 N.pl3     1 RES1    0.0000
     16 C1B        0.0000    5.7891    7.4486 C.3       1 RES1    0.0000
     17 C2B        0.0000    4.2401    7.6777 C.3       1 RES1    0.0000
     18 C3B        1.1028    5.9506    8.5374 C.3       1 RES1    0.0000
     19 C3J       -1.1028    4.4114    8.7696 C.3       1 RES1    0.0000
     20 C3H       -1.1028    5.9506    8.5374 C.3       1 RES1    0.0000
     21 C4B        0.0000    6.4348    6.0957 C.3       1 RES1    0.0000
     22 H1B        0.0000    3.5542    6.9055 H         1 RES1    0.0000
     23 H2H       -1.9214    6.5281    8.4372 H         1 RES1    0.0000
     24 H2J       -1.9214    3.8339    8.8698 H         1 RES1    0.0000
     25 H2B        1.9214    6.5281    8.4372 H         1 RES1    0.0000
     26 H3B        0.7723    6.2483    5.5677 H         1 RES1    0.0000
     27 H3H       -0.7722    6.2483    5.5677 H         1 RES1    0.0000
     28 H3J       -0.7722    4.1137   11.7393 H         1 RES1    0.0000
@<TRIPOS>BOND
     1    1    4 1
     2    2    4 2
     3    3    4 2
     4    5    6 1
     5    6    9 1
     6    7    5 1
     7    8    1 1
     8   10    7 1
     9   11    8 1
    10   12   15 1
    11   13   15 2
    12   14   15 2
    13   16   17 1
    14   17    7 1
    15   18    6 1
    16   19    5 1
    17   20    6 1
    18   21   12 1
    19   22   17 1
    20   23   20 1
    21   24   19 1
    22   25   18 1
    23   26   21 1
    24   27   21 1
    25   28    8 1
    26    5    8 1
    27    7   18 1
    28   16   18 1
    29   16   20 1
    30   16   21 1
    31   17   19 1
    32   19   20 1
@<TRIPOS>SUBSTRUCTURE
     1 RES1 1

@<TRIPOS>CRYSIN
   6.1780   10.3620   17.3070  90.0000  90.0000  90.0000  64 1

