# MOL2 file generated by ConQuest
# Please check atom types

@<TRIPOS>MOLECULE
AYAMOD
    94    97     1
SMALL
NO_CHARGES
****
Generated from CSD

@<TRIPOS>ATOM
      1 N1         5.0177    9.3090    1.4585 N.pl3     1 RES1    0.0000
      2 C1         5.6956   10.1221    2.5221 C.3       1 RES1    0.0000
      3 N2         6.5534   10.9944    1.6776 N.3       1 RES1    0.0000
      4 C2         6.1060   10.9476    0.3658 C.ar      1 RES1    0.0000
      5 C3         6.4696   11.7292   -0.6946 C.ar      1 RES1    0.0000
      6 H1         7.0690   12.4350   -0.6011 H         1 RES1    0.0000
      7 C4         5.8906   11.4126   -1.9290 C.ar      1 RES1    0.0000
      8 C5         5.0259   10.3801   -2.1128 C.ar      1 RES1    0.0000
      9 H2         4.6816   10.2021   -2.9572 H         1 RES1    0.0000
     10 C6         4.6607    9.5928   -1.0266 C.ar      1 RES1    0.0000
     11 H3         4.0762    8.8762   -1.1313 H         1 RES1    0.0000
     12 C7         5.1850    9.9006    0.2031 C.ar      1 RES1    0.0000
     13 C8         4.3513    8.1734    1.8162 C.2       1 RES1    0.0000
     14 C9         4.7015    7.5223    2.9459 C.2       1 RES1    0.0000
     15 C10        5.9370    7.9312    3.6002 C.2       1 RES1    0.0000
     16 C11        6.4674    9.1448    3.3714 C.2       1 RES1    0.0000
     17 C12        3.1940    7.7611    0.9315 C.2       1 RES1    0.0000
     18 O1         2.1906    8.4144    0.8735 O.2       1 RES1    0.0000
     19 O2         3.4587    6.6668    0.2498 O.3       1 RES1    0.0000
     20 C13        2.3247    6.1253   -0.4819 C.3       1 RES1    0.0000
     21 H4         2.5738    5.2915   -0.8864 H         1 RES1    0.0000
     22 H5         2.0584    6.7458   -1.1652 H         1 RES1    0.0000
     23 H6         1.5925    5.9812    0.1225 H         1 RES1    0.0000
     24 C14        3.7962    6.4656    3.4697 C.2       1 RES1    0.0000
     25 O3         2.7610    6.1501    2.9604 O.2       1 RES1    0.0000
     26 O4         4.2570    5.9320    4.5817 O.3       1 RES1    0.0000
     27 C15        3.3916    4.9582    5.2424 C.3       1 RES1    0.0000
     28 H7         3.8438    4.5956    6.0079 H         1 RES1    0.0000
     29 H8         3.1820    4.2495    4.6300 H         1 RES1    0.0000
     30 H9         2.5813    5.3885    5.5244 H         1 RES1    0.0000
     31 C16        6.6938    6.9672    4.4850 C.2       1 RES1    0.0000
     32 O5         6.9167    7.1714    5.6501 O.2       1 RES1    0.0000
     33 O6         7.1264    5.9320    3.7839 O.3       1 RES1    0.0000
     34 C17        7.9902    5.0331    4.5140 C.3       1 RES1    0.0000
     35 H10        8.4933    4.4986    3.8951 H         1 RES1    0.0000
     36 H11        7.4596    4.4613    5.0732 H         1 RES1    0.0000
     37 H12        8.5948    5.5437    5.0603 H         1 RES1    0.0000
     38 C18        7.7711    9.5832    3.9451 C.2       1 RES1    0.0000
     39 O7         7.9141   10.6216    4.5382 O.2       1 RES1    0.0000
     40 O8         8.7152    8.6928    3.7243 O.3       1 RES1    0.0000
     41 C19       10.0244    8.9940    4.3141 C.3       1 RES1    0.0000
     42 H13       10.6334    8.2748    4.1272 H         1 RES1    0.0000
     43 H14        9.9321    9.0938    5.2650 H         1 RES1    0.0000
     44 H15       10.3657    9.8088    3.9387 H         1 RES1    0.0000
     45 C20        4.6477   10.9025    3.2570 C.2       1 RES1    0.0000
     46 H16        4.1700   11.5309    2.7654 H         1 RES1    0.0000
     47 C21        4.3376   10.7839    4.5382 C.2       1 RES1    0.0000
     48 H17        4.8360   10.2082    5.0716 H         1 RES1    0.0000
     49 C22        3.2454   11.5240    5.1312 C.2       1 RES1    0.0000
     50 H18        2.8445   12.1577    4.5817 H         1 RES1    0.0000
     51 C23        2.7303   11.4217    6.3673 C.2       1 RES1    0.0000
     52 C24        3.2719   10.4834    7.4003 C.2       1 RES1    0.0000
     53 O9         3.4547   10.8034    8.5429 O.2       1 RES1    0.0000
     54 O10        3.5595    9.2864    6.9007 O.3       1 RES1    0.0000
     55 C25        4.1225    8.3117    7.8177 C.3       1 RES1    0.0000
     56 H19        4.3417    7.5107    7.3374 H         1 RES1    0.0000
     57 H20        3.4814    8.1104    8.5026 H         1 RES1    0.0000
     58 H21        4.9165    8.6720    8.2190 H         1 RES1    0.0000
     59 C26        1.5839   12.2704    6.7686 C.2       1 RES1    0.0000
     60 C27        0.4552   11.4784    7.3036 C.2       1 RES1    0.0000
     61 O11        0.4736   10.3123    7.4938 O.2       1 RES1    0.0000
     62 O12       -0.6385   12.2512    7.5550 O.3       1 RES1    0.0000
     63 C28       -1.8400   11.4772    7.9079 C.3       1 RES1    0.0000
     64 H22       -2.6220   11.9421    7.6001 H         1 RES1    0.0000
     65 H23       -1.8844   11.3718    8.8604 H         1 RES1    0.0000
     66 H24       -1.7971   10.6131    7.4905 H         1 RES1    0.0000
     67 C29        1.4294   13.5831    6.4898 C.2       1 RES1    0.0000
     68 H25        0.5505   13.8847    6.5091 H         1 RES1    0.0000
     69 N3         2.3387   14.5179    6.1916 N.3       1 RES1    0.0000
     70 C30        3.7530   14.3099    6.3753 C.3       1 RES1    0.0000
     71 H26        3.8951   13.7175    7.1183 H         1 RES1    0.0000
     72 H27        4.1799   15.1516    6.5526 H         1 RES1    0.0000
     73 H28        4.1252   13.9231    5.5808 H         1 RES1    0.0000
     74 C31        1.9323   15.8008    5.6824 C.3       1 RES1    0.0000
     75 H29        0.9820   15.8962    5.7774 H         1 RES1    0.0000
     76 H30        2.1684   15.8656    4.7541 H         1 RES1    0.0000
     77 H31        2.3747   16.4961    6.1739 H         1 RES1    0.0000
     78 C32        7.0552   12.2666    2.2078 C.3       1 RES1    0.0000
     79 H32        6.9242   12.2799    3.1683 H         1 RES1    0.0000
     80 H33        6.5350   12.9922    1.8291 H         1 RES1    0.0000
     81 C33        8.5085   12.5051    1.9129 C.ar      1 RES1    0.0000
     82 C34        9.0672   13.7060    2.2981 C.ar      1 RES1    0.0000
     83 H34        8.5412   14.3374    2.7332 H         1 RES1    0.0000
     84 C35       10.4059   13.9873    2.0418 C.ar      1 RES1    0.0000
     85 H35       10.7701   14.8002    2.3061 H         1 RES1    0.0000
     86 C36       11.1764   13.0721    1.4037 C.ar      1 RES1    0.0000
     87 H36       12.0680   13.2696    1.2264 H         1 RES1    0.0000
     88 C37       10.6715   11.8743    1.0217 C.ar      1 RES1    0.0000
     89 H37       11.2036   11.2519    0.5802 H         1 RES1    0.0000
     90 C38        9.3246   11.5973    1.3070 C.ar      1 RES1    0.0000
     91 H38        8.9783   10.7654    1.0749 H         1 RES1    0.0000
     92 N4         6.2773   12.2346   -3.0845 N.pl3     1 RES1    0.0000
     93 O13        5.6641   12.0817   -4.1240 O.2       1 RES1    0.0000
     94 O14        7.1505   13.0669   -2.9604 O.2       1 RES1    0.0000
@<TRIPOS>BOND
     1    1    2 1
     2    2    3 1
     3    3    4 1
     4    4    5 ar
     5    5    6 1
     6    7    5 ar
     7    8    7 ar
     8    9    8 1
     9   10    8 ar
    10   11   10 1
    11   12    1 1
    12   13    1 1
    13   14   13 2
    14   15   14 1
    15   16    2 1
    16   17   13 1
    17   18   17 2
    18   19   17 1
    19   20   19 1
    20   21   20 1
    21   22   20 1
    22   23   20 1
    23   24   14 1
    24   25   24 2
    25   26   24 1
    26   27   26 1
    27   28   27 1
    28   29   27 1
    29   30   27 1
    30   31   15 1
    31   32   31 2
    32   33   31 1
    33   34   33 1
    34   35   34 1
    35   36   34 1
    36   37   34 1
    37   38   16 1
    38   39   38 2
    39   40   38 1
    40   41   40 1
    41   42   41 1
    42   43   41 1
    43   44   41 1
    44   45    2 1
    45   46   45 1
    46   47   45 2
    47   48   47 1
    48   49   47 1
    49   50   49 1
    50   51   49 2
    51   52   51 1
    52   53   52 2
    53   54   52 1
    54   55   54 1
    55   56   55 1
    56   57   55 1
    57   58   55 1
    58   59   51 1
    59   60   59 1
    60   61   60 2
    61   62   60 1
    62   63   62 1
    63   64   63 1
    64   65   63 1
    65   66   63 1
    66   67   59 2
    67   68   67 1
    68   69   67 1
    69   70   69 1
    70   71   70 1
    71   72   70 1
    72   73   70 1
    73   74   69 1
    74   75   74 1
    75   76   74 1
    76   77   74 1
    77   78    3 1
    78   79   78 1
    79   80   78 1
    80   81   78 1
    81   82   81 ar
    82   83   82 1
    83   84   82 ar
    84   85   84 1
    85   86   84 ar
    86   87   86 1
    87   88   86 ar
    88   89   88 1
    89   90   81 ar
    90   91   90 1
    91   92    7 1
    92   93   92 2
    93   94   92 2
    94    4   12 ar
    95   10   12 ar
    96   15   16 2
    97   88   90 ar
@<TRIPOS>SUBSTRUCTURE
     1 RES1 1

@<TRIPOS>CRYSIN
   8.9655   13.9500   16.4510  83.4100  79.8700  84.0600   2 1

