# MOL2 file generated by ConQuest
# Please check atom types

@<TRIPOS>MOLECULE
AYAMET
    40    39     2
SMALL
NO_CHARGES
****
Generated from CSD

@<TRIPOS>ATOM
      1 O1         5.2884   -1.0680   -5.0557 O.2       1 RES1    0.0000
      2 O2         8.3005    2.2360   -5.9122 O.3       1 RES1    0.0000
      3 O3        10.4524    1.4804   -5.7664 O.2       1 RES1    0.0000
      4 O4         9.9027    3.4896   -5.7504 O.2       1 RES1    0.0000
      5 O5         1.7846    2.3042    0.3437 O.3       1 RES1    0.0000
      6 O6         0.3023    1.5719    1.8275 O.2       1 RES1    0.0000
      7 O7         1.0051    3.6112    1.8795 O.2       1 RES1    0.0000
      8 N1         5.7362    1.1373   -5.2253 N.am      1 RES1    0.0000
      9 H1         5.6259    1.9198   -4.8854 H         1 RES1    0.0000
     10 N2         9.6690    2.3317   -5.9170 N.pl3     1 RES1    0.0000
     11 N3         0.9632    2.4971    1.4498 N.pl3     1 RES1    0.0000
     12 C1         2.7485    0.8380   -1.2718 C.3       1 RES1    0.0000
     13 C2         2.4636    1.3609   -2.7261 C.3       1 RES1    0.0000
     14 H2         1.6907    1.9013   -2.9937 H         1 RES1    0.0000
     15 C3         2.8128   -0.0523   -3.2816 C.3       1 RES1    0.0000
     16 H3         2.2904   -0.5382   -3.9532 H         1 RES1    0.0000
     17 C4         3.1152   -0.5594   -1.8550 C.3       1 RES1    0.0000
     18 H4         2.8096   -1.4159   -1.4897 H         1 RES1    0.0000
     19 C5         4.5972   -0.1369   -1.9920 C.3       1 RES1    0.0000
     20 H5         5.3693   -0.6805   -1.7283 H         1 RES1    0.0000
     21 C6         4.2485    1.2811   -1.4241 C.3       1 RES1    0.0000
     22 H6         4.7684    1.7643   -0.7480 H         1 RES1    0.0000
     23 C7         3.9511    1.7881   -2.8609 C.3       1 RES1    0.0000
     24 H7         4.2569    2.6447   -3.2260 H         1 RES1    0.0000
     25 C8         4.3060    0.3928   -3.4496 C.3       1 RES1    0.0000
     26 C9         5.1547    0.0878   -4.6356 C.2       1 RES1    0.0000
     27 C10        6.5406    1.0003   -6.4123 C.3       1 RES1    0.0000
     28 H8         6.4102    1.7860   -6.9662 H         1 RES1    0.0000
     29 H9         6.2218    0.2332   -6.9133 H         1 RES1    0.0000
     30 C11        7.9560    0.8370   -6.1749 C.3       1 RES1    0.0000
     31 H10        8.3547    0.9454   -7.0591 H         1 RES1    0.0000
     32 H11        8.0503   -0.1237   -6.0067 Du        2 SUP2    0.0000
     33 C12        1.8734    0.9131   -0.0761 C.3       1 RES1    0.0000
     34 H12        0.9903    0.5742   -0.2899 H         1 RES1    0.0000
     35 H13        2.2434    0.3733    0.6407 H         1 RES1    0.0000
     36 H14        8.1333    0.2644   -5.4172 H         1 RES1    0.0000
     37 H15        8.4159    0.4806   -6.9469 Du        2 SUP2    0.0000
     38 O8         8.7499    1.4487   -5.3788 Du        2 SUP2    0.0000
     39 O9         9.5594    2.1625   -7.1440 Du        2 SUP2    0.0000
     40 O10       10.1182    3.1776   -5.2523 Du        2 SUP2    0.0000
@<TRIPOS>BOND
     1    1   26 2
     2    2   10 1
     3    3   10 2
     4    4   10 2
     5    5   11 1
     6    6   11 2
     7    7   11 2
     8    8    9 1
     9   12   13 1
    10   13   14 1
    11   15   13 1
    12   16   15 1
    13   17   12 1
    14   18   17 1
    15   19   17 1
    16   20   19 1
    17   21   12 1
    18   22   21 1
    19   23   13 1
    20   24   23 1
    21   25   15 1
    22   26    8 1
    23   27    8 1
    24   28   27 1
    25   29   27 1
    26   30    2 1
    27   31   30 1
    28   33    5 1
    29   34   33 1
    30   35   33 1
    31   36   30 1
    32   12   33 1
    33   15   17 1
    34   19   21 1
    35   19   25 1
    36   21   23 1
    37   23   25 1
    38   25   26 1
    39   27   30 1
@<TRIPOS>SUBSTRUCTURE
     1 RES1 1
     2 SUP2 32

@<TRIPOS>CRYSIN
  15.9757    5.2872   16.3633  90.0000 101.7940  90.0000  13 1

