# MOL2 file generated by ConQuest
# Please check atom types

@<TRIPOS>MOLECULE
AYAMAP
    25    29     1
SMALL
NO_CHARGES
****
Generated from CSD

@<TRIPOS>ATOM
      1 O1        -1.6396   -1.1585    6.7797 O.3       1 RES1    0.0000
      2 O2        -0.1324    0.4233    7.1697 O.2       1 RES1    0.0000
      3 O3         2.9331   -1.3612    1.4300 O.3       1 RES1    0.0000
      4 O4         3.1551   -2.2929   -0.5811 O.2       1 RES1    0.0000
      5 O5         4.6895   -0.9745    0.2313 O.2       1 RES1    0.0000
      6 N1         3.6414   -1.5739    0.2475 N.pl3     1 RES1    0.0000
      7 C1        -0.5822   -0.4770    6.4785 C.2       1 RES1    0.0000
      8 C2         0.0461   -0.8804    5.1985 C.3       1 RES1    0.0000
      9 C3        -0.6566   -0.7001    3.7918 C.3       1 RES1    0.0000
     10 H1        -1.5340   -0.2889    3.6444 H         1 RES1    0.0000
     11 C4        -0.2703   -2.1624    3.4101 C.3       1 RES1    0.0000
     12 H2        -0.8646   -2.8106    2.9777 H         1 RES1    0.0000
     13 C5         0.4178   -2.3558    4.8049 C.3       1 RES1    0.0000
     14 H3         0.3143   -3.1394    5.3845 H         1 RES1    0.0000
     15 C6         1.7709   -1.8367    4.2221 C.3       1 RES1    0.0000
     16 H4         2.6468   -2.2509    4.3714 H         1 RES1    0.0000
     17 C7         1.3923   -0.3680    4.6005 C.3       1 RES1    0.0000
     18 H5         1.9916    0.2779    5.0284 H         1 RES1    0.0000
     19 C8         0.7002   -0.1751    3.2081 C.3       1 RES1    0.0000
     20 H6         0.8023    0.6087    2.6297 H         1 RES1    0.0000
     21 C9         1.0870   -1.6443    2.8204 C.3       1 RES1    0.0000
     22 C10        1.6551   -2.0624    1.5020 C.3       1 RES1    0.0000
     23 H7         1.7842   -3.0235    1.4685 H         1 RES1    0.0000
     24 H8         1.0727   -1.7971    0.7741 H         1 RES1    0.0000
     25 H9        -2.0872   -0.7996    7.5133 H         1 RES1    0.0000
@<TRIPOS>BOND
     1    1    7 1
     2    2    7 2
     3    3    6 1
     4    4    6 2
     5    5    6 2
     6    7    8 1
     7    8    9 1
     8    9   10 1
     9   11    9 1
    10   12   11 1
    11   13    8 1
    12   14   13 1
    13   15   13 1
    14   16   15 1
    15   17    8 1
    16   18   17 1
    17   19    9 1
    18   20   19 1
    19   21   11 1
    20   22    3 1
    21   23   22 1
    22   24   22 1
    23   25    1 1
    24   11   13 1
    25   15   17 1
    26   15   21 1
    27   17   19 1
    28   19   21 1
    29   21   22 1
@<TRIPOS>SUBSTRUCTURE
     1 RES1 1

@<TRIPOS>CRYSIN
   5.9760    9.9950   16.5170  90.0000 100.0700  90.0000  14 1

