# MOL2 file generated by ConQuest
# Please check atom types

@<TRIPOS>MOLECULE
AYAQAU
   116   124     2
SMALL
NO_CHARGES
****
Generated from CSD

@<TRIPOS>ATOM
      1 C1        -0.7229   15.8649   12.8504 C.3       1 RES1    0.0000
      2 H1        -0.7862   15.8382   11.8721 H         1 RES1    0.0000
      3 H2        -0.2326   15.0777   13.1662 H         1 RES1    0.0000
      4 H3        -0.2469   16.6774   13.1247 H         1 RES1    0.0000
      5 C2        -2.0907   15.8680   13.4358 C.3       1 RES1    0.0000
      6 H4        -2.0435   15.8228   14.4245 H         1 RES1    0.0000
      7 H5        -2.5728   16.6945   13.1795 H         1 RES1    0.0000
      8 C3        -4.0536   14.5374   13.2654 C.2       1 RES1    0.0000
      9 C4        -4.6692   13.2254   12.7005 C.3       1 RES1    0.0000
     10 C5        -3.7522   12.5667   11.6524 C.3       1 RES1    0.0000
     11 H6        -3.7033   13.1567   10.8576 H         1 RES1    0.0000
     12 H7        -2.8388   12.4969   12.0289 H         1 RES1    0.0000
     13 C6        -4.1929   11.2129   11.2156 C.2       1 RES1    0.0000
     14 C7        -3.8172    9.9692   11.5817 C.2       1 RES1    0.0000
     15 H8        -3.1892    9.7282   12.2518 H         1 RES1    0.0000
     16 C8        -4.5651    9.1016   10.7461 C.2       1 RES1    0.0000
     17 C9        -4.5327    7.6253   10.7009 C.ar      1 RES1    0.0000
     18 C10       -3.4341    6.9475   11.2307 C.ar      1 RES1    0.0000
     19 H9        -2.7308    7.4363   11.6416 H         1 RES1    0.0000
     20 C11       -3.3640    5.5657   11.1623 C.ar      1 RES1    0.0000
     21 H10       -2.6080    5.1119   11.5150 H         1 RES1    0.0000
     22 C12       -4.3908    4.8455   10.5825 C.ar      1 RES1    0.0000
     23 H11       -4.3422    3.8985   10.5383 H         1 RES1    0.0000
     24 C13       -5.4954    5.5096   10.0646 C.ar      1 RES1    0.0000
     25 H12       -6.1993    5.0128    9.6654 H         1 RES1    0.0000
     26 C14       -5.5774    6.8966   10.1259 C.ar      1 RES1    0.0000
     27 H13       -6.3391    7.3457    9.7788 H         1 RES1    0.0000
     28 C15       -7.0098   13.0233   13.0072 C.2       1 RES1    0.0000
     29 C16       -6.3146   14.2922   11.0064 C.3       1 RES1    0.0000
     30 H14       -7.2268   14.0642   10.6951 H         1 RES1    0.0000
     31 H15       -5.6813   14.0300   10.2927 H         1 RES1    0.0000
     32 C17       -6.2312   15.7946   11.1959 C.ar      1 RES1    0.0000
     33 C18       -5.4254   16.5547   10.3696 C.ar      1 RES1    0.0000
     34 H16       -4.8918   16.1288    9.7089 H         1 RES1    0.0000
     35 C19       -5.3903   17.9361   10.4961 C.ar      1 RES1    0.0000
     36 H17       -4.8404   18.4497    9.9167 H         1 RES1    0.0000
     37 C20       -6.1495   18.5660   11.4600 C.ar      1 RES1    0.0000
     38 H18       -6.1225   19.5111   11.5471 H         1 RES1    0.0000
     39 C21       -6.9527   17.8107   12.3015 C.ar      1 RES1    0.0000
     40 H19       -7.4717   18.2395   12.9716 H         1 RES1    0.0000
     41 C22       -7.0012   16.4357   12.1681 C.ar      1 RES1    0.0000
     42 H20       -7.5614   15.9254   12.7412 H         1 RES1    0.0000
     43 C23       -4.9688   12.3344   13.8964 C.ar      1 RES1    0.0000
     44 C24       -4.0950   11.6680   14.7447 C.ar      1 RES1    0.0000
     45 H21       -3.1551   11.6902   14.6021 H         1 RES1    0.0000
     46 C25       -4.6468   10.9671   15.8103 C.ar      1 RES1    0.0000
     47 H22       -4.0719   10.5007   16.4044 H         1 RES1    0.0000
     48 C26       -6.0280   10.9333   16.0275 C.ar      1 RES1    0.0000
     49 H23       -6.3758   10.4648   16.7785 H         1 RES1    0.0000
     50 C27       -6.8944   11.5752   15.1602 C.ar      1 RES1    0.0000
     51 H24       -7.8354   11.5416   15.2917 H         1 RES1    0.0000
     52 C28       -6.3422   12.2727   14.0901 C.ar      1 RES1    0.0000
     53 N1        -6.0215   13.5048   12.1999 N.am      1 RES1    0.0000
     54 N2        -5.3382    9.7769    9.9226 N.2       1 RES1    0.0000
     55 O1        -5.1065   11.1411   10.2230 O.3       1 RES1    0.0000
     56 O2        -8.2124   13.1872   12.8241 O.2       1 RES1    0.0000
     57 O3        -4.6446   15.2852   13.9858 O.2       1 RES1    0.0000
     58 O4        -2.7823   14.6863   12.9029 O.3       1 RES1    0.0000
     59 C29       -7.8260    8.9813   12.4068 C.3       2 RES2    0.0000
     60 H25       -7.3510    9.8239   12.5617 H         2 RES2    0.0000
     61 H26       -8.0117    8.8822   11.4489 H         2 RES2    0.0000
     62 H27       -7.2714    8.2327   12.7109 H         2 RES2    0.0000
     63 C30       -9.1149    8.9875   13.1683 C.3       2 RES2    0.0000
     64 H28       -9.6180    8.1507   13.0038 H         2 RES2    0.0000
     65 H29       -8.9404    9.0651   14.1392 H         2 RES2    0.0000
     66 C31      -11.1338   10.2312   13.1251 C.2       2 RES2    0.0000
     67 C32      -11.8148   11.5386   12.6201 C.3       2 RES2    0.0000
     68 C33      -11.9540   12.4482   13.8313 C.ar      2 RES2    0.0000
     69 C34      -13.2898   12.5007   14.2099 C.ar      2 RES2    0.0000
     70 C35      -14.0919   11.7222   13.2431 C.2       2 RES2    0.0000
     71 C36      -13.6586   10.4816   11.1413 C.3       2 RES2    0.0000
     72 H30      -13.1731   10.8101   10.3418 H         2 RES2    0.0000
     73 H31      -14.6232   10.6511   10.9974 H         2 RES2    0.0000
     74 C37      -13.4428    8.9916   11.2579 C.ar      2 RES2    0.0000
     75 C38      -12.5610    8.3320   10.4096 C.ar      2 RES2    0.0000
     76 H32      -12.0638    8.8292    9.7712 H         2 RES2    0.0000
     77 C39      -12.3992    6.9538   10.4865 C.ar      2 RES2    0.0000
     78 H33      -11.7932    6.5151    9.9016 H         2 RES2    0.0000
     79 C40      -13.1186    6.2201   11.4122 C.ar      2 RES2    0.0000
     80 H34      -13.0161    5.2760   11.4565 H         2 RES2    0.0000
     81 C41      -13.9902    6.8680   12.2768 C.ar      2 RES2    0.0000
     82 H35      -14.4798    6.3681   12.9206 H         2 RES2    0.0000
     83 C42      -14.1482    8.2454   12.2033 C.ar      2 RES2    0.0000
     84 H36      -14.7419    8.6839   12.8016 H         2 RES2    0.0000
     85 C43      -10.9850   13.1543   14.5246 C.ar      2 RES2    0.0000
     86 H37      -10.0734   13.1344   14.2601 H         2 RES2    0.0000
     87 C44      -11.4031   13.8936   15.6253 C.ar      2 RES2    0.0000
     88 H38      -10.7608   14.3923   16.1173 H         2 RES2    0.0000
     89 C45      -12.7390   13.9263   16.0302 C.ar      2 RES2    0.0000
     90 H39      -12.9890   14.4265   16.7974 H         2 RES2    0.0000
     91 C46      -13.7012   13.2317   15.3151 C.ar      2 RES2    0.0000
     92 H40      -14.6149   13.2558   15.5731 H         2 RES2    0.0000
     93 C47      -11.0388   12.1714   11.4529 C.3       2 RES2    0.0000
     94 H41      -10.0754   12.1859   11.6832 H         2 RES2    0.0000
     95 H42      -11.1462   11.5980   10.6535 H         2 RES2    0.0000
     96 C48      -11.4636   13.5513   11.1071 C.2       2 RES2    0.0000
     97 C49      -10.9014   14.7417   11.3684 C.2       2 RES2    0.0000
     98 H43      -10.1075   14.9119   11.8626 H         2 RES2    0.0000
     99 C50      -11.7571   15.6923   10.7429 C.2       2 RES2    0.0000
    100 C51      -11.6048   17.1628   10.7068 C.ar      2 RES2    0.0000
    101 C52      -10.6568   17.7765   11.5109 C.ar      2 RES2    0.0000
    102 H44      -10.1296   17.2517   12.1007 H         2 RES2    0.0000
    103 C53      -10.4712   19.1479   11.4614 C.ar      2 RES2    0.0000
    104 H45       -9.8143   19.5572   12.0119 H         2 RES2    0.0000
    105 C54      -11.2422   19.9235   10.6091 C.ar      2 RES2    0.0000
    106 H46      -11.1124   20.8630   10.5704 H         2 RES2    0.0000
    107 C55      -12.2001   19.3198    9.8158 C.ar      2 RES2    0.0000
    108 H47      -12.7357   19.8512    9.2385 H         2 RES2    0.0000
    109 C56      -12.3847   17.9500    9.8561 C.ar      2 RES2    0.0000
    110 H48      -13.0426   17.5439    9.3046 H         2 RES2    0.0000
    111 N3       -13.2167   11.2515   12.3062 N.am      2 RES2    0.0000
    112 N4       -12.7607   15.1019   10.1449 N.2       2 RES2    0.0000
    113 O5       -15.3048   11.5364   13.2411 O.2       2 RES2    0.0000
    114 O6       -12.5840   13.7154   10.3724 O.3       2 RES2    0.0000
    115 O7       -11.6733    9.4496   13.8503 O.2       2 RES2    0.0000
    116 O8        -9.8783   10.1401   12.6954 O.3       2 RES2    0.0000
@<TRIPOS>BOND
     1    1    2 1
     2    3    1 1
     3    4    1 1
     4    5    1 1
     5    6    5 1
     6    7    5 1
     7    8    9 1
     8    9   10 1
     9   10   11 1
    10   12   10 1
    11   13   10 1
    12   14   13 2
    13   15   14 1
    14   16   14 1
    15   17   16 1
    16   18   17 ar
    17   19   18 1
    18   20   18 ar
    19   21   20 1
    20   22   20 ar
    21   23   22 1
    22   24   22 ar
    23   25   24 1
    24   26   17 ar
    25   27   26 1
    26   28   52 1
    27   29   30 1
    28   31   29 1
    29   32   29 1
    30   33   32 ar
    31   34   33 1
    32   35   33 ar
    33   36   35 1
    34   37   35 ar
    35   38   37 1
    36   39   37 ar
    37   40   39 1
    38   41   32 ar
    39   42   41 1
    40   43    9 1
    41   44   43 ar
    42   45   44 1
    43   46   44 ar
    44   47   46 1
    45   48   46 ar
    46   49   48 1
    47   50   48 ar
    48   51   50 1
    49   52   43 ar
    50   53    9 1
    51   54   16 2
    52   55   13 1
    53   56   28 2
    54   57    8 2
    55   58    5 1
    56   59   60 1
    57   61   59 1
    58   62   59 1
    59   63   59 1
    60   64   63 1
    61   65   63 1
    62   66   67 1
    63   67   68 1
    64   68   69 ar
    65   69   70 1
    66   70  111 1
    67   71   72 1
    68   73   71 1
    69   74   71 1
    70   75   74 ar
    71   76   75 1
    72   77   75 ar
    73   78   77 1
    74   79   77 ar
    75   80   79 1
    76   81   79 ar
    77   82   81 1
    78   83   74 ar
    79   84   83 1
    80   85   68 ar
    81   86   85 1
    82   87   85 ar
    83   88   87 1
    84   89   87 ar
    85   90   89 1
    86   91   69 ar
    87   92   91 1
    88   93   67 1
    89   94   93 1
    90   95   93 1
    91   96   93 1
    92   97   96 2
    93   98   97 1
    94   99   97 1
    95  100   99 1
    96  101  100 ar
    97  102  101 1
    98  103  101 ar
    99  104  103 1
   100  105  103 ar
   101  106  105 1
   102  107  105 ar
   103  108  107 1
   104  109  100 ar
   105  110  109 1
   106  111   67 1
   107  112   99 2
   108  113   70 2
   109  114   96 1
   110  115   66 2
   111  116   63 1
   112    8   58 1
   113   24   26 ar
   114   28   53 1
   115   29   53 1
   116   39   41 ar
   117   50   52 ar
   118   54   55 1
   119   66  116 1
   120   71  111 1
   121   81   83 ar
   122   89   91 ar
   123  107  109 ar
   124  112  114 1
@<TRIPOS>SUBSTRUCTURE
     1 RES1 1
     2 RES2 59

@<TRIPOS>CRYSIN
  14.1490   17.0910   23.5760  90.0000 126.7410  90.0000  14 1

