# MOL2 file generated by ConQuest
# Please check atom types

@<TRIPOS>MOLECULE
AYUDUU
    30    32     1
SMALL
NO_CHARGES
****
Generated from CSD

@<TRIPOS>ATOM
      1 O1         4.3273    1.0589    1.2229 O.3       1 RES1    0.0000
      2 O2         4.7933    2.9891    0.0608 O.3       1 RES1    0.0000
      3 O3         2.9220    4.0692    7.9604 O.3       1 RES1    0.0000
      4 N1         3.4115    2.5487    6.2156 N.2       1 RES1    0.0000
      5 N2         2.6031    4.0344    9.3354 N.2       1 RES1    0.0000
      6 C1         3.7892    3.4018    4.0014 C.ar      1 RES1    0.0000
      7 C2         3.8580    2.1502    3.3722 C.ar      1 RES1    0.0000
      8 C3         4.1990    2.1377    2.0576 C.ar      1 RES1    0.0000
      9 C4         4.4799    3.2955    1.3537 C.ar      1 RES1    0.0000
     10 C5         4.4062    4.5196    1.9304 C.ar      1 RES1    0.0000
     11 C6         4.0427    4.5516    3.2714 C.ar      1 RES1    0.0000
     12 C7         4.7576    1.5780   -0.0300 C.3       1 RES1    0.0000
     13 C8         3.4798    3.5383    5.4086 C.2       1 RES1    0.0000
     14 C9         3.1108    2.7848    7.5362 C.2       1 RES1    0.0000
     15 C10        2.9355    1.9298    8.5706 C.2       1 RES1    0.0000
     16 C11        2.6065    2.7740    9.6589 C.2       1 RES1    0.0000
     17 C12        2.2796    2.3568   11.0459 C.3       1 RES1    0.0000
     18 C13        3.0645    0.4547    8.6035 C.3       1 RES1    0.0000
     19 H1         3.6783    1.3637    3.8346 H         1 RES1    0.0000
     20 H2         4.5889    5.2971    1.4539 H         1 RES1    0.0000
     21 H3         3.9665    5.3762    3.6947 H         1 RES1    0.0000
     22 H4         5.6399    1.2368   -0.2452 H         1 RES1    0.0000
     23 H5         4.1449    1.3055   -0.7307 H         1 RES1    0.0000
     24 H6         3.3223    4.3913    5.7439 H         1 RES1    0.0000
     25 H7         1.4114    1.9484   11.0613 H         1 RES1    0.0000
     26 H8         2.2816    3.1267   11.6198 H         1 RES1    0.0000
     27 H9         2.9357    1.7272   11.3535 H         1 RES1    0.0000
     28 H10        3.5171    0.1548    7.8113 H         1 RES1    0.0000
     29 H11        2.1916    0.0573    8.6426 H         1 RES1    0.0000
     30 H12        3.5695    0.1943    9.3776 H         1 RES1    0.0000
@<TRIPOS>BOND
     1    1    8 1
     2    2    9 1
     3    3    5 1
     4    4   13 2
     5    5   16 2
     6    6    7 ar
     7    7    8 ar
     8    8    9 ar
     9    9   10 ar
    10   10   11 ar
    11   11    6 ar
    12   12    1 1
    13   13    6 1
    14   14    3 1
    15   15   14 2
    16   16   15 1
    17   17   16 1
    18   18   15 1
    19   19    7 1
    20   20   10 1
    21   21   11 1
    22   22   12 1
    23   23   12 1
    24   24   13 1
    25   25   17 1
    26   26   17 1
    27   27   17 1
    28   28   18 1
    29   29   18 1
    30   30   18 1
    31    2   12 1
    32    4   14 1
@<TRIPOS>SUBSTRUCTURE
     1 RES1 1

@<TRIPOS>CRYSIN
   7.5759   10.6980   14.6307  90.0000 102.6070  90.0000 231 1

