# MOL2 file generated by ConQuest
# Please check atom types

@<TRIPOS>MOLECULE
AYUGIL
    50    51     1
SMALL
NO_CHARGES
****
Generated from CSD

@<TRIPOS>ATOM
      1 O1         3.2370    4.5243    7.4289 O.3       1 RES1    0.0000
      2 O2         4.6604    0.2520    6.6874 O.2       1 RES1    0.0000
      3 O3         2.8832    0.4520    8.0677 O.3       1 RES1    0.0000
      4 N1         4.6101    4.5087    7.0888 N.2       1 RES1    0.0000
      5 N2         0.8572    3.8602    8.6450 N.2       1 RES1    0.0000
      6 C1         2.0790   -1.3041    9.4588 C.3       1 RES1    0.0000
      7 H1         2.0014   -2.2748    9.5681 H         1 RES1    0.0000
      8 H2         1.1832   -0.9075    9.4170 H         1 RES1    0.0000
      9 H3         2.5672   -0.9272   10.2202 H         1 RES1    0.0000
     10 C2         2.8140   -1.0033    8.1999 C.3       1 RES1    0.0000
     11 H4         3.7262   -1.3870    8.2371 H         1 RES1    0.0000
     12 H5         2.3398   -1.3946    7.4245 H         1 RES1    0.0000
     13 C3         3.8422    0.9281    7.2639 C.2       1 RES1    0.0000
     14 C4         6.3132    2.8713    6.5434 C.3       1 RES1    0.0000
     15 H6         6.8499    3.6823    6.4237 H         1 RES1    0.0000
     16 H7         6.2802    2.3731    5.7006 H         1 RES1    0.0000
     17 H8         6.7179    2.3116    7.2385 H         1 RES1    0.0000
     18 C5         4.9290    3.2482    6.9519 C.2       1 RES1    0.0000
     19 C6         3.8129    2.3970    7.2149 C.2       1 RES1    0.0000
     20 C7         2.7955    3.2516    7.4953 C.2       1 RES1    0.0000
     21 C8         1.3467    3.0901    7.7472 C.2       1 RES1    0.0000
     22 C9         0.5628    2.1219    6.9178 C.3       1 RES1    0.0000
     23 H9        -0.1485    2.5996    6.4423 H         1 RES1    0.0000
     24 H10        0.1663    1.4399    7.4989 H         1 RES1    0.0000
     25 H11        1.1577    1.6920    6.2691 H         1 RES1    0.0000
     26 O1A       -2.8936    4.5243   10.0077 O.3       1 RES1    0.0000
     27 O2A       -4.3170    0.2520   10.7492 O.2       1 RES1    0.0000
     28 O3A       -2.5398    0.4520    9.3689 O.3       1 RES1    0.0000
     29 N1A       -4.2667    4.5087   10.3478 N.2       1 RES1    0.0000
     30 N2A       -0.5138    3.8602    8.7917 N.2       1 RES1    0.0000
     31 C1A       -1.7356   -1.3041    7.9778 C.3       1 RES1    0.0000
     32 H1A       -1.6580   -2.2748    7.8686 H         1 RES1    0.0000
     33 H2A       -0.8398   -0.9075    8.0197 H         1 RES1    0.0000
     34 H3A       -2.2238   -0.9272    7.2164 H         1 RES1    0.0000
     35 C2A       -2.4706   -1.0033    9.2368 C.3       1 RES1    0.0000
     36 H4A       -3.3828   -1.3870    9.1996 H         1 RES1    0.0000
     37 H5A       -1.9964   -1.3946   10.0121 H         1 RES1    0.0000
     38 C3A       -3.4988    0.9281   10.1728 C.2       1 RES1    0.0000
     39 C4A       -5.9698    2.8713   10.8933 C.3       1 RES1    0.0000
     40 H6A       -6.5065    3.6823   11.0130 H         1 RES1    0.0000
     41 H7A       -5.9368    2.3731   11.7360 H         1 RES1    0.0000
     42 H8A       -6.3745    2.3116   10.1981 H         1 RES1    0.0000
     43 C5A       -4.5856    3.2482   10.4848 C.2       1 RES1    0.0000
     44 C6A       -3.4695    2.3970   10.2217 C.2       1 RES1    0.0000
     45 C7A       -2.4521    3.2516    9.9413 C.2       1 RES1    0.0000
     46 C8A       -1.0033    3.0901    9.6894 C.2       1 RES1    0.0000
     47 C9A       -0.2194    2.1219   10.5188 C.3       1 RES1    0.0000
     48 H9A        0.4919    2.5996   10.9944 H         1 RES1    0.0000
     49 H10A       0.1771    1.4399    9.9377 H         1 RES1    0.0000
     50 H11A      -0.8143    1.6920   11.1676 H         1 RES1    0.0000
@<TRIPOS>BOND
     1    1    4 1
     2    2   13 2
     3    3   10 1
     4    4   18 2
     5    5   21 2
     6    6    7 1
     7    8    6 1
     8    9    6 1
     9   10    6 1
    10   11   10 1
    11   12   10 1
    12   13    3 1
    13   14   15 1
    14   16   14 1
    15   17   14 1
    16   18   14 1
    17   19   13 1
    18   20    1 1
    19   21   20 1
    20   22   21 1
    21   23   22 1
    22   24   22 1
    23   25   22 1
    24   26   29 1
    25   27   38 2
    26   28   35 1
    27   29   43 2
    28   30    5 1
    29   31   32 1
    30   33   31 1
    31   34   31 1
    32   35   31 1
    33   36   35 1
    34   37   35 1
    35   38   28 1
    36   39   40 1
    37   41   39 1
    38   42   39 1
    39   43   39 1
    40   44   38 1
    41   45   26 1
    42   46   30 2
    43   47   46 1
    44   48   47 1
    45   49   47 1
    46   50   47 1
    47   18   19 1
    48   19   20 2
    49   43   44 1
    50   44   45 2
    51   45   46 1
@<TRIPOS>SUBSTRUCTURE
     1 RES1 1

