# MOL2 file generated by ConQuest
# Please check atom types

@<TRIPOS>MOLECULE
AYUHOS
    26    25     1
SMALL
NO_CHARGES
****
Generated from CSD

@<TRIPOS>ATOM
      1 N1         3.6371    1.5214    1.1091 N.am      1 RES1    0.0000
      2 O1         4.8850    3.8633   -0.1449 O.2       1 RES1    0.0000
      3 O2         7.0449    3.6202    0.3762 O.3       1 RES1    0.0000
      4 H1         7.3343    3.2869    1.0669 H         1 RES1    0.0000
      5 O3         4.4564    1.1669    0.0181 O.3       1 RES1    0.0000
      6 O4         2.3340    0.8427    2.7261 O.3       1 RES1    0.0000
      7 O5         4.0349   -0.5125    2.0553 O.2       1 RES1    0.0000
      8 C1         5.8466    3.1573    0.1377 C.2       1 RES1    0.0000
      9 C2         5.7605    1.6683    0.2362 C.3       1 RES1    0.0000
     10 H2         6.3619    1.2743   -0.4146 H         1 RES1    0.0000
     11 H3         6.0593    1.3928    1.1185 H         1 RES1    0.0000
     12 C3         3.3850    0.4832    1.9727 C.2       1 RES1    0.0000
     13 C4         1.9474    0.0446    3.9094 C.3       1 RES1    0.0000
     14 C5         0.8464    0.9238    4.5023 C.3       1 RES1    0.0000
     15 H4         1.2186    1.7675    4.7666 H         1 RES1    0.0000
     16 H5         0.4675    0.4872    5.2688 H         1 RES1    0.0000
     17 H6         0.1621    1.0666    3.8452 H         1 RES1    0.0000
     18 C6         1.3863   -1.2692    3.4682 C.3       1 RES1    0.0000
     19 H7         0.6564   -1.1193    2.8628 H         1 RES1    0.0000
     20 H8         1.0722   -1.7564    4.2332 H         1 RES1    0.0000
     21 H9         2.0702   -1.7767    3.0255 H         1 RES1    0.0000
     22 C7         3.1087   -0.0861    4.8574 C.3       1 RES1    0.0000
     23 H10        3.8025   -0.6057    4.4444 H         1 RES1    0.0000
     24 H11        2.8176   -0.5217    5.6615 H         1 RES1    0.0000
     25 H12        3.4472    0.7870    5.0717 H         1 RES1    0.0000
     26 H13        2.9181    2.0360    0.8604 H         1 RES1    0.0000
@<TRIPOS>BOND
     1    1    5 1
     2    2    8 2
     3    3    4 1
     4    5    9 1
     5    6   12 1
     6    7   12 2
     7    8    3 1
     8    9    8 1
     9   10    9 1
    10   11    9 1
    11   12    1 1
    12   13    6 1
    13   14   13 1
    14   15   14 1
    15   16   14 1
    16   17   14 1
    17   18   13 1
    18   19   18 1
    19   20   18 1
    20   21   18 1
    21   22   13 1
    22   23   22 1
    23   24   22 1
    24   25   22 1
    25   26    1 1
@<TRIPOS>SUBSTRUCTURE
     1 RES1 1

@<TRIPOS>CRYSIN
   5.9973   10.1292   15.6445  90.0000  90.5700  90.0000  14 1

