# MOL2 file generated by ConQuest
# Please check atom types

@<TRIPOS>MOLECULE
AYUKEL
    25    25     1
SMALL
NO_CHARGES
****
Generated from CSD

@<TRIPOS>ATOM
      1 O1        -0.3178    6.2949    8.5418 O.3       1 RES1    0.0000
      2 H1        -0.7793    5.5899    8.4035 H         1 RES1    0.0000
      3 N1         0.3681    5.8596    9.7080 N.2       1 RES1    0.0000
      4 C1         3.5002    3.8569   13.2603 C.ar      1 RES1    0.0000
      5 H2         3.5917    3.3196   12.5076 H         1 RES1    0.0000
      6 C2         4.3346    3.6523   14.3437 C.ar      1 RES1    0.0000
      7 H3         4.9654    2.9695   14.3157 H         1 RES1    0.0000
      8 C3         4.2415    4.4388   15.4487 C.ar      1 RES1    0.0000
      9 H4         4.8109    4.2991   16.1717 H         1 RES1    0.0000
     10 C4         3.3092    5.4328   15.4929 C.ar      1 RES1    0.0000
     11 H5         3.2502    5.9827   16.2417 H         1 RES1    0.0000
     12 C5         2.4449    5.6248   14.4172 C.ar      1 RES1    0.0000
     13 H6         1.7964    6.2901   14.4649 H         1 RES1    0.0000
     14 C6         2.5352    4.8404   13.2732 C.ar      1 RES1    0.0000
     15 C7         1.6538    5.0838   12.0643 C.3       1 RES1    0.0000
     16 H7         0.7343    5.1894   12.3548 H         1 RES1    0.0000
     17 H8         1.6954    4.3127   11.4765 H         1 RES1    0.0000
     18 C8         2.0830    6.3211   11.2988 C.3       1 RES1    0.0000
     19 H9         2.0377    7.0795   11.9019 H         1 RES1    0.0000
     20 H10        3.0122    6.2106   11.0420 H         1 RES1    0.0000
     21 C9         1.2943    6.6559   10.0652 C.2       1 RES1    0.0000
     22 C10        1.6610    7.9116    9.3363 C.3       1 RES1    0.0000
     23 H11        1.6316    7.7516    8.3906 H         1 RES1    0.0000
     24 H12        2.5476    8.1803    9.5874 H         1 RES1    0.0000
     25 H13        1.0385    8.6060    9.5635 H         1 RES1    0.0000
@<TRIPOS>BOND
     1    1    2 1
     2    3    1 1
     3    4    5 1
     4    6    4 ar
     5    7    6 1
     6    8    6 ar
     7    9    8 1
     8   10    8 ar
     9   11   10 1
    10   12   10 ar
    11   13   12 1
    12   14    4 ar
    13   15   14 1
    14   16   15 1
    15   17   15 1
    16   18   15 1
    17   19   18 1
    18   20   18 1
    19   21    3 2
    20   22   21 1
    21   23   22 1
    22   24   22 1
    23   25   22 1
    24   12   14 ar
    25   18   21 1
@<TRIPOS>SUBSTRUCTURE
     1 RES1 1

@<TRIPOS>CRYSIN
   5.4500    9.6980   18.4550  90.0000  93.8880  90.0000  14 1

