# MOL2 file generated by ConQuest
# Please check atom types

@<TRIPOS>MOLECULE
AYUPUF
    84    87     3
SMALL
NO_CHARGES
****
Generated from CSD

@<TRIPOS>ATOM
      1 C1        -0.0315    8.5318    7.4416 C.ar      1 RES1    0.0000
      2 C2        -0.6171    9.7034    6.9366 C.ar      1 RES1    0.0000
      3 C3        -1.5711    9.6720    5.9467 C.ar      1 RES1    0.0000
      4 H1        -1.9536   10.4848    5.6356 H         1 RES1    0.0000
      5 C4        -1.9801    8.4653    5.3932 C.ar      1 RES1    0.0000
      6 H2        -2.6381    8.4407    4.7083 H         1 RES1    0.0000
      7 C5        -1.4003    7.2943    5.8686 C.ar      1 RES1    0.0000
      8 H3        -1.6668    6.4615    5.4980 H         1 RES1    0.0000
      9 C6        -0.4515    7.3122    6.8631 C.ar      1 RES1    0.0000
     10 H4        -0.0726    6.4950    7.1649 H         1 RES1    0.0000
     11 N1        -0.2314   11.0331    7.4135 N.pl3     1 RES1    0.0000
     12 O1         0.7906   11.1670    8.0656 O.2       1 RES1    0.0000
     13 O2        -0.9712   11.9862    7.1383 O.2       1 RES1    0.0000
     14 N2         0.9094    8.5616    8.4862 N.am      1 RES1    0.0000
     15 H5         1.3561    9.3116    8.5941 H         1 RES1    0.0000
     16 C7         1.1961    7.5585    9.3400 C.2       1 RES1    0.0000
     17 O3         0.7784    6.4185    9.2727 O.2       1 RES1    0.0000
     18 C8         2.1439    7.9235   10.4924 C.3       1 RES1    0.0000
     19 H6         1.8017    7.5070   11.3212 H         1 RES1    0.0000
     20 H7         3.0315    7.5272   10.3048 H         1 RES1    0.0000
     21 N3         2.3178    9.3295   10.7301 N.pl3     1 RES1    0.0000
     22 N4         3.2793   10.0262   10.0687 N.2       1 RES1    0.0000
     23 C9         3.1369   11.2617   10.5065 C.2       1 RES1    0.0000
     24 H8         3.6716   11.9893   10.2156 H         1 RES1    0.0000
     25 C10        2.0993   11.3781   11.4588 C.2       1 RES1    0.0000
     26 H9         1.8164   12.1572   11.9216 H         1 RES1    0.0000
     27 C11        1.6035   10.1310   11.5620 C.2       1 RES1    0.0000
     28 H10        0.8823    9.8601   12.1171 H         1 RES1    0.0000
     29 C12        1.9443    2.7509    6.8052 C.ar      2 RES2    0.0000
     30 C13        2.4950    1.5619    7.3087 C.ar      2 RES2    0.0000
     31 C14        3.4569    1.5762    8.3267 C.ar      2 RES2    0.0000
     32 H11        3.8372    0.7612    8.6363 H         2 RES2    0.0000
     33 C15        3.8507    2.7874    8.8771 C.ar      2 RES2    0.0000
     34 H12        4.4976    2.8121    9.5730 H         2 RES2    0.0000
     35 C16        3.2962    3.9517    8.4064 C.ar      2 RES2    0.0000
     36 H13        3.5603    4.7801    8.7896 H         2 RES2    0.0000
     37 C17        2.3545    3.9449    7.3807 C.ar      2 RES2    0.0000
     38 H14        1.9901    4.7644    7.0710 H         2 RES2    0.0000
     39 N5         2.1162    0.2293    6.8365 N.pl3     2 RES2    0.0000
     40 O4         1.0905    0.1166    6.1406 O.2       2 RES2    0.0000
     41 O5         2.7883   -0.7198    7.1602 O.2       2 RES2    0.0000
     42 N6         1.0020    2.7397    5.7607 N.am      2 RES2    0.0000
     43 H15        0.5126    2.0128    5.6809 H         2 RES2    0.0000
     44 C18        0.7669    3.7255    4.8678 C.2       2 RES2    0.0000
     45 O6         1.2354    4.8322    4.9116 O.2       2 RES2    0.0000
     46 C19       -0.1833    3.3852    3.7404 C.3       2 RES2    0.0000
     47 H16       -1.0627    3.7927    3.9421 H         2 RES2    0.0000
     48 H17        0.1553    3.8061    2.9100 H         2 RES2    0.0000
     49 N7        -0.3884    1.9651    3.4808 N.pl3     2 RES2    0.0000
     50 N8        -1.2758    1.2648    4.2126 N.2       2 RES2    0.0000
     51 C20       -1.1891    0.0313    3.7623 C.2       2 RES2    0.0000
     52 H18       -1.7199   -0.6918    4.0750 H         2 RES2    0.0000
     53 C21       -0.2187   -0.0739    2.7709 C.2       2 RES2    0.0000
     54 H19        0.0437   -0.8597    2.3033 H         2 RES2    0.0000
     55 C22        0.2738    1.1844    2.6129 C.2       2 RES2    0.0000
     56 H20        0.9534    1.4553    2.0094 H         2 RES2    0.0000
     57 C23        0.0093    4.9607   13.6057 C.ar      3 RES3    0.0000
     58 C24        0.5533    3.9248   14.4204 C.ar      3 RES3    0.0000
     59 C25        1.4862    3.0337   13.9201 C.ar      3 RES3    0.0000
     60 H21        1.8426    2.3553   14.4814 H         3 RES3    0.0000
     61 C26        1.8921    3.1277   12.6284 C.ar      3 RES3    0.0000
     62 H22        2.5290    2.5098   12.2876 H         3 RES3    0.0000
     63 C27        1.3800    4.1263   11.7981 C.ar      3 RES3    0.0000
     64 H23        1.6808    4.1912   10.8990 H         3 RES3    0.0000
     65 C28        0.4420    5.0174   12.2703 C.ar      3 RES3    0.0000
     66 H24        0.0843    5.6779   11.6887 H         3 RES3    0.0000
     67 N9         0.1629    3.7531   15.8027 N.pl3     3 RES3    0.0000
     68 O7        -0.9035    4.2624   16.2062 O.2       3 RES3    0.0000
     69 O8         0.8585    3.1282   16.5658 O.2       3 RES3    0.0000
     70 N10       -0.9165    5.8841   14.1061 N.am      3 RES3    0.0000
     71 H25       -1.4895    5.5973   14.7097 H         3 RES3    0.0000
     72 C29       -0.9983    7.1795   13.7371 C.2       3 RES3    0.0000
     73 O9        -0.3665    7.7072   12.8333 O.2       3 RES3    0.0000
     74 C30       -1.9930    8.0377   14.5189 C.3       3 RES3    0.0000
     75 H26       -1.6472    8.9646   14.5518 H         3 RES3    0.0000
     76 H27       -2.8485    8.0578   14.0217 H         3 RES3    0.0000
     77 N11       -2.2634    7.6011   15.8794 N.pl3     3 RES3    0.0000
     78 N12       -3.2069    6.6943   16.1030 N.2       3 RES3    0.0000
     79 C31       -3.1421    6.4861   17.4196 C.2       3 RES3    0.0000
     80 H28       -3.7126    5.8883   17.8887 H         3 RES3    0.0000
     81 C32       -2.1511    7.2384   18.0248 C.2       3 RES3    0.0000
     82 H29       -1.8977    7.2451   18.9411 H         3 RES3    0.0000
     83 C33       -1.6336    7.9526   17.0209 C.2       3 RES3    0.0000
     84 H30       -0.9398    8.5974   17.0959 H         3 RES3    0.0000
@<TRIPOS>BOND
     1    1    2 ar
     2    2    3 ar
     3    3    4 1
     4    5    3 ar
     5    6    5 1
     6    7    5 ar
     7    8    7 1
     8    9    1 ar
     9   10    9 1
    10   11    2 1
    11   12   11 2
    12   13   11 2
    13   14    1 1
    14   15   14 1
    15   16   14 1
    16   17   16 2
    17   18   16 1
    18   19   18 1
    19   20   18 1
    20   21   18 1
    21   22   21 1
    22   23   22 2
    23   24   23 1
    24   25   23 1
    25   26   25 1
    26   27   21 1
    27   28   27 1
    28   29   30 ar
    29   30   31 ar
    30   31   32 1
    31   33   31 ar
    32   34   33 1
    33   35   33 ar
    34   36   35 1
    35   37   29 ar
    36   38   37 1
    37   39   30 1
    38   40   39 2
    39   41   39 2
    40   42   29 1
    41   43   42 1
    42   44   42 1
    43   45   44 2
    44   46   44 1
    45   47   46 1
    46   48   46 1
    47   49   46 1
    48   50   49 1
    49   51   50 2
    50   52   51 1
    51   53   51 1
    52   54   53 1
    53   55   49 1
    54   56   55 1
    55   57   58 ar
    56   58   59 ar
    57   59   60 1
    58   61   59 ar
    59   62   61 1
    60   63   61 ar
    61   64   63 1
    62   65   57 ar
    63   66   65 1
    64   67   58 1
    65   68   67 2
    66   69   67 2
    67   70   57 1
    68   71   70 1
    69   72   70 1
    70   73   72 2
    71   74   72 1
    72   75   74 1
    73   76   74 1
    74   77   74 1
    75   78   77 1
    76   79   78 2
    77   80   79 1
    78   81   79 1
    79   82   81 1
    80   83   77 1
    81   84   83 1
    82    7    9 ar
    83   25   27 2
    84   35   37 ar
    85   53   55 2
    86   63   65 ar
    87   81   83 2
@<TRIPOS>SUBSTRUCTURE
     1 RES1 1
     2 RES2 29
     3 RES3 57

