# MOL2 file generated by ConQuest
# Please check atom types

@<TRIPOS>MOLECULE
AYUQAM
    34    35     1
SMALL
NO_CHARGES
****
Generated from CSD

@<TRIPOS>ATOM
      1 O1         4.1032    7.0796    4.0024 O.2       1 RES1    0.0000
      2 N1         3.8314    3.9222    5.1137 N.2       1 RES1    0.0000
      3 N2         2.0230    7.8531    3.4794 N.am      1 RES1    0.0000
      4 N3         3.1160    4.5132    4.1130 N.pl3     1 RES1    0.0000
      5 C1         2.3916    9.1387    3.0436 C.ar      1 RES1    0.0000
      6 C2         1.8435    9.7470    1.9109 C.ar      1 RES1    0.0000
      7 C3         2.8921    6.9280    3.9507 C.2       1 RES1    0.0000
      8 N4         0.8575    9.0734    1.0566 N.pl3     1 RES1    0.0000
      9 C4         4.5813    3.0134    4.4931 C.2       1 RES1    0.0000
     10 O2         0.4672    7.9686    1.3362 O.2       1 RES1    0.0000
     11 C5         2.2474    5.6293    4.4091 C.3       1 RES1    0.0000
     12 H1         2.0756    5.6689    5.3830 H         1 RES1    0.0000
     13 H2         1.3797    5.5075    3.9473 H         1 RES1    0.0000
     14 O3         0.4481    9.6566    0.0766 O.2       1 RES1    0.0000
     15 C6         3.3277    9.8680    3.7760 C.ar      1 RES1    0.0000
     16 H3         3.7153    9.4855    4.5549 H         1 RES1    0.0000
     17 C7         5.5149    2.1403    5.2817 C.3       1 RES1    0.0000
     18 H4         5.4979    2.4112    6.2230 H         1 RES1    0.0000
     19 H5         6.4252    2.2349    4.9312 H         1 RES1    0.0000
     20 H6         5.2304    1.2056    5.2056 H         1 RES1    0.0000
     21 C8         3.4217    4.0140    2.8903 C.2       1 RES1    0.0000
     22 C9         3.6994   11.1392    3.3836 C.ar      1 RES1    0.0000
     23 H7         4.3424   11.6172    3.8934 H         1 RES1    0.0000
     24 C10        3.1492   11.7228    2.2630 C.ar      1 RES1    0.0000
     25 H8         3.4132   12.5966    2.0012 H         1 RES1    0.0000
     26 C11        2.2153   11.0316    1.5249 C.ar      1 RES1    0.0000
     27 H9         1.8262   11.4297    0.7550 H         1 RES1    0.0000
     28 C12        4.3630    3.0327    3.1147 C.2       1 RES1    0.0000
     29 H10        4.7788    2.4809    2.4626 H         1 RES1    0.0000
     30 C13        2.8082    4.5421    1.6371 C.3       1 RES1    0.0000
     31 H11        1.8460    4.6676    1.7724 H         1 RES1    0.0000
     32 H12        2.9557    3.9044    0.9071 H         1 RES1    0.0000
     33 H13        3.2204    5.4012    1.4081 H         1 RES1    0.0000
     34 H14        1.0787    7.5657    3.3865 H         1 RES1    0.0000
@<TRIPOS>BOND
     1    1    7 2
     2    2    4 1
     3    3    5 1
     4    4   11 1
     5    5    6 ar
     6    6    8 1
     7    7    3 1
     8    8   10 2
     9    9    2 2
    10   11    7 1
    11   12   11 1
    12   13   11 1
    13   14    8 2
    14   15    5 ar
    15   16   15 1
    16   17    9 1
    17   18   17 1
    18   19   17 1
    19   20   17 1
    20   21    4 1
    21   22   15 ar
    22   23   22 1
    23   24   22 ar
    24   25   24 1
    25   26    6 ar
    26   27   26 1
    27   28    9 1
    28   29   28 1
    29   30   21 1
    30   31   30 1
    31   32   30 1
    32   33   30 1
    33   34    3 1
    34   21   28 2
    35   24   26 ar
@<TRIPOS>SUBSTRUCTURE
     1 RES1 1

@<TRIPOS>CRYSIN
   4.7277   11.6878   12.0355  87.6890  85.0480  85.9750   2 1

