# MOL2 file generated by ConQuest
# Please check atom types

@<TRIPOS>MOLECULE
AYUYIC
    43    46     1
SMALL
NO_CHARGES
****
Generated from CSD

@<TRIPOS>ATOM
      1 O1        12.2432    1.0293    4.2827 O.2       1 RES1    0.0000
      2 O2        10.5741   -0.0581    0.1197 O.2       1 RES1    0.0000
      3 N1        11.9432    0.3830    3.2319 N.pl3     1 RES1    0.0000
      4 N2        11.1242   -0.1589    1.2627 N.3       1 RES1    0.0000
      5 N3         9.8943    2.5210    0.9894 N.3       1 RES1    0.0000
      6 N4        10.3552    2.8673    3.1737 N.2       1 RES1    0.0000
      7 C1        11.1810    0.8004    2.2023 C.2       1 RES1    0.0000
      8 C2        12.5960   -0.9356    2.8940 C.3       1 RES1    0.0000
      9 C3        11.6283   -1.4656    1.8156 C.3       1 RES1    0.0000
     10 C4        12.7000   -1.7846    4.1482 C.3       1 RES1    0.0000
     11 C5        13.9826   -0.5644    2.3601 C.3       1 RES1    0.0000
     12 C6        10.3998   -2.1736    2.3887 C.3       1 RES1    0.0000
     13 C7        12.2513   -2.2791    0.7055 C.3       1 RES1    0.0000
     14 C8        10.4930    2.0740    2.1366 C.2       1 RES1    0.0000
     15 C9         9.2983    3.7329    1.3125 C.ar      1 RES1    0.0000
     16 C10        9.5984    3.9262    2.6885 C.ar      1 RES1    0.0000
     17 C11        9.1361    5.0503    3.3379 C.ar      1 RES1    0.0000
     18 C12        8.3550    5.9729    2.6355 C.ar      1 RES1    0.0000
     19 C13        8.0455    5.7488    1.2521 C.ar      1 RES1    0.0000
     20 C14        8.5374    4.6104    0.5900 C.ar      1 RES1    0.0000
     21 C15        7.8265    7.1350    3.2637 C.ar      1 RES1    0.0000
     22 C16        7.0129    7.9923    2.6069 C.ar      1 RES1    0.0000
     23 C17        6.6859    7.7622    1.2616 C.ar      1 RES1    0.0000
     24 C18        7.2008    6.6998    0.6006 C.ar      1 RES1    0.0000
     25 H1         9.8930    2.1582    0.2225 H         1 RES1    0.0000
     26 H2        13.4880   -1.3874    4.7563 H         1 RES1    0.0000
     27 H3        13.0285   -2.7036    3.9088 H         1 RES1    0.0000
     28 H4        11.7716   -1.7313    4.6080 H         1 RES1    0.0000
     29 H5        14.5557    0.0356    2.9766 H         1 RES1    0.0000
     30 H6        13.8934    0.0119    1.4512 H         1 RES1    0.0000
     31 H7        14.4340   -1.4111    2.1080 H         1 RES1    0.0000
     32 H8         9.9335   -1.6245    3.2309 H         1 RES1    0.0000
     33 H9        10.6904   -3.1187    2.7754 H         1 RES1    0.0000
     34 H10        9.8254   -2.3835    1.5889 H         1 RES1    0.0000
     35 H11       12.9609   -1.7076    0.2648 H         1 RES1    0.0000
     36 H12       11.4742   -2.5258    0.0000 H         1 RES1    0.0000
     37 H13       12.6095   -2.9882    1.0699 H         1 RES1    0.0000
     38 H14        9.3118    5.1701    4.2584 H         1 RES1    0.0000
     39 H15        8.3658    4.4349   -0.3919 H         1 RES1    0.0000
     40 H16        8.0549    7.3164    4.2266 H         1 RES1    0.0000
     41 H17        6.6224    8.8224    3.0932 H         1 RES1    0.0000
     42 H18        6.0953    8.3480    0.8157 H         1 RES1    0.0000
     43 H19        7.0278    6.4626   -0.3390 H         1 RES1    0.0000
@<TRIPOS>BOND
     1    1    3 1
     2    2    4 1
     3    3    7 2
     4    4    7 1
     5    5   14 1
     6    6   14 2
     7    7   14 1
     8    8    3 1
     9    9    4 1
    10   10    8 1
    11   11    8 1
    12   12    9 1
    13   13    9 1
    14   15    5 1
    15   16    6 1
    16   17   16 ar
    17   18   17 ar
    18   19   18 ar
    19   20   15 ar
    20   21   18 ar
    21   22   21 ar
    22   23   22 ar
    23   24   19 ar
    24   25    5 1
    25   26   10 1
    26   27   10 1
    27   28   10 1
    28   29   11 1
    29   30   11 1
    30   31   11 1
    31   32   12 1
    32   33   12 1
    33   34   12 1
    34   35   13 1
    35   36   13 1
    36   37   13 1
    37   38   17 1
    38   39   20 1
    39   40   21 1
    40   41   22 1
    41   42   23 1
    42   43   24 1
    43    8    9 1
    44   15   16 ar
    45   19   20 ar
    46   23   24 ar
@<TRIPOS>SUBSTRUCTURE
     1 RES1 1

@<TRIPOS>CRYSIN
  13.5150   11.8580   10.5930  90.0000  90.0000  90.0000  29 1

