# MOL2 file generated by ConQuest
# Please check atom types

@<TRIPOS>MOLECULE
AZABUA
    67    72     1
SMALL
NO_CHARGES
****
Generated from CSD

@<TRIPOS>ATOM
      1 O1         1.8757    1.5892    0.7787 O.2       1 RES1    0.0000
      2 O2         3.8823    2.1457   -0.0164 O.3       1 RES1    0.0000
      3 O3         7.3134   10.2318   -2.4167 O.2       1 RES1    0.0000
      4 O4         8.9100    9.0710   -3.2621 O.2       1 RES1    0.0000
      5 N1         6.6652    4.9229    0.8804 N.pl3     1 RES1    0.0000
      6 N2         7.6674    4.0973    1.2771 N.2       1 RES1    0.0000
      7 N3         7.1389    3.1336    1.9761 N.2       1 RES1    0.0000
      8 N4         5.0937    1.8720    3.8995 N.3       1 RES1    0.0000
      9 N5         4.0990    1.0289    4.2406 N.2       1 RES1    0.0000
     10 N6         3.2572    0.9697    3.2333 N.2       1 RES1    0.0000
     11 N7         2.1821    5.8601    1.2761 N.3       1 RES1    0.0000
     12 N8         2.5161    5.9093   -0.0323 N.2       1 RES1    0.0000
     13 N9         3.7334    5.4438   -0.1403 N.2       1 RES1    0.0000
     14 N10        7.9955    9.2272   -2.4737 N.pl3     1 RES1    0.0000
     15 C1         5.4631    4.4710    1.3390 C.2       1 RES1    0.0000
     16 C2         5.7886    3.3277    2.0242 C.2       1 RES1    0.0000
     17 C3         4.9006    2.3602    2.6523 C.2       1 RES1    0.0000
     18 C4         3.7312    1.7681    2.2426 C.2       1 RES1    0.0000
     19 C5         4.1674    5.0996    1.1014 C.2       1 RES1    0.0000
     20 C6         3.1871    5.3589    2.0225 C.2       1 RES1    0.0000
     21 C7         3.1403    5.2004    3.4998 C.3       1 RES1    0.0000
     22 H1         2.7209    5.9700    3.8915 H         1 RES1    0.0000
     23 H2         4.0333    5.1147    3.8412 H         1 RES1    0.0000
     24 H3         2.6370    4.4134    3.7217 H         1 RES1    0.0000
     25 C8         3.0358    1.8257    0.9374 C.2       1 RES1    0.0000
     26 C9         3.3312    2.2382   -1.3538 C.3       1 RES1    0.0000
     27 H4         2.9451    1.3943   -1.5998 H         1 RES1    0.0000
     28 H5         4.0297    2.4634   -1.9730 H         1 RES1    0.0000
     29 H6         2.6531    2.9183   -1.3733 H         1 RES1    0.0000
     30 C10        6.9980    6.0435    0.0551 C.ar      1 RES1    0.0000
     31 C11        6.3945    7.2665    0.2405 C.ar      1 RES1    0.0000
     32 H7         5.7672    7.3817    0.9163 H         1 RES1    0.0000
     33 C12        6.7271    8.3143   -0.5804 C.ar      1 RES1    0.0000
     34 H8         6.3173    9.1430   -0.4801 H         1 RES1    0.0000
     35 C13        7.6774    8.1179   -1.5543 C.ar      1 RES1    0.0000
     36 C14        8.3094    6.9109   -1.7277 C.ar      1 RES1    0.0000
     37 H9         8.9638    6.8101   -2.3798 H         1 RES1    0.0000
     38 C15        7.9572    5.8517   -0.9196 C.ar      1 RES1    0.0000
     39 H10        8.3591    5.0200   -1.0295 H         1 RES1    0.0000
     40 C16        5.8875    3.5271    5.5401 C.ar      1 RES1    0.0000
     41 C17        4.8252    3.6749    6.4067 C.ar      1 RES1    0.0000
     42 H11        4.2619    2.9539    6.5753 H         1 RES1    0.0000
     43 C18        4.5908    4.8949    7.0284 C.ar      1 RES1    0.0000
     44 H12        3.8756    4.9934    7.6153 H         1 RES1    0.0000
     45 C19        5.4205    5.9457    6.7703 C.ar      1 RES1    0.0000
     46 H13        5.2643    6.7661    7.1812 H         1 RES1    0.0000
     47 C20        6.4770    5.8070    5.9150 C.ar      1 RES1    0.0000
     48 H14        7.0417    6.5280    5.7534 H         1 RES1    0.0000
     49 C21        6.7053    4.6090    5.2988 C.ar      1 RES1    0.0000
     50 H15        7.4208    4.5234    4.7113 H         1 RES1    0.0000
     51 C22        6.1411    2.2010    4.8738 C.3       1 RES1    0.0000
     52 H16        6.9994    2.2283    4.4241 H         1 RES1    0.0000
     53 H17        6.1805    1.5058    5.5500 H         1 RES1    0.0000
     54 C23        0.8638    6.3445    1.7004 C.3       1 RES1    0.0000
     55 H18        0.3480    6.5872    0.9163 H         1 RES1    0.0000
     56 H19        0.9776    7.1437    2.2393 H         1 RES1    0.0000
     57 C24        0.0968    5.3248    2.4940 C.ar      1 RES1    0.0000
     58 C25       -0.5866    5.6978    3.6183 C.ar      1 RES1    0.0000
     59 H20       -0.5572    6.5818    3.9062 H         1 RES1    0.0000
     60 C26       -1.3229    4.7652    4.3326 C.ar      1 RES1    0.0000
     61 H21       -1.7688    5.0207    5.1076 H         1 RES1    0.0000
     62 C27       -1.3947    3.4877    3.9041 C.ar      1 RES1    0.0000
     63 H22       -1.9125    2.8728    4.3716 H         1 RES1    0.0000
     64 C28       -0.7174    3.0919    2.7970 C.ar      1 RES1    0.0000
     65 H23       -0.7584    2.2048    2.5181 H         1 RES1    0.0000
     66 C29        0.0290    4.0048    2.0873 C.ar      1 RES1    0.0000
     67 H24        0.4926    3.7318    1.3272 H         1 RES1    0.0000
@<TRIPOS>BOND
     1    1   25 2
     2    2   25 1
     3    3   14 2
     4    4   14 2
     5    5    6 1
     6    6    7 2
     7    7   16 1
     8    8    9 1
     9    9   10 2
    10   10   18 1
    11   11   12 1
    12   12   13 2
    13   13   19 1
    14   14   35 1
    15   15    5 1
    16   16   15 2
    17   17    8 1
    18   18   17 2
    19   19   15 1
    20   20   11 1
    21   21   20 1
    22   22   21 1
    23   23   21 1
    24   24   21 1
    25   25   18 1
    26   26    2 1
    27   27   26 1
    28   28   26 1
    29   29   26 1
    30   30    5 1
    31   31   30 ar
    32   32   31 1
    33   33   31 ar
    34   34   33 1
    35   35   33 ar
    36   36   35 ar
    37   37   36 1
    38   38   30 ar
    39   39   38 1
    40   40   41 ar
    41   41   42 1
    42   43   41 ar
    43   44   43 1
    44   45   43 ar
    45   46   45 1
    46   47   45 ar
    47   48   47 1
    48   49   40 ar
    49   50   49 1
    50   51    8 1
    51   52   51 1
    52   53   51 1
    53   54   11 1
    54   55   54 1
    55   56   54 1
    56   57   54 1
    57   58   57 ar
    58   59   58 1
    59   60   58 ar
    60   61   60 1
    61   62   60 ar
    62   63   62 1
    63   64   62 ar
    64   65   64 1
    65   66   57 ar
    66   67   66 1
    67   16   17 1
    68   19   20 2
    69   36   38 ar
    70   40   51 1
    71   47   49 ar
    72   64   66 ar
@<TRIPOS>SUBSTRUCTURE
     1 RES1 1

@<TRIPOS>CRYSIN
  18.0100    7.5819   20.9737  90.0000  91.4370  90.0000  14 1

