# MOL2 file generated by ConQuest
# Please check atom types

@<TRIPOS>MOLECULE
AZABEJ
    32    33     1
SMALL
NO_CHARGES
****
Generated from CSD

@<TRIPOS>ATOM
      1 O1         2.4859    1.2168   -0.6692 O.3       1 RES1    0.0000
      2 O2         9.8334    1.4509    7.0743 O.2       1 RES1    0.0000
      3 O3        11.0724    0.3359    5.6809 O.2       1 RES1    0.0000
      4 O4         1.7949    0.1595    1.2040 O.2       1 RES1    0.0000
      5 N1         5.8191    0.9301    2.2529 N.pl3     1 RES1    0.0000
      6 N2         6.1685    1.2799    0.9747 N.2       1 RES1    0.0000
      7 N3         5.0807    1.2637    0.2589 N.2       1 RES1    0.0000
      8 N4        10.0244    0.8838    5.9993 N.pl3     1 RES1    0.0000
      9 C1         8.1104    0.3976    2.8306 C.ar      1 RES1    0.0000
     10 H1         8.2453    0.0825    1.9441 H         1 RES1    0.0000
     11 C2         9.1578    0.3994    3.7412 C.ar      1 RES1    0.0000
     12 H2        10.0211    0.0920    3.4892 H         1 RES1    0.0000
     13 C3         8.9158    0.8608    5.0296 C.ar      1 RES1    0.0000
     14 C4         7.6702    1.3057    5.4391 C.ar      1 RES1    0.0000
     15 H3         7.5351    1.6041    6.3307 H         1 RES1    0.0000
     16 C5         6.6207    1.3104    4.5276 C.ar      1 RES1    0.0000
     17 H4         5.7580    1.6129    4.7856 H         1 RES1    0.0000
     18 C6         6.8561    0.8637    3.2290 C.ar      1 RES1    0.0000
     19 C7         4.4839    0.6790    2.3448 C.2       1 RES1    0.0000
     20 C8         4.0299    0.8947    1.0543 C.2       1 RES1    0.0000
     21 C9         2.6540    0.7123    0.5550 C.2       1 RES1    0.0000
     22 C10        3.7727    0.2549    3.5809 C.3       1 RES1    0.0000
     23 H5         4.3752   -0.2840    4.1355 H         1 RES1    0.0000
     24 H6         2.9874   -0.2782    3.3388 H         1 RES1    0.0000
     25 H7         3.4885    1.0470    4.0821 H         1 RES1    0.0000
     26 C11        1.1248    1.0794   -1.2030 C.3       1 RES1    0.0000
     27 H8         0.4657    1.4172   -0.5469 H         1 RES1    0.0000
     28 H9         0.9241    0.1278   -1.3872 H         1 RES1    0.0000
     29 C12        1.0496    1.8803   -2.4724 C.3       1 RES1    0.0000
     30 H10        0.1536    1.7954   -2.8602 H         1 RES1    0.0000
     31 H11        1.7139    1.5450   -3.1100 H         1 RES1    0.0000
     32 H12        1.2321    2.8227   -2.2747 H         1 RES1    0.0000
@<TRIPOS>BOND
     1    1   21 1
     2    2    8 2
     3    3    8 2
     4    4   21 2
     5    5    6 1
     6    6    7 2
     7    7   20 1
     8    8   13 1
     9    9   10 1
    10   11    9 ar
    11   12   11 1
    12   13   11 ar
    13   14   13 ar
    14   15   14 1
    15   16   14 ar
    16   17   16 1
    17   18    5 1
    18   19    5 1
    19   20   19 2
    20   21   20 1
    21   22   19 1
    22   23   22 1
    23   24   22 1
    24   25   22 1
    25   26    1 1
    26   27   26 1
    27   28   26 1
    28   29   26 1
    29   30   29 1
    30   31   29 1
    31   32   29 1
    32    9   18 ar
    33   16   18 ar
@<TRIPOS>SUBSTRUCTURE
     1 RES1 1

@<TRIPOS>CRYSIN
  13.5309    7.3014   12.6058  90.0000  99.5740  90.0000  14 1

