# MOL2 file generated by ConQuest
# Please check atom types

@<TRIPOS>MOLECULE
AZACAH
    75    80     1
SMALL
NO_CHARGES
****
Generated from CSD

@<TRIPOS>ATOM
      1 O1         1.1921   -2.4691   12.2839 O.2       1 RES1    0.0000
      2 O2        -0.3815   -1.3290   13.1850 O.2       1 RES1    0.0000
      3 O3         7.0567    6.6003    9.3375 O.2       1 RES1    0.0000
      4 O4         5.2074    5.8822   10.3374 O.3       1 RES1    0.0000
      5 O5        11.0389    5.6972    6.4280 O.3       1 RES1    0.0000
      6 O6         2.7374    0.7029    3.6574 O.3       1 RES1    0.0000
      7 N1         6.5150    1.9183    8.8185 N.3       1 RES1    0.0000
      8 N2         6.2910    1.8518   10.1452 N.2       1 RES1    0.0000
      9 N3         5.1301    2.4187   10.3755 N.2       1 RES1    0.0000
     10 N4         2.1643    3.1172    9.5645 N.pl3     1 RES1    0.0000
     11 N5         1.1683    3.9919    9.2703 N.2       1 RES1    0.0000
     12 N6         1.6910    4.9759    8.6042 N.2       1 RES1    0.0000
     13 N7         3.5355    6.2424    6.5707 N.3       1 RES1    0.0000
     14 N8         4.4858    7.0927    6.1326 N.2       1 RES1    0.0000
     15 N9         5.4194    7.1399    7.0450 N.2       1 RES1    0.0000
     16 N10        0.5684   -1.4347   12.4440 N.pl3     1 RES1    0.0000
     17 C1         5.4959    2.5364    8.1791 C.2       1 RES1    0.0000
     18 C2         4.6251    2.8550    9.1866 C.2       1 RES1    0.0000
     19 C3         5.4473    2.7413    6.7133 C.3       1 RES1    0.0000
     20 H1         6.0627    3.4347    6.4670 H         1 RES1    0.0000
     21 H2         4.5588    2.9959    6.4545 H         1 RES1    0.0000
     22 H3         5.6888    1.9255    6.2692 H         1 RES1    0.0000
     23 C4         3.3490    3.5604    9.0715 C.2       1 RES1    0.0000
     24 C5         3.0237    4.7549    8.4741 C.2       1 RES1    0.0000
     25 C6         3.8621    5.7212    7.7793 C.2       1 RES1    0.0000
     26 C7         5.0741    6.3321    8.0741 C.2       1 RES1    0.0000
     27 C8         5.9145    6.2841    9.2859 C.2       1 RES1    0.0000
     28 C9         5.9240    5.8269   11.5885 C.3       1 RES1    0.0000
     29 H4         6.4551    5.0279   11.6181 H         1 RES1    0.0000
     30 H5         5.2987    5.8221   12.3156 H         1 RES1    0.0000
     31 H6         6.4964    6.5947   11.6639 H         1 RES1    0.0000
     32 C10        2.3679    5.9510    5.7066 C.3       1 RES1    0.0000
     33 H7         2.3295    6.6011    4.9887 H         1 RES1    0.0000
     34 H8         1.5533    6.0319    6.2275 H         1 RES1    0.0000
     35 C11        2.4476    4.5715    5.1230 C.ar      1 RES1    0.0000
     36 C12        1.5900    3.5572    5.5334 C.ar      1 RES1    0.0000
     37 H9         0.9238    3.7397    6.1547 H         1 RES1    0.0000
     38 C13        1.7219    2.2866    5.0257 C.ar      1 RES1    0.0000
     39 H10        1.1452    1.6173    5.3156 H         1 RES1    0.0000
     40 C14        2.6900    1.9895    4.0994 C.ar      1 RES1    0.0000
     41 C15        3.5322    2.9959    3.6643 C.ar      1 RES1    0.0000
     42 H11        4.1833    2.8134    3.0274 H         1 RES1    0.0000
     43 C16        3.4079    4.2569    4.1706 C.ar      1 RES1    0.0000
     44 H12        3.9821    4.9238    3.8706 H         1 RES1    0.0000
     45 C17        3.8493    0.3050    2.8777 C.3       1 RES1    0.0000
     46 H13        3.8712    0.8174    2.0654 H         1 RES1    0.0000
     47 H14        3.7736   -0.6277    2.6651 H         1 RES1    0.0000
     48 H15        4.6584    0.4572    3.3730 H         1 RES1    0.0000
     49 C18        1.8153    1.9439   10.3036 C.ar      1 RES1    0.0000
     50 C19        2.4030    0.7230   10.0400 C.ar      1 RES1    0.0000
     51 H16        3.0577    0.6517    9.3840 H         1 RES1    0.0000
     52 C20        2.0151   -0.3835   10.7527 C.ar      1 RES1    0.0000
     53 H17        2.4209   -1.2073   10.6062 H         1 RES1    0.0000
     54 C21        1.0058   -0.2498   11.6949 C.ar      1 RES1    0.0000
     55 C22        0.4104    0.9551   11.9529 C.ar      1 RES1    0.0000
     56 H18       -0.2635    1.0192   12.5904 H         1 RES1    0.0000
     57 C23        0.8171    2.0656   11.2637 C.ar      1 RES1    0.0000
     58 H19        0.4287    2.8934   11.4348 H         1 RES1    0.0000
     59 C24        7.7738    1.4523    8.2655 C.3       1 RES1    0.0000
     60 H20        7.5965    0.8519    7.5247 H         1 RES1    0.0000
     61 H21        8.2580    0.9559    8.9447 H         1 RES1    0.0000
     62 C25        8.6282    2.6012    7.7833 C.ar      1 RES1    0.0000
     63 C26        9.4108    2.4891    6.6489 C.ar      1 RES1    0.0000
     64 H22        9.3935    1.6981    6.1588 H         1 RES1    0.0000
     65 C27       10.2098    3.5195    6.2329 C.ar      1 RES1    0.0000
     66 H23       10.7404    3.4138    5.4759 H         1 RES1    0.0000
     67 C28       10.2361    4.7132    6.9250 C.ar      1 RES1    0.0000
     68 C29        9.4499    4.8462    8.0604 C.ar      1 RES1    0.0000
     69 H24        9.4556    5.6420    8.5428 H         1 RES1    0.0000
     70 C30        8.6591    3.7917    8.4724 C.ar      1 RES1    0.0000
     71 H25        8.1345    3.8886    9.2341 H         1 RES1    0.0000
     72 C31       10.9666    6.9630    7.0566 C.3       1 RES1    0.0000
     73 H26       10.0646    7.2912    7.0125 H         1 RES1    0.0000
     74 H27       11.5532    7.5771    6.6086 H         1 RES1    0.0000
     75 H28       11.2326    6.8805    7.9744 H         1 RES1    0.0000
@<TRIPOS>BOND
     1    1   16 2
     2    2   16 2
     3    3   27 2
     4    4   27 1
     5    5   67 1
     6    6   40 1
     7    7    8 1
     8    8    9 2
     9    9   18 1
    10   10   11 1
    11   11   12 2
    12   12   24 1
    13   13   14 1
    14   14   15 2
    15   15   26 1
    16   16   54 1
    17   17    7 1
    18   18   17 2
    19   19   17 1
    20   20   19 1
    21   21   19 1
    22   22   19 1
    23   23   10 1
    24   24   23 2
    25   25   13 1
    26   26   25 2
    27   27   26 1
    28   28    4 1
    29   29   28 1
    30   30   28 1
    31   31   28 1
    32   32   13 1
    33   33   32 1
    34   34   32 1
    35   35   32 1
    36   36   35 ar
    37   37   36 1
    38   38   36 ar
    39   39   38 1
    40   40   38 ar
    41   41   40 ar
    42   42   41 1
    43   43   35 ar
    44   44   43 1
    45   45    6 1
    46   46   45 1
    47   47   45 1
    48   48   45 1
    49   49   10 1
    50   50   49 ar
    51   51   50 1
    52   52   50 ar
    53   53   52 1
    54   54   52 ar
    55   55   54 ar
    56   56   55 1
    57   57   49 ar
    58   58   57 1
    59   59    7 1
    60   60   59 1
    61   61   59 1
    62   62   59 1
    63   63   62 ar
    64   64   63 1
    65   65   63 ar
    66   66   65 1
    67   67   65 ar
    68   68   67 ar
    69   69   68 1
    70   70   62 ar
    71   71   70 1
    72   72    5 1
    73   73   72 1
    74   74   72 1
    75   75   72 1
    76   18   23 1
    77   24   25 1
    78   41   43 ar
    79   55   57 ar
    80   68   70 ar
@<TRIPOS>SUBSTRUCTURE
     1 RES1 1

@<TRIPOS>CRYSIN
  18.5256    8.0062   20.8302  90.0000  91.7130  90.0000  14 1

