# MOL2 file generated by ConQuest
# Please check atom types

@<TRIPOS>MOLECULE
AZAGAJ
    78    84     2
SMALL
NO_CHARGES
****
Generated from CSD

@<TRIPOS>ATOM
      1 C1         8.4367    7.5594   -0.8245 C.2       1 RES1    0.0000
      2 C2         7.7547    6.2668   -1.1883 C.3       1 RES1    0.0000
      3 H1         7.9755    5.4875   -0.6365 H         1 RES1    0.0000
      4 C3         6.2886    6.6112   -1.3088 C.ar      1 RES1    0.0000
      5 C4         5.1872    6.3342   -0.5568 C.ar      1 RES1    0.0000
      6 H2         5.2583    5.8262    0.2186 H         1 RES1    0.0000
      7 C5         3.9540    6.8237   -0.9604 C.ar      1 RES1    0.0000
      8 H3         3.1987    6.6349   -0.4557 H         1 RES1    0.0000
      9 C6         3.8358    7.5744   -2.1252 C.ar      1 RES1    0.0000
     10 H4         3.0034    7.8870   -2.3918 H         1 RES1    0.0000
     11 C7         4.9468    7.8724   -2.8598 C.ar      1 RES1    0.0000
     12 H5         4.8737    8.4108   -3.6148 H         1 RES1    0.0000
     13 C8         6.1703    7.3740   -2.4889 C.ar      1 RES1    0.0000
     14 C9         7.5592    7.5683   -3.0181 C.3       1 RES1    0.0000
     15 H6         7.6195    7.8340   -3.9602 H         1 RES1    0.0000
     16 C10        8.3102    8.4669   -2.0301 C.3       1 RES1    0.0000
     17 H7         9.1797    8.7236   -2.3745 H         1 RES1    0.0000
     18 H8         7.8012    9.2660   -1.8207 H         1 RES1    0.0000
     19 C11        8.1594    6.1916   -2.6769 C.3       1 RES1    0.0000
     20 H9         9.1200    6.1546   -2.8067 H         1 RES1    0.0000
     21 H10        7.7260    5.4629   -3.1499 H         1 RES1    0.0000
     22 N1         9.0157    7.7327    0.2891 N.2       1 RES1    0.0000
     23 N2         9.5626    8.9965    0.4628 N.pl3     1 RES1    0.0000
     24 H11        9.3835    9.6237   -0.0971 H         1 RES1    0.0000
     25 C12       10.3809    9.2413    1.5203 C.ar      1 RES1    0.0000
     26 C13       10.8939   10.4952    1.8370 C.ar      1 RES1    0.0000
     27 C14       11.7950   10.6774    2.8966 C.ar      1 RES1    0.0000
     28 H12       12.1399   11.5189    3.0907 H         1 RES1    0.0000
     29 C15       12.1483    9.5942    3.6291 C.ar      1 RES1    0.0000
     30 C16       11.6552    8.3231    3.3686 C.ar      1 RES1    0.0000
     31 H13       11.9231    7.6018    3.8917 H         1 RES1    0.0000
     32 C17       10.7799    8.1400    2.3448 C.ar      1 RES1    0.0000
     33 H14       10.4369    7.2924    2.1783 H         1 RES1    0.0000
     34 N3        10.5108   11.7029    1.1147 N.pl3     1 RES1    0.0000
     35 O1         9.6644   11.5972    0.2319 O.2       1 RES1    0.0000
     36 O2        11.0304   12.7637    1.4110 O.2       1 RES1    0.0000
     37 N4        13.1290    9.7681    4.6927 N.pl3     1 RES1    0.0000
     38 O3        13.6373   10.8812    4.8440 O.2       1 RES1    0.0000
     39 O4        13.4067    8.8034    5.3875 O.2       1 RES1    0.0000
     40 C18        7.7453    7.8978    4.5987 C.2       2 RES2    0.0000
     41 C19        7.6193    6.4645    5.0279 C.3       2 RES2    0.0000
     42 H15        7.0299    5.8930    4.4925 H         2 RES2    0.0000
     43 C20        9.0491    6.0052    5.1903 C.ar      2 RES2    0.0000
     44 C21        9.8595    5.1579    4.4874 C.ar      2 RES2    0.0000
     45 H16        9.5411    4.7176    3.7333 H         2 RES2    0.0000
     46 C22       11.1581    4.9651    4.9042 C.ar      2 RES2    0.0000
     47 H17       11.7096    4.3790    4.4383 H         2 RES2    0.0000
     48 C23       11.6347    5.6348    6.0077 C.ar      2 RES2    0.0000
     49 H18       12.5112    5.4890    6.2825 H         2 RES2    0.0000
     50 C24       10.8629    6.4942    6.6912 C.ar      2 RES2    0.0000
     51 H19       11.2125    6.9665    7.4115 H         2 RES2    0.0000
     52 C25        9.5538    6.6694    6.3183 C.ar      2 RES2    0.0000
     53 C26        8.4477    7.5454    6.8148 C.3       2 RES2    0.0000
     54 H20        8.5360    7.8385    7.7466 H         2 RES2    0.0000
     55 C27        8.2846    8.6839    5.7819 C.3       2 RES2    0.0000
     56 H21        7.6547    9.3564    6.0853 H         2 RES2    0.0000
     57 H22        9.1341    9.1072    5.5765 H         2 RES2    0.0000
     58 C28        7.2190    6.6872    6.5175 C.3       2 RES2    0.0000
     59 H23        6.3848    7.1712    6.6176 H         2 RES2    0.0000
     60 H24        7.1976    5.8647    7.0314 H         2 RES2    0.0000
     61 N5         7.4013    8.3171    3.4544 N.2       2 RES2    0.0000
     62 N6         7.5695    9.6789    3.2439 N.pl3     2 RES2    0.0000
     63 H25        8.0863   10.1364    3.7568 H         2 RES2    0.0000
     64 C29        6.9118   10.2783    2.2222 C.ar      2 RES2    0.0000
     65 C30        6.9215   11.6642    1.9903 C.ar      2 RES2    0.0000
     66 C31        6.1547   12.2612    0.9962 C.ar      2 RES2    0.0000
     67 H26        6.1423   13.1839    0.8838 H         2 RES2    0.0000
     68 C32        5.4187   11.4385    0.1900 C.ar      2 RES2    0.0000
     69 C33        5.4336   10.0576    0.3096 C.ar      2 RES2    0.0000
     70 H27        4.9520    9.5216   -0.2799 H         2 RES2    0.0000
     71 C34        6.1759    9.5032    1.3201 C.ar      2 RES2    0.0000
     72 H28        6.1913    8.5768    1.4079 H         2 RES2    0.0000
     73 N7         7.6796   12.5798    2.8302 N.pl3     2 RES2    0.0000
     74 O5         8.3871   12.1159    3.7415 O.2       2 RES2    0.0000
     75 O6         7.6304   13.7857    2.6248 O.2       2 RES2    0.0000
     76 N8         4.5636   12.0663   -0.8317 N.pl3     2 RES2    0.0000
     77 O7         4.6481   13.2647   -1.0197 O.2       2 RES2    0.0000
     78 O8         3.7918   11.3376   -1.4008 O.2       2 RES2    0.0000
@<TRIPOS>BOND
     1    1    2 1
     2    2    3 1
     3    4    2 1
     4    5    4 ar
     5    6    5 1
     6    7    5 ar
     7    8    7 1
     8    9    7 ar
     9   10    9 1
    10   11    9 ar
    11   12   11 1
    12   13    4 ar
    13   14   13 1
    14   15   14 1
    15   16    1 1
    16   17   16 1
    17   18   16 1
    18   19    2 1
    19   20   19 1
    20   21   19 1
    21   22    1 2
    22   23   22 1
    23   24   23 1
    24   25   23 1
    25   26   25 ar
    26   27   26 ar
    27   28   27 1
    28   29   27 ar
    29   30   29 ar
    30   31   30 1
    31   32   25 ar
    32   33   32 1
    33   34   26 1
    34   35   34 2
    35   36   34 2
    36   37   29 1
    37   38   37 2
    38   39   37 2
    39   40   41 1
    40   41   42 1
    41   43   41 1
    42   44   43 ar
    43   45   44 1
    44   46   44 ar
    45   47   46 1
    46   48   46 ar
    47   49   48 1
    48   50   48 ar
    49   51   50 1
    50   52   43 ar
    51   53   52 1
    52   54   53 1
    53   55   40 1
    54   56   55 1
    55   57   55 1
    56   58   41 1
    57   59   58 1
    58   60   58 1
    59   61   40 2
    60   62   61 1
    61   63   62 1
    62   64   62 1
    63   65   64 ar
    64   66   65 ar
    65   67   66 1
    66   68   66 ar
    67   69   68 ar
    68   70   69 1
    69   71   64 ar
    70   72   71 1
    71   73   65 1
    72   74   73 2
    73   75   73 2
    74   76   68 1
    75   77   76 2
    76   78   76 2
    77   11   13 ar
    78   14   16 1
    79   14   19 1
    80   30   32 ar
    81   50   52 ar
    82   53   55 1
    83   53   58 1
    84   69   71 ar
@<TRIPOS>SUBSTRUCTURE
     1 RES1 1
     2 RES2 40

@<TRIPOS>CRYSIN
   8.6150    9.5106   11.5620  64.6590  72.9000  74.9670   1 1

