# MOL2 file generated by ConQuest
# Please check atom types

@<TRIPOS>MOLECULE
AZAPOG
    52    56     1
SMALL
NO_CHARGES
****
Generated from CSD

@<TRIPOS>ATOM
      1 O1         3.1711    8.5834   10.4444 O.3       1 RES1    0.0000
      2 N1         3.4253    7.9230   11.7602 N.3       1 RES1    0.0000
      3 C1         4.2477    6.7071   11.4018 C.3       1 RES1    0.0000
      4 C2         4.9312    7.1690   10.1310 C.ar      1 RES1    0.0000
      5 C3         6.0681    6.7157    9.4744 C.ar      1 RES1    0.0000
      6 H1         6.5604    5.9730    9.8069 H         1 RES1    0.0000
      7 C4         6.4662    7.3760    8.3179 C.ar      1 RES1    0.0000
      8 H2         7.2361    7.0765    7.8468 H         1 RES1    0.0000
      9 C5         5.7536    8.4685    7.8430 C.ar      1 RES1    0.0000
     10 H3         6.0419    8.9067    7.0515 H         1 RES1    0.0000
     11 C6         4.6244    8.9313    8.5075 C.ar      1 RES1    0.0000
     12 H4         4.1331    9.6788    8.1881 H         1 RES1    0.0000
     13 C7         4.2496    8.2586    9.6507 C.ar      1 RES1    0.0000
     14 C8         4.1613    8.9387   12.5080 C.3       1 RES1    0.0000
     15 H5         4.9992    9.1436   12.0426 H         1 RES1    0.0000
     16 H6         4.3603    8.6023   13.4062 H         1 RES1    0.0000
     17 H7         3.6185    9.7513   12.5765 H         1 RES1    0.0000
     18 C9         5.2807    6.3388   12.4714 C.3       1 RES1    0.0000
     19 H8         5.9040    7.0839   12.5953 H         1 RES1    0.0000
     20 H9         5.7769    5.5422   12.1851 H         1 RES1    0.0000
     21 H10        4.8234    6.1522   13.3170 H         1 RES1    0.0000
     22 C10        0.7719    6.4247   13.3593 C.3       1 RES1    0.0000
     23 H11        0.1777    6.1670   14.1076 H         1 RES1    0.0000
     24 H12        0.9272    7.4006   13.4203 H         1 RES1    0.0000
     25 C11        2.1535    5.6747   13.5204 C.3       1 RES1    0.0000
     26 H13        2.8506    6.3351   13.7616 H         1 RES1    0.0000
     27 H14        2.0816    5.0254   14.2642 H         1 RES1    0.0000
     28 C12        2.5874    4.9370   12.2608 C.ar      1 RES1    0.0000
     29 C13        3.2943    5.5164   11.1856 C.ar      1 RES1    0.0000
     30 C14        3.0894    4.9852    9.9123 C.ar      1 RES1    0.0000
     31 H15        3.5224    5.3924    9.1713 H         1 RES1    0.0000
     32 C15        2.2729    3.8789    9.6870 C.ar      1 RES1    0.0000
     33 C16        1.8962    3.1363   10.7914 C.ar      1 RES1    0.0000
     34 H16        1.5369    2.2647   10.6805 H         1 RES1    0.0000
     35 C17        2.0447    3.6727   12.0592 C.ar      1 RES1    0.0000
     36 H17        1.7690    3.1633   12.8113 H         1 RES1    0.0000
     37 C18        1.6049    3.6408    8.3487 C.3       1 RES1    0.0000
     38 H18        1.6292    2.6735    8.1427 H         1 RES1    0.0000
     39 H19        2.1156    4.1134    7.6448 H         1 RES1    0.0000
     40 C19        0.1049    4.1367    8.3163 C.3       1 RES1    0.0000
     41 H20       -0.0427    4.6657    7.4930 H         1 RES1    0.0000
     42 H21       -0.4952    3.3498    8.2820 H         1 RES1    0.0000
     43 C20       -0.2573    4.9800    9.5131 C.ar      1 RES1    0.0000
     44 C21        0.2515    6.2738    9.6598 C.ar      1 RES1    0.0000
     45 H22        0.4884    6.7746    8.8879 H         1 RES1    0.0000
     46 C22        0.4146    6.8323   10.9060 C.ar      1 RES1    0.0000
     47 H23        0.7651    7.7112   10.9858 H         1 RES1    0.0000
     48 C23        0.0718    6.1203   12.0515 C.ar      1 RES1    0.0000
     49 C24       -0.7107    4.9775   11.8831 C.ar      1 RES1    0.0000
     50 H24       -1.1389    4.5847   12.6344 H         1 RES1    0.0000
     51 C25       -0.8690    4.4116   10.6289 C.ar      1 RES1    0.0000
     52 H25       -1.3991    3.6297   10.5287 H         1 RES1    0.0000
@<TRIPOS>BOND
     1    1    2 1
     2    2    3 1
     3    3    4 1
     4    4    5 ar
     5    5    6 1
     6    7    5 ar
     7    8    7 1
     8    9    7 ar
     9   10    9 1
    10   11    9 ar
    11   12   11 1
    12   13    1 1
    13   14    2 1
    14   15   14 1
    15   16   14 1
    16   17   14 1
    17   18    3 1
    18   19   18 1
    19   20   18 1
    20   21   18 1
    21   22   23 1
    22   24   22 1
    23   25   22 1
    24   26   25 1
    25   27   25 1
    26   28   25 1
    27   29    3 1
    28   30   29 ar
    29   31   30 1
    30   32   30 ar
    31   33   32 ar
    32   34   33 1
    33   35   28 ar
    34   36   35 1
    35   37   32 1
    36   38   37 1
    37   39   37 1
    38   40   37 1
    39   41   40 1
    40   42   40 1
    41   43   40 1
    42   44   43 ar
    43   45   44 1
    44   46   44 ar
    45   47   46 1
    46   48   22 1
    47   49   48 ar
    48   50   49 1
    49   51   43 ar
    50   52   51 1
    51    4   13 ar
    52   11   13 ar
    53   28   29 ar
    54   33   35 ar
    55   46   48 ar
    56   49   51 ar
@<TRIPOS>SUBSTRUCTURE
     1 RES1 1

@<TRIPOS>CRYSIN
   9.7090   12.2750   15.6560  90.0000  90.0000  90.0000  19 1

