# MOL2 file generated by ConQuest
# Please check atom types

@<TRIPOS>MOLECULE
AZAVUT01
    35    38     1
SMALL
NO_CHARGES
****
Generated from CSD

@<TRIPOS>ATOM
      1 C1         7.2939    2.7662    8.2289 C.3       1 RES1    0.0000
      2 H1         8.0321    3.4061    8.1541 H         1 RES1    0.0000
      3 H2         7.6465    1.8528    8.1728 H         1 RES1    0.0000
      4 H3         6.8393    2.8891    9.0892 H         1 RES1    0.0000
      5 C2         6.3098    2.9967    7.0988 C.ar      1 RES1    0.0000
      6 C3         6.5247    3.9598    6.1149 C.ar      1 RES1    0.0000
      7 H4         7.3227    4.4747    6.1405 H         1 RES1    0.0000
      8 C4         5.6088    4.1873    5.1031 C.ar      1 RES1    0.0000
      9 H5         5.7823    4.8549    4.4511 H         1 RES1    0.0000
     10 C5         4.4265    3.4380    5.0364 C.ar      1 RES1    0.0000
     11 C6         4.2060    2.4580    6.0058 C.ar      1 RES1    0.0000
     12 H6         3.4173    1.9303    5.9722 H         1 RES1    0.0000
     13 C7         5.1326    2.2494    7.0199 C.ar      1 RES1    0.0000
     14 H7         4.9615    1.5824    7.6740 H         1 RES1    0.0000
     15 C8         3.4156    3.6894    3.9819 C.2       1 RES1    0.0000
     16 C9         2.4522    2.7945    3.4262 C.2       1 RES1    0.0000
     17 C10        2.0489    1.3619    3.6612 C.3       1 RES1    0.0000
     18 H8         1.4004    1.3142    4.4074 H         1 RES1    0.0000
     19 H9         2.8439    0.8251    3.9066 H         1 RES1    0.0000
     20 C11        1.4135    0.7965    2.3828 C.3       1 RES1    0.0000
     21 H10        2.1316    0.6022    1.7289 H         1 RES1    0.0000
     22 H11        0.9670   -0.0603    2.6017 H         1 RES1    0.0000
     23 C12        0.3979    1.7254    1.7320 C.ar      1 RES1    0.0000
     24 C13       -0.7137    1.2496    1.0490 C.ar      1 RES1    0.0000
     25 H12       -0.8848    0.3156    1.0348 H         1 RES1    0.0000
     26 C14       -1.5824    2.1102    0.3855 C.ar      1 RES1    0.0000
     27 H13       -2.3314    1.7623   -0.0831 H         1 RES1    0.0000
     28 C15       -1.3512    3.4847    0.4104 C.ar      1 RES1    0.0000
     29 H14       -1.9385    4.0750   -0.0478 H         1 RES1    0.0000
     30 C16       -0.2639    3.9867    1.1045 C.ar      1 RES1    0.0000
     31 H15       -0.1203    4.9250    1.1408 H         1 RES1    0.0000
     32 C17        0.6239    3.1239    1.7513 C.ar      1 RES1    0.0000
     33 C18        1.7719    3.5455    2.5354 C.2       1 RES1    0.0000
     34 N1         3.3183    4.8939    3.4505 N.2       1 RES1    0.0000
     35 O1         2.2559    4.8157    2.5013 O.3       1 RES1    0.0000
@<TRIPOS>BOND
     1    1    2 1
     2    3    1 1
     3    4    1 1
     4    5    1 1
     5    6    5 ar
     6    7    6 1
     7    8    6 ar
     8    9    8 1
     9   10    8 ar
    10   11   10 ar
    11   12   11 1
    12   13    5 ar
    13   14   13 1
    14   15   10 1
    15   16   15 1
    16   17   16 1
    17   18   17 1
    18   19   17 1
    19   20   17 1
    20   21   20 1
    21   22   20 1
    22   23   20 1
    23   24   23 ar
    24   25   24 1
    25   26   24 ar
    26   27   26 1
    27   28   26 ar
    28   29   28 1
    29   30   28 ar
    30   31   30 1
    31   32   23 ar
    32   33   16 2
    33   34   15 2
    34   35   33 1
    35   11   13 ar
    36   30   32 ar
    37   32   33 1
    38   34   35 1
@<TRIPOS>SUBSTRUCTURE
     1 RES1 1

@<TRIPOS>CRYSIN
   5.9782   10.7720   20.7890  90.0000  91.6900  90.0000  14 1

