# MOL2 file generated by ConQuest
# Please check atom types

@<TRIPOS>MOLECULE
AZAXEG
    23    24     1
SMALL
NO_CHARGES
****
Generated from CSD

@<TRIPOS>ATOM
      1 O1         4.6454    8.8569    1.7156 O.2       1 RES1    0.0000
      2 O2         2.5089    5.8195    4.3411 O.2       1 RES1    0.0000
      3 O3         7.0461    6.1523   -1.5258 O.3       1 RES1    0.0000
      4 O4         8.9304    6.2465   -4.4029 O.2       1 RES1    0.0000
      5 O5         8.2148    7.8351   -3.1215 O.2       1 RES1    0.0000
      6 N1         5.4806    6.4090    0.6463 N.2       1 RES1    0.0000
      7 N2         4.6869    6.5403    1.7509 N.am      1 RES1    0.0000
      8 N3         3.4671    7.5764    3.2416 N.am      1 RES1    0.0000
      9 H1         3.1200    8.2127    3.7054 H         1 RES1    0.0000
     10 N4         8.3330    6.6586   -3.4170 N.pl3     1 RES1    0.0000
     11 C1         7.7783    5.6745   -2.5638 C.2       1 RES1    0.0000
     12 C2         4.3196    7.7974    2.1658 C.2       1 RES1    0.0000
     13 C3         6.6299    5.0284   -0.8644 C.2       1 RES1    0.0000
     14 C4         5.7924    5.2234    0.2903 C.2       1 RES1    0.0000
     15 C5         7.8504    4.3414   -2.5812 C.2       1 RES1    0.0000
     16 H2         8.3001    3.8083   -3.1955 H         1 RES1    0.0000
     17 C6         3.2343    6.2693    3.4911 C.2       1 RES1    0.0000
     18 C7         7.1023    3.9182   -1.4744 C.2       1 RES1    0.0000
     19 H3         6.9578    3.0388   -1.2087 H         1 RES1    0.0000
     20 C8         4.0354    5.4737    2.4931 C.3       1 RES1    0.0000
     21 H4         4.6817    4.8984    2.9311 H         1 RES1    0.0000
     22 H5         3.4638    4.9387    1.9207 H         1 RES1    0.0000
     23 H6         5.4986    4.4460    0.6686 H         1 RES1    0.0000
@<TRIPOS>BOND
     1    1   12 2
     2    2   17 2
     3    3   11 1
     4    4   10 2
     5    5   10 2
     6    6    7 1
     7    7   12 1
     8    8    9 1
     9   10   11 1
    10   11   15 2
    11   12    8 1
    12   13    3 1
    13   14    6 2
    14   15   16 1
    15   17    8 1
    16   18   13 2
    17   19   18 1
    18   20    7 1
    19   21   20 1
    20   22   20 1
    21   23   14 1
    22   13   14 1
    23   15   18 1
    24   17   20 1
@<TRIPOS>SUBSTRUCTURE
     1 RES1 1

@<TRIPOS>CRYSIN
   7.8490    6.5000   20.0570  90.0000 109.6750  90.0000  14 1

