# MOL2 file generated by ConQuest
# Please check atom types

@<TRIPOS>MOLECULE
AZEHET
    52    52     2
SMALL
NO_CHARGES
****
Generated from CSD

@<TRIPOS>ATOM
      1 O1         1.0791    4.3670    6.4047 O.2       1 RES1    0.0000
      2 O2        -0.7268    5.8785   10.4039 O.2       1 RES1    0.0000
      3 O3         6.3993    1.8979    9.9801 O.2       2 RES2    0.0000
      4 O4         3.5925    3.0743   13.4660 O.2       2 RES2    0.0000
      5 N1         0.5803    5.0657    7.3344 N.pl3     1 RES1    0.0000
      6 N2        -0.1440    6.9169    8.4454 N.am      1 RES1    0.0000
      7 N3         5.4555    1.9743   10.8179 N.pl3     2 RES2    0.0000
      8 N4         3.5049    1.4351   11.8443 N.am      2 RES2    0.0000
      9 C1         0.4281    6.5624    7.1580 C.3       1 RES1    0.0000
     10 C2        -0.2989    5.8534    9.2562 C.2       1 RES1    0.0000
     11 C3         0.1602    4.6850    8.5213 C.2       1 RES1    0.0000
     12 C4        -0.5696    8.2426    8.8312 C.3       1 RES1    0.0000
     13 C5         1.8293    7.1289    6.8971 C.3       1 RES1    0.0000
     14 C6         1.7946    8.6040    6.5652 C.3       1 RES1    0.0000
     15 C7         2.7932    6.8348    8.0436 C.3       1 RES1    0.0000
     16 C8        -0.5426    6.7687    6.0091 C.3       1 RES1    0.0000
     17 C9         4.3133    1.0088   10.7236 C.3       2 RES2    0.0000
     18 C10        4.0428    2.4930   12.4935 C.2       2 RES2    0.0000
     19 C11        5.2922    2.8007   11.7782 C.2       2 RES2    0.0000
     20 C12        2.3042    0.7751   12.2987 C.3       2 RES2    0.0000
     21 C13        3.6638    1.2231    9.3358 C.3       2 RES2    0.0000
     22 C14        3.1034    2.6092    9.1925 C.3       2 RES2    0.0000
     23 C15        2.6291    0.1721    8.9916 C.3       2 RES2    0.0000
     24 C16        4.9005   -0.3705   10.9416 C.3       2 RES2    0.0000
     25 H1         0.1570    3.7845    8.8471 H         1 RES1    0.0000
     26 H2        -0.0964    8.5059    9.6090 H         1 RES1    0.0000
     27 H3        -0.3906    8.8422    8.1232 H         1 RES1    0.0000
     28 H4        -1.5020    8.2267    9.0137 H         1 RES1    0.0000
     29 H5         2.1686    6.6741    6.1304 H         1 RES1    0.0000
     30 H6         3.6419    7.2064    7.8488 H         1 RES1    0.0000
     31 H7         2.4544    7.2030    8.8471 H         1 RES1    0.0000
     32 H8         2.8833    5.8864    8.1477 H         1 RES1    0.0000
     33 H9         2.6809    8.9106    6.4280 H         1 RES1    0.0000
     34 H10        1.2846    8.7305    5.7752 H         1 RES1    0.0000
     35 H11        1.3975    9.0713    7.2854 H         1 RES1    0.0000
     36 H12       -0.1887    6.3675    5.2203 H         1 RES1    0.0000
     37 H13       -0.6740    7.6898    5.8695 H         1 RES1    0.0000
     38 H14       -1.3742    6.3504    6.2210 H         1 RES1    0.0000
     39 H15        5.8887    3.4984   11.9986 H         2 RES2    0.0000
     40 H16        1.5917    1.3930   12.3355 H         2 RES2    0.0000
     41 H17        2.0799    0.0661   11.6961 H         2 RES2    0.0000
     42 H18        2.4504    0.4035   13.1647 H         2 RES2    0.0000
     43 H19        4.3591    1.1342    8.6928 H         2 RES2    0.0000
     44 H20        2.4339    2.7415    9.8527 H         2 RES2    0.0000
     45 H21        3.7991    3.2373    9.3064 H         2 RES2    0.0000
     46 H22        2.7218    2.7004    8.3278 H         2 RES2    0.0000
     47 H23        1.9311    0.1824    9.6359 H         2 RES2    0.0000
     48 H24        2.2697    0.3420    8.1306 H         2 RES2    0.0000
     49 H25        3.0365   -0.6942    8.9929 H         2 RES2    0.0000
     50 H26        5.4506   -0.3693   11.7169 H         2 RES2    0.0000
     51 H27        5.4210   -0.6235   10.1859 H         2 RES2    0.0000
     52 H28        4.1980   -1.0077   11.0604 H         2 RES2    0.0000
@<TRIPOS>BOND
     1    1    5 1
     2    2   10 2
     3    3    7 1
     4    4   18 2
     5    5    9 1
     6    6    9 1
     7    7   17 1
     8    8   17 1
     9    9   13 1
    10   10    6 1
    11   11    5 2
    12   12    6 1
    13   13   14 1
    14   14   33 1
    15   15   13 1
    16   16    9 1
    17   17   21 1
    18   18    8 1
    19   19    7 2
    20   20    8 1
    21   21   22 1
    22   22   44 1
    23   23   21 1
    24   24   17 1
    25   25   11 1
    26   26   12 1
    27   27   12 1
    28   28   12 1
    29   29   13 1
    30   30   15 1
    31   31   15 1
    32   32   15 1
    33   34   14 1
    34   35   14 1
    35   36   16 1
    36   37   16 1
    37   38   16 1
    38   39   19 1
    39   40   20 1
    40   41   20 1
    41   42   20 1
    42   43   21 1
    43   45   22 1
    44   46   22 1
    45   47   23 1
    46   48   23 1
    47   49   23 1
    48   50   24 1
    49   51   24 1
    50   52   24 1
    51   10   11 1
    52   18   19 1
@<TRIPOS>SUBSTRUCTURE
     1 RES1 1
     2 RES2 3

@<TRIPOS>CRYSIN
   6.8030   11.3990   12.2600  90.0000  92.4800  90.0000   4 1

