# MOL2 file generated by ConQuest
# Please check atom types

@<TRIPOS>MOLECULE
AZEHIX
    65    67     1
SMALL
NO_CHARGES
****
Generated from CSD

@<TRIPOS>ATOM
      1 O1        -0.7040   -5.5069   -7.2901 O.2       1 RES1    0.0000
      2 O2        -0.4086   -4.4587   -3.3311 O.3       1 RES1    0.0000
      3 O3        -1.9697   -3.1122   -2.4193 O.2       1 RES1    0.0000
      4 O4        -2.1874   -4.6936   -0.2632 O.3       1 RES1    0.0000
      5 O5        -3.8107   -5.7859   -1.3287 O.2       1 RES1    0.0000
      6 O6        -0.4540   -7.1551    0.5172 O.3       1 RES1    0.0000
      7 H1        -0.3464   -7.6151    1.2114 H         1 RES1    0.0000
      8 O7         0.1685   -5.4369    1.8117 O.2       1 RES1    0.0000
      9 O8         0.5604   -3.8415   -0.3668 O.3       1 RES1    0.0000
     10 O9         2.5761   -4.6710    0.1589 O.2       1 RES1    0.0000
     11 N1        -0.2967   -3.4504   -4.4047 N.3       1 RES1    0.0000
     12 N2         0.9584   -4.5923   -5.9932 N.am      1 RES1    0.0000
     13 C1         1.0884   -3.5894   -4.9289 C.3       1 RES1    0.0000
     14 C2        -0.3079   -4.7884   -6.3764 C.2       1 RES1    0.0000
     15 C3        -1.1767   -3.9535   -5.4722 C.3       1 RES1    0.0000
     16 H2        -1.5766   -3.2005   -5.9755 H         1 RES1    0.0000
     17 H3        -1.9075   -4.5018   -5.0907 H         1 RES1    0.0000
     18 C4         2.0935   -5.1622   -6.6941 C.3       1 RES1    0.0000
     19 H4         2.8317   -4.5169   -6.7000 H         1 RES1    0.0000
     20 H5         1.8366   -5.3722   -7.6160 H         1 RES1    0.0000
     21 H6         2.3802   -5.9820   -6.2398 H         1 RES1    0.0000
     22 C5         2.0860   -4.0483   -3.8793 C.3       1 RES1    0.0000
     23 H7         1.8945   -4.9769   -3.6313 H         1 RES1    0.0000
     24 H8         2.0126   -3.4774   -3.0865 H         1 RES1    0.0000
     25 H9         2.9941   -3.9880   -4.2430 H         1 RES1    0.0000
     26 C6         1.5300   -2.2084   -5.5212 C.3       1 RES1    0.0000
     27 H10        2.4747   -2.3172   -5.8315 H         1 RES1    0.0000
     28 C7         1.5412   -1.1203   -4.4612 C.3       1 RES1    0.0000
     29 H11        2.0723   -1.4177   -3.6937 H         1 RES1    0.0000
     30 H12        0.6226   -0.9383   -4.1702 H         1 RES1    0.0000
     31 H13        1.9343   -0.3038   -4.8339 H         1 RES1    0.0000
     32 C8         0.7190   -1.7516   -6.7356 C.3       1 RES1    0.0000
     33 H14        1.1332   -0.9523   -7.1231 H         1 RES1    0.0000
     34 H15       -0.1978   -1.5426   -6.4580 H         1 RES1    0.0000
     35 H16        0.7003   -2.4669   -7.4052 H         1 RES1    0.0000
     36 C9        -1.2694   -4.0731   -2.3813 C.2       1 RES1    0.0000
     37 C10       -1.2439   -5.0889   -1.2634 C.3       1 RES1    0.0000
     38 H17       -1.4952   -5.9873   -1.6227 H         1 RES1    0.0000
     39 C11       -3.4537   -5.1137   -0.4157 C.2       1 RES1    0.0000
     40 C12       -4.3194   -4.6246    0.6770 C.ar      1 RES1    0.0000
     41 C13       -5.6056   -5.1525    0.7898 C.ar      1 RES1    0.0000
     42 H18       -5.9042   -5.8182    0.1811 H         1 RES1    0.0000
     43 C14       -6.4384   -4.7054    1.7830 C.ar      1 RES1    0.0000
     44 H19       -7.3116   -5.0695    1.8706 H         1 RES1    0.0000
     45 C15       -6.0111   -3.7327    2.6545 C.ar      1 RES1    0.0000
     46 H20       -6.5976   -3.4213    3.3344 H         1 RES1    0.0000
     47 C16       -4.7492   -3.2059    2.5520 C.ar      1 RES1    0.0000
     48 H21       -4.4637   -2.5326    3.1592 H         1 RES1    0.0000
     49 C17       -3.8984   -3.6562    1.5692 C.ar      1 RES1    0.0000
     50 H22       -3.0202   -3.3007    1.5024 H         1 RES1    0.0000
     51 C18        0.1057   -5.1729   -0.5834 C.3       1 RES1    0.0000
     52 H23        0.7507   -5.6566   -1.1743 H         1 RES1    0.0000
     53 C19       -0.0466   -5.9281    0.7378 C.2       1 RES1    0.0000
     54 C20        1.8596   -3.7251   -0.0030 C.2       1 RES1    0.0000
     55 C21        2.2969   -2.3172    0.1084 C.ar      1 RES1    0.0000
     56 C22        3.4077   -2.0371    0.9101 C.ar      1 RES1    0.0000
     57 H24        3.8200   -2.7276    1.4163 H         1 RES1    0.0000
     58 C23        3.9027   -0.7487    0.9591 C.ar      1 RES1    0.0000
     59 H25        4.6310   -0.5429    1.5321 H         1 RES1    0.0000
     60 C24        3.3461    0.2327    0.1826 C.ar      1 RES1    0.0000
     61 H26        3.7155    1.1074    0.1945 H         1 RES1    0.0000
     62 C25        2.2558   -0.0377   -0.6131 C.ar      1 RES1    0.0000
     63 H27        1.8733    0.6507   -1.1446 H         1 RES1    0.0000
     64 C26        1.7122   -1.3175   -0.6384 C.ar      1 RES1    0.0000
     65 H28        0.9447   -1.5006   -1.1669 H         1 RES1    0.0000
@<TRIPOS>BOND
     1    1   14 2
     2    2   11 1
     3    3   36 2
     4    4   37 1
     5    5   39 2
     6    6    7 1
     7    8   53 2
     8    9   51 1
     9   10   54 2
    10   11   13 1
    11   12   13 1
    12   13   22 1
    13   14   12 1
    14   15   11 1
    15   16   15 1
    16   17   15 1
    17   18   12 1
    18   19   18 1
    19   20   18 1
    20   21   18 1
    21   22   23 1
    22   24   22 1
    23   25   22 1
    24   26   13 1
    25   27   26 1
    26   28   26 1
    27   29   28 1
    28   30   28 1
    29   31   28 1
    30   32   26 1
    31   33   32 1
    32   34   32 1
    33   35   32 1
    34   36    2 1
    35   37   36 1
    36   38   37 1
    37   39    4 1
    38   40   39 1
    39   41   40 ar
    40   42   41 1
    41   43   41 ar
    42   44   43 1
    43   45   43 ar
    44   46   45 1
    45   47   45 ar
    46   48   47 1
    47   49   40 ar
    48   50   49 1
    49   51   37 1
    50   52   51 1
    51   53    6 1
    52   54    9 1
    53   55   54 1
    54   56   55 ar
    55   57   56 1
    56   58   56 ar
    57   59   58 1
    58   60   58 ar
    59   61   60 1
    60   62   60 ar
    61   63   62 1
    62   64   55 ar
    63   65   64 1
    64   14   15 1
    65   47   49 ar
    66   51   53 1
    67   62   64 ar
@<TRIPOS>SUBSTRUCTURE
     1 RES1 1

@<TRIPOS>CRYSIN
  12.4390   12.4390   14.8460  90.0000  90.0000 120.0000 145 1

