# MOL2 file generated by ConQuest
# Please check atom types

@<TRIPOS>MOLECULE
AZEHOD
    27    28     1
SMALL
NO_CHARGES
****
Generated from CSD

@<TRIPOS>ATOM
      1 O1        -0.7524    1.9874    8.2542 O.2       1 RES1    0.0000
      2 O2         0.7688   -0.7928    4.8739 O.2       1 RES1    0.0000
      3 N1        -0.2456    1.5208    7.1844 N.pl3     1 RES1    0.0000
      4 N2         0.8083    1.4834    5.1789 N.am      1 RES1    0.0000
      5 C1         0.3175    2.4540    6.1445 C.3       1 RES1    0.0000
      6 C2         0.5214    0.2053    5.5318 C.2       1 RES1    0.0000
      7 C3        -0.1295    0.2770    6.8263 C.2       1 RES1    0.0000
      8 C4         1.2641    1.8273    3.8451 C.3       1 RES1    0.0000
      9 C5         1.4594    3.2940    6.7238 C.3       1 RES1    0.0000
     10 C6         1.0035    4.4807    7.5620 C.3       1 RES1    0.0000
     11 C7        -0.0477    5.3217    6.8503 C.3       1 RES1    0.0000
     12 C8        -1.2322    4.4630    6.4435 C.3       1 RES1    0.0000
     13 C9        -0.7994    3.3156    5.5549 C.3       1 RES1    0.0000
     14 H1        -0.4250   -0.4706    7.3339 H         1 RES1    0.0000
     15 H2         1.4360    1.0315    3.3546 H         1 RES1    0.0000
     16 H3         2.0617    2.3411    3.9058 H         1 RES1    0.0000
     17 H4         0.5938    2.3342    3.4025 H         1 RES1    0.0000
     18 H5         1.9948    2.7311    7.2707 H         1 RES1    0.0000
     19 H6         1.9828    3.6231    6.0018 H         1 RES1    0.0000
     20 H7         0.6353    4.1565    8.3755 H         1 RES1    0.0000
     21 H8         1.7559    5.0289    7.7509 H         1 RES1    0.0000
     22 H9        -0.3463    6.0084    7.4347 H         1 RES1    0.0000
     23 H10        0.3364    5.7117    6.0744 H         1 RES1    0.0000
     24 H11       -1.6428    4.1123    7.2245 H         1 RES1    0.0000
     25 H12       -1.8567    5.0014    5.9710 H         1 RES1    0.0000
     26 H13       -1.5530    2.7596    5.3977 H         1 RES1    0.0000
     27 H14       -0.4947    3.6752    4.7303 H         1 RES1    0.0000
@<TRIPOS>BOND
     1    1    3 1
     2    2    6 2
     3    3    5 1
     4    4    5 1
     5    5    9 1
     6    6    4 1
     7    7    3 2
     8    8    4 1
     9    9   10 1
    10   10   11 1
    11   11   12 1
    12   12   13 1
    13   13    5 1
    14   14    7 1
    15   15    8 1
    16   16    8 1
    17   17    8 1
    18   18    9 1
    19   19    9 1
    20   20   10 1
    21   21   10 1
    22   22   11 1
    23   23   11 1
    24   24   12 1
    25   25   12 1
    26   26   13 1
    27   27   13 1
    28    6    7 1
@<TRIPOS>SUBSTRUCTURE
     1 RES1 1

@<TRIPOS>CRYSIN
  11.2130    9.8240    8.6310  90.0000  98.1100  90.0000  14 2

