# MOL2 file generated by ConQuest
# Please check atom types

@<TRIPOS>MOLECULE
AZEHUJ
    84    86     2
SMALL
NO_CHARGES
****
Generated from CSD

@<TRIPOS>ATOM
      1 O1         7.0393    5.0182    5.6818 O.3       1 RES1    0.0000
      2 O2        11.4093    5.5197    4.1255 O.2       1 RES1    0.0000
      3 O3         9.1295    1.0126    0.4210 O.3       1 RES1    0.0000
      4 O4         3.4964   -1.0260    3.9817 O.3       2 RES2    0.0000
      5 O5         5.7051    2.6816    5.7211 O.2       2 RES2    0.0000
      6 O6         2.0229    0.7198   10.4417 O.3       2 RES2    0.0000
      7 N1         8.4198    4.6025    5.6565 N.3       1 RES1    0.0000
      8 N2        10.4831    5.3193    6.2039 N.am      1 RES1    0.0000
      9 N3         3.5501    0.3681    4.2909 N.3       2 RES2    0.0000
     10 N4         4.6712    2.2509    3.7286 N.am      2 RES2    0.0000
     11 C1         9.1628    5.1442    6.8253 C.3       1 RES1    0.0000
     12 C2        10.4668    5.3409    4.8667 C.2       1 RES1    0.0000
     13 C3         9.0365    5.0339    4.4141 C.3       1 RES1    0.0000
     14 C4        11.7345    5.4228    6.9232 C.3       1 RES1    0.0000
     15 C5         8.5714    6.4637    7.3872 C.3       1 RES1    0.0000
     16 C6         8.6213    7.6097    6.3903 C.3       1 RES1    0.0000
     17 C7         9.1866    6.8974    8.7224 C.3       1 RES1    0.0000
     18 C8         9.1832    4.0414    7.8815 C.3       1 RES1    0.0000
     19 C9         9.0012    3.9706    3.3360 C.ar      1 RES1    0.0000
     20 C10        8.6916    4.3037    2.0362 C.ar      1 RES1    0.0000
     21 C11        9.3321    2.6622    3.6348 C.ar      1 RES1    0.0000
     22 C12        8.7184    3.3373    1.0252 C.ar      1 RES1    0.0000
     23 C13        9.3734    1.6877    2.6481 C.ar      1 RES1    0.0000
     24 C14        9.0606    2.0460    1.3251 C.ar      1 RES1    0.0000
     25 C15        8.9780    1.3643   -0.9442 C.3       1 RES1    0.0000
     26 C16        3.9414    1.1512    3.0778 C.3       2 RES2    0.0000
     27 C17        5.0625    1.9641    4.9885 C.2       2 RES2    0.0000
     28 C18        4.4914    0.6006    5.3598 C.3       2 RES2    0.0000
     29 C19        4.9839    3.5362    3.1263 C.3       2 RES2    0.0000
     30 C20        4.8067    0.3800    2.0545 C.3       2 RES2    0.0000
     31 C21        5.1435    1.1780    0.7963 C.3       2 RES2    0.0000
     32 C22        6.0883   -0.1662    2.6501 C.3       2 RES2    0.0000
     33 C23        2.6372    1.6377    2.4637 C.3       2 RES2    0.0000
     34 C24        3.8715    0.6050    6.7188 C.ar      2 RES2    0.0000
     35 C25        2.7588    1.4194    6.9921 C.ar      2 RES2    0.0000
     36 C26        4.3441   -0.1714    7.7458 C.ar      2 RES2    0.0000
     37 C27        2.1722    1.4306    8.2280 C.ar      2 RES2    0.0000
     38 C28        3.7856   -0.1736    8.9979 C.ar      2 RES2    0.0000
     39 C29        2.6540    0.6371    9.2564 C.ar      2 RES2    0.0000
     40 C30        2.5032   -0.0574   11.5285 C.3       2 RES2    0.0000
     41 H1         6.5125    4.2515    5.6994 H         1 RES1    0.0000
     42 H2         8.6172    5.8572    4.1049 H         1 RES1    0.0000
     43 H3        12.1169    6.3088    6.7672 H         1 RES1    0.0000
     44 H4        12.3310    4.7798    6.6193 H         1 RES1    0.0000
     45 H5        11.5757    5.3409    7.8511 H         1 RES1    0.0000
     46 H6         7.6545    6.3184    7.5553 H         1 RES1    0.0000
     47 H7         8.1834    7.3720    5.5880 H         1 RES1    0.0000
     48 H8         8.1631    8.3876    6.7611 H         1 RES1    0.0000
     49 H9         9.5166    7.8653    6.2120 H         1 RES1    0.0000
     50 H10       10.0998    7.1284    8.5967 H         1 RES1    0.0000
     51 H11        8.7282    7.7118    9.0243 H         1 RES1    0.0000
     52 H12        9.0820    6.2372    9.3545 H         1 RES1    0.0000
     53 H13        9.3828    3.2360    7.4601 H         1 RES1    0.0000
     54 H14        8.3382    4.0161    8.3009 H         1 RES1    0.0000
     55 H15        9.8547    4.2612    8.5238 H         1 RES1    0.0000
     56 H16        8.4584    5.2246    1.8194 H         1 RES1    0.0000
     57 H17        9.5282    2.4544    4.5344 H         1 RES1    0.0000
     58 H18        8.4993    3.6040    0.1337 H         1 RES1    0.0000
     59 H19        9.6134    0.8204    2.8609 H         1 RES1    0.0000
     60 H20        9.3884    2.2316   -1.1063 H         1 RES1    0.0000
     61 H21        9.3836    0.7287   -1.4912 H         1 RES1    0.0000
     62 H22        8.0503    1.4477   -1.1549 H         1 RES1    0.0000
     63 H23        2.6067   -1.1340    4.5243 H         2 RES2    0.0000
     64 H24        5.1791   -0.0253    5.3266 H         2 RES2    0.0000
     65 H25        5.4457    3.4193    2.2996 H         2 RES2    0.0000
     66 H26        4.1834    4.0384    2.9561 H         2 RES2    0.0000
     67 H27        5.5402    4.0638    3.7078 H         2 RES2    0.0000
     68 H28        4.2967   -0.3413    1.7749 H         2 RES2    0.0000
     69 H29        5.6399    0.6602    0.1945 H         2 RES2    0.0000
     70 H30        4.3424    1.4902    0.3728 H         2 RES2    0.0000
     71 H31        5.6652    1.9678    1.0272 H         2 RES2    0.0000
     72 H32        6.5078   -0.7146    2.0220 H         2 RES2    0.0000
     73 H33        6.6710    0.5789    2.8629 H         2 RES2    0.0000
     74 H34        5.8852   -0.6274    3.4403 H         2 RES2    0.0000
     75 H35        2.8251    2.1571    1.6695 H         2 RES2    0.0000
     76 H36        2.1866    2.2301    3.0817 H         2 RES2    0.0000
     77 H37        2.0869    0.9232    2.2510 H         2 RES2    0.0000
     78 H38        2.4047    1.9998    6.3052 H         2 RES2    0.0000
     79 H39        5.0920   -0.7041    7.5837 H         2 RES2    0.0000
     80 H40        1.4194    2.0170    8.3800 H         2 RES2    0.0000
     81 H41        4.1586   -0.6847    9.6848 H         2 RES2    0.0000
     82 H42        3.3188    0.3465   11.8507 H         2 RES2    0.0000
     83 H43        2.6535   -0.9202   11.2489 H         2 RES2    0.0000
     84 H44        1.8602   -0.0201   12.2336 H         2 RES2    0.0000
@<TRIPOS>BOND
     1    1    7 1
     2    2   12 2
     3    3   24 1
     4    4    9 1
     5    5   27 2
     6    6   39 1
     7    7   11 1
     8    8   11 1
     9    9   26 1
    10   10   26 1
    11   11   15 1
    12   12    8 1
    13   13    7 1
    14   14    8 1
    15   15   16 1
    16   16   47 1
    17   17   15 1
    18   18   11 1
    19   19   13 1
    20   20   19 ar
    21   21   19 ar
    22   22   20 ar
    23   23   21 ar
    24   24   22 ar
    25   25    3 1
    26   26   30 1
    27   27   10 1
    28   28    9 1
    29   29   10 1
    30   30   31 1
    31   31   69 1
    32   32   30 1
    33   33   26 1
    34   34   28 1
    35   35   34 ar
    36   36   34 ar
    37   37   35 ar
    38   38   36 ar
    39   39   37 ar
    40   40    6 1
    41   41    1 1
    42   42   13 1
    43   43   14 1
    44   44   14 1
    45   45   14 1
    46   46   15 1
    47   48   16 1
    48   49   16 1
    49   50   17 1
    50   51   17 1
    51   52   17 1
    52   53   18 1
    53   54   18 1
    54   55   18 1
    55   56   20 1
    56   57   21 1
    57   58   22 1
    58   59   23 1
    59   60   25 1
    60   61   25 1
    61   62   25 1
    62   63    4 1
    63   64   28 1
    64   65   29 1
    65   66   29 1
    66   67   29 1
    67   68   30 1
    68   70   31 1
    69   71   31 1
    70   72   32 1
    71   73   32 1
    72   74   32 1
    73   75   33 1
    74   76   33 1
    75   77   33 1
    76   78   35 1
    77   79   36 1
    78   80   37 1
    79   81   38 1
    80   82   40 1
    81   83   40 1
    82   84   40 1
    83   12   13 1
    84   23   24 ar
    85   27   28 1
    86   38   39 ar
@<TRIPOS>SUBSTRUCTURE
     1 RES1 1
     2 RES2 4

@<TRIPOS>CRYSIN
  10.4480    7.4510   20.4420  90.0000  97.6300  90.0000   4 1

