# MOL2 file generated by ConQuest
# Please check atom types

@<TRIPOS>MOLECULE
AZEJAR
    44    45     1
SMALL
NO_CHARGES
****
Generated from CSD

@<TRIPOS>ATOM
      1 O1         4.2663   -0.6120    2.4534 O.2       1 RES1    0.0000
      2 O2         3.3326    3.9640    2.7367 O.3       1 RES1    0.0000
      3 H1         3.7462    4.6712    2.5517 H         1 RES1    0.0000
      4 O3         8.9828    1.8689    7.3805 O.2       1 RES1    0.0000
      5 O4        10.0728    1.7959    5.4287 O.3       1 RES1    0.0000
      6 N1         3.5027    0.9527    0.9680 N.am      1 RES1    0.0000
      7 N2         3.9671    2.8603    2.0938 N.3       1 RES1    0.0000
      8 C1         3.1737    2.3900    0.9168 C.3       1 RES1    0.0000
      9 C2         4.0737    1.7601    3.0609 C.3       1 RES1    0.0000
     10 C3         3.9664    0.5411    2.1563 C.2       1 RES1    0.0000
     11 C4         3.7544    3.0371   -0.3278 C.3       1 RES1    0.0000
     12 H2         3.7999    4.0077   -0.2008 H         1 RES1    0.0000
     13 H3         3.1825    2.8352   -1.0979 H         1 RES1    0.0000
     14 H4         4.6556    2.6864   -0.4891 H         1 RES1    0.0000
     15 C5         1.6167    2.5532    0.9657 C.3       1 RES1    0.0000
     16 C6         1.1320    3.9712    0.6473 C.3       1 RES1    0.0000
     17 H5         1.5058    4.5990    1.3008 H         1 RES1    0.0000
     18 H6         0.1532    3.9998    0.6900 H         1 RES1    0.0000
     19 H7         1.4273    4.2224   -0.2529 H         1 RES1    0.0000
     20 C7         0.9674    2.0293    2.2395 C.3       1 RES1    0.0000
     21 H8         1.2704    1.1123    2.4071 H         1 RES1    0.0000
     22 H9        -0.0067    2.0371    2.1365 H         1 RES1    0.0000
     23 H10        1.2207    2.5997    2.9940 H         1 RES1    0.0000
     24 C8         3.2667    0.0515   -0.1603 C.3       1 RES1    0.0000
     25 H11        4.1248   -0.2877   -0.4922 H         1 RES1    0.0000
     26 H12        2.8098    0.5383   -0.8773 H         1 RES1    0.0000
     27 H13        2.7097   -0.6993    0.1322 H         1 RES1    0.0000
     28 C9         5.3558    1.8160    3.8651 C.ar      1 RES1    0.0000
     29 C10        6.5915    1.7558    3.2252 C.ar      1 RES1    0.0000
     30 C11        7.7694    1.7737    3.9501 C.ar      1 RES1    0.0000
     31 C12        7.7269    1.8482    5.3393 C.ar      1 RES1    0.0000
     32 C13        6.4987    1.9269    5.9790 C.ar      1 RES1    0.0000
     33 C14        5.3170    1.9147    5.2476 C.ar      1 RES1    0.0000
     34 C15        8.9659    1.8417    6.1755 C.2       1 RES1    0.0000
     35 C16       11.3370    1.7923    6.1399 C.3       1 RES1    0.0000
     36 H14       12.0648    1.6062    5.5114 H         1 RES1    0.0000
     37 H15       11.3199    1.1002    6.8340 H         1 RES1    0.0000
     38 H16       11.4801    2.6685    6.5562 H         1 RES1    0.0000
     39 H17        3.2845    1.6678    3.6642 H         1 RES1    0.0000
     40 H18        1.3877    1.9756    0.1977 H         1 RES1    0.0000
     41 H19        6.6483    1.6606    2.2687 H         1 RES1    0.0000
     42 H20        8.6269    1.7036    3.5060 H         1 RES1    0.0000
     43 H21        6.4845    1.9899    6.9516 H         1 RES1    0.0000
     44 H22        4.4143    2.0328    5.7736 H         1 RES1    0.0000
@<TRIPOS>BOND
     1    1   10 2
     2    2    3 1
     3    4   34 2
     4    5   34 1
     5    6    8 1
     6    7    2 1
     7    8    7 1
     8    9    7 1
     9   10    6 1
    10   11    8 1
    11   12   11 1
    12   13   11 1
    13   14   11 1
    14   15    8 1
    15   16   15 1
    16   17   16 1
    17   18   16 1
    18   19   16 1
    19   20   15 1
    20   21   20 1
    21   22   20 1
    22   23   20 1
    23   24    6 1
    24   25   24 1
    25   26   24 1
    26   27   24 1
    27   28    9 1
    28   29   28 ar
    29   30   29 ar
    30   31   30 ar
    31   32   31 ar
    32   33   28 ar
    33   34   31 1
    34   35    5 1
    35   36   35 1
    36   37   35 1
    37   38   35 1
    38   39    9 1
    39   40   15 1
    40   41   29 1
    41   42   30 1
    42   43   32 1
    43   44   33 1
    44    9   10 1
    45   32   33 ar
@<TRIPOS>SUBSTRUCTURE
     1 RES1 1

@<TRIPOS>CRYSIN
  10.8777    7.1579   11.0375  90.0000 109.4650  90.0000   4 1

