# MOL2 file generated by ConQuest
# Please check atom types

@<TRIPOS>MOLECULE
AZEJEU
    46    50     1
SMALL
NO_CHARGES
****
Generated from CSD

@<TRIPOS>ATOM
      1 O1         4.0333    3.4112    2.3949 O.2       1 RES1    0.0000
      2 O2        -0.8689    9.5164    1.7315 O.2       1 RES1    0.0000
      3 O3        -1.1919    9.3036   -0.3784 O.2       1 RES1    0.0000
      4 N1         0.9483    3.5750    0.8310 N.ar      1 RES1    0.0000
      5 N2         0.8877    5.0944    3.1876 N.ar      1 RES1    0.0000
      6 N3        -0.8423    8.8652    0.6969 N.pl3     1 RES1    0.0000
      7 N4         3.2321    1.3343    2.0380 N.am      1 RES1    0.0000
      8 N5         1.1230    0.7299    1.5303 N.2       1 RES1    0.0000
      9 C1         1.3882    3.1026    1.9602 C.ar      1 RES1    0.0000
     10 C2         1.3062    3.8730    3.1947 C.ar      1 RES1    0.0000
     11 C3         0.4627    5.6371    1.9889 C.ar      1 RES1    0.0000
     12 C4         0.0339    6.9649    1.9350 C.ar      1 RES1    0.0000
     13 C5        -0.4207    7.4523    0.7628 C.ar      1 RES1    0.0000
     14 C6        -0.4892    6.6798   -0.4083 C.ar      1 RES1    0.0000
     15 C7         0.4617    4.8391    0.8202 C.ar      1 RES1    0.0000
     16 C8        -0.0678    5.4009   -0.3796 C.ar      1 RES1    0.0000
     17 C9         1.8965    1.7003    1.8764 C.2       1 RES1    0.0000
     18 C10        1.9519   -0.3979    1.4669 C.ar      1 RES1    0.0000
     19 C11        1.5975   -1.6981    1.1076 C.ar      1 RES1    0.0000
     20 C12        2.5917   -2.6217    1.0238 C.ar      1 RES1    0.0000
     21 C13        3.9114   -2.2855    1.2944 C.ar      1 RES1    0.0000
     22 C14        3.2735   -0.0511    1.7602 C.ar      1 RES1    0.0000
     23 C15        4.2708   -1.0129    1.6584 C.ar      1 RES1    0.0000
     24 C16        1.6523    3.3112    4.5383 C.ar      1 RES1    0.0000
     25 C17        1.3750    2.0110    4.9143 C.ar      1 RES1    0.0000
     26 C18        1.6175    1.5896    6.2063 C.ar      1 RES1    0.0000
     27 C19        2.1225    2.4855    7.1463 C.ar      1 RES1    0.0000
     28 C20        2.3918    3.7687    6.7870 C.ar      1 RES1    0.0000
     29 C21        2.1644    4.1922    5.4938 C.ar      1 RES1    0.0000
     30 C22        4.2860    2.2323    2.3122 C.2       1 RES1    0.0000
     31 C23        5.6298    1.6896    2.4811 C.3       1 RES1    0.0000
     32 H1         0.0492    7.5182    2.7146 H         1 RES1    0.0000
     33 H2        -0.8350    7.0564   -1.2106 H         1 RES1    0.0000
     34 H3        -0.1113    4.8689   -1.1603 H         1 RES1    0.0000
     35 H4         0.6925   -1.9322    0.9352 H         1 RES1    0.0000
     36 H5         2.3841   -3.5133    0.7831 H         1 RES1    0.0000
     37 H6         4.5854   -2.9515    1.2166 H         1 RES1    0.0000
     38 H7         5.1828   -0.8001    1.8369 H         1 RES1    0.0000
     39 H8         1.0143    1.4024    4.2832 H         1 RES1    0.0000
     40 H9         1.4814    0.6852    6.4541 H         1 RES1    0.0000
     41 H10        2.2655    2.2067    8.0395 H         1 RES1    0.0000
     42 H11        2.7387    4.3752    7.4265 H         1 RES1    0.0000
     43 H12        2.3402    5.0987    5.2531 H         1 RES1    0.0000
     44 H13        5.6104    0.7320    2.3793 H         1 RES1    0.0000
     45 H14        6.2213    2.0493    1.8333 H         1 RES1    0.0000
     46 H15        5.9567    1.8897    3.3540 H         1 RES1    0.0000
@<TRIPOS>BOND
     1    1   30 2
     2    2    6 2
     3    3    6 2
     4    4    9 ar
     5    5   10 ar
     6    6   13 1
     7    7   17 1
     8    8   17 2
     9    9   10 ar
    10   10   24 1
    11   11    5 ar
    12   12   11 ar
    13   13   12 ar
    14   14   13 ar
    15   15    4 ar
    16   16   14 ar
    17   17    9 1
    18   18    8 1
    19   19   18 ar
    20   20   19 ar
    21   21   20 ar
    22   22    7 1
    23   23   21 ar
    24   24   25 ar
    25   25   26 ar
    26   26   27 ar
    27   27   28 ar
    28   28   29 ar
    29   29   24 ar
    30   30    7 1
    31   31   30 1
    32   32   12 1
    33   33   14 1
    34   34   16 1
    35   35   19 1
    36   36   20 1
    37   37   21 1
    38   38   23 1
    39   39   25 1
    40   40   26 1
    41   41   27 1
    42   42   28 1
    43   43   29 1
    44   44   31 1
    45   45   31 1
    46   46   31 1
    47   11   15 ar
    48   15   16 ar
    49   18   22 ar
    50   22   23 ar
@<TRIPOS>SUBSTRUCTURE
     1 RES1 1

@<TRIPOS>CRYSIN
   7.4870   21.2800   12.2450  90.0000 102.0700  90.0000  14 1

