# MOL2 file generated by ConQuest
# Please check atom types

@<TRIPOS>MOLECULE
AZFOXM
    12    11     1
SMALL
NO_CHARGES
****
Generated from CSD

@<TRIPOS>ATOM
      1 N1         2.8895    4.1964    2.6289 N.2       1 RES1    0.0000
      2 N2         1.5083    3.1397    1.2196 N.2       1 RES1    0.0000
      3 C1         1.9148    4.2840    1.6428 C.2       1 RES1    0.0000
      4 O1         0.5562    3.2730    0.2484 O.3       1 RES1    0.0000
      5 H1         1.5697    5.0837    1.3590 H         1 RES1    0.0000
      6 H2         0.3192    2.5133    0.0856 H         1 RES1    0.0000
      7 N1B        3.2571    5.3236    3.0811 N.2       1 RES1    0.0000
      8 C1B        4.2318    5.2360    4.0672 C.2       1 RES1    0.0000
      9 N2B        4.6383    6.3803    4.4903 N.2       1 RES1    0.0000
     10 H1B        4.5769    4.4363    4.3510 H         1 RES1    0.0000
     11 O1B        5.5904    6.2470    5.4616 O.3       1 RES1    0.0000
     12 H2B        5.8274    7.0067    5.6243 H         1 RES1    0.0000
@<TRIPOS>BOND
     1    1    3 1
     2    2    3 2
     3    3    5 1
     4    4    2 1
     5    6    4 1
     6    7    1 2
     7    8    7 1
     8    9    8 2
     9   10    8 1
    10   11    9 1
    11   12   11 1
@<TRIPOS>SUBSTRUCTURE
     1 RES1 1

@<TRIPOS>CRYSIN
   4.4510    9.5200    6.3400  90.0000 115.7600  90.0000  14 1

