# MOL2 file generated by ConQuest
# Please check atom types

@<TRIPOS>MOLECULE
AZIGAR
    28    28     1
SMALL
NO_CHARGES
****
Generated from CSD

@<TRIPOS>ATOM
      1 O1         1.9375    2.0534    1.8466 O.3       1 RES1    0.0000
      2 O2         3.4696    4.1313    2.5019 O.3       1 RES1    0.0000
      3 O3         1.0158    3.2677    0.0968 O.3       1 RES1    0.0000
      4 C1         0.8660    2.3815    2.7160 C.3       1 RES1    0.0000
      5 H1         1.1049    3.1653    3.2361 H         1 RES1    0.0000
      6 H2         0.7186    1.6475    3.3327 H         1 RES1    0.0000
      7 C2        -0.1071    3.6594    0.8776 C.3       1 RES1    0.0000
      8 H3        -0.8820    3.7499    0.3014 H         1 RES1    0.0000
      9 H4         0.0685    4.5237    1.2808 H         1 RES1    0.0000
     10 C3        -0.4057    2.6568    1.9606 C.3       1 RES1    0.0000
     11 O4        -1.5711    1.4395    0.3101 O.2       1 RES1    0.0000
     12 O5         2.5160    5.4039    0.9527 O.2       1 RES1    0.0000
     13 N1        -0.9019    1.3586    1.3108 N.pl3     1 RES1    0.0000
     14 C4         2.1741    3.0134    0.8503 C.3       1 RES1    0.0000
     15 C5         2.7103    4.3318    1.4369 C.2       1 RES1    0.0000
     16 O6        -0.6879    0.3175    1.8742 O.2       1 RES1    0.0000
     17 C6        -1.5376    3.1030    2.8679 C.3       1 RES1    0.0000
     18 H5        -1.2867    3.9125    3.3185 H         1 RES1    0.0000
     19 H6        -1.7162    2.4181    3.5163 H         1 RES1    0.0000
     20 H7        -2.3259    3.2599    2.3426 H         1 RES1    0.0000
     21 C7         3.2011    2.4271   -0.0811 C.3       1 RES1    0.0000
     22 H8         2.8751    1.5965   -0.4356 H         1 RES1    0.0000
     23 H9         4.0170    2.2714    0.4002 H         1 RES1    0.0000
     24 H10        3.3673    3.0399   -0.8017 H         1 RES1    0.0000
     25 C8         4.0882    5.3044    3.0914 C.3       1 RES1    0.0000
     26 H11        4.6772    5.7110    2.4521 H         1 RES1    0.0000
     27 H12        4.5895    5.0456    3.8683 H         1 RES1    0.0000
     28 H13        3.4073    5.9320    3.3444 H         1 RES1    0.0000
@<TRIPOS>BOND
     1    1    4 1
     2    2   15 1
     3    3    7 1
     4    4    5 1
     5    6    4 1
     6    7    8 1
     7    9    7 1
     8   10    4 1
     9   11   13 2
    10   12   15 2
    11   13   10 1
    12   14    1 1
    13   15   14 1
    14   16   13 2
    15   17   10 1
    16   18   17 1
    17   19   17 1
    18   20   17 1
    19   21   14 1
    20   22   21 1
    21   23   21 1
    22   24   21 1
    23   25    2 1
    24   26   25 1
    25   27   25 1
    26   28   25 1
    27    3   14 1
    28    7   10 1
@<TRIPOS>SUBSTRUCTURE
     1 RES1 1

@<TRIPOS>CRYSIN
   8.3538   10.6290   11.7773  90.0000  91.7200  90.0000  14 1

