# MOL2 file generated by ConQuest
# Please check atom types

@<TRIPOS>MOLECULE
AZILOM
    56    58     2
SMALL
NO_CHARGES
****
Generated from CSD

@<TRIPOS>ATOM
      1 O1         0.2706    5.5087    4.0746 O.3       1 RES1    0.0000
      2 O2         1.4212    3.7435    1.2245 O.2       1 RES1    0.0000
      3 O3         5.6625    1.1237    7.1543 O.2       1 RES1    0.0000
      4 O4         5.5585    3.1890    6.5077 O.2       1 RES1    0.0000
      5 N1         2.3325    3.9942    3.2935 N.am      1 RES1    0.0000
      6 H1         2.2550    4.3475    4.0736 H         1 RES1    0.0000
      7 N2         3.4415    3.2164    2.9919 N.2       1 RES1    0.0000
      8 N3         5.7148    1.9884    6.2975 N.pl3     1 RES1    0.0000
      9 C1        -0.9041    5.3293    2.2185 C.2       1 RES1    0.0000
     10 H2        -1.1661    5.0941    1.3573 H         1 RES1    0.0000
     11 C2        -1.6382    6.1117    3.1385 C.2       1 RES1    0.0000
     12 H3        -2.4763    6.4914    3.0028 H         1 RES1    0.0000
     13 C3        -0.8929    6.1977    4.2349 C.2       1 RES1    0.0000
     14 H4        -1.1322    6.6626    5.0041 H         1 RES1    0.0000
     15 C4         0.2315    4.9926    2.8194 C.2       1 RES1    0.0000
     16 C5         1.3846    4.1937    2.3723 C.2       1 RES1    0.0000
     17 C6         4.2049    2.9977    3.9785 C.2       1 RES1    0.0000
     18 H5         4.0138    3.3821    4.8035 H         1 RES1    0.0000
     19 C7         5.3816    2.1467    3.8298 C.ar      1 RES1    0.0000
     20 C8         5.8480    1.7798    2.5699 C.ar      1 RES1    0.0000
     21 H6         5.4466    2.1449    1.8143 H         1 RES1    0.0000
     22 C9         6.8814    0.8949    2.4146 C.ar      1 RES1    0.0000
     23 H7         7.1960    0.6936    1.5625 H         1 RES1    0.0000
     24 C10        7.4540    0.3047    3.5140 C.ar      1 RES1    0.0000
     25 H8         8.1292   -0.3230    3.4009 H         1 RES1    0.0000
     26 C11        7.0354    0.6341    4.7809 C.ar      1 RES1    0.0000
     27 H9         7.4152    0.2278    5.5259 H         1 RES1    0.0000
     28 C12        6.0445    1.5748    4.9242 C.ar      1 RES1    0.0000
     29 O5        13.0194    3.3372    7.6833 O.3       2 RES2    0.0000
     30 O6        11.2483    4.9340    8.9633 O.2       2 RES2    0.0000
     31 O7        10.2127   10.3338    6.2272 O.2       2 RES2    0.0000
     32 O8         9.0391   11.9534    6.5349 O.2       2 RES2    0.0000
     33 N4        11.9483    6.7513    7.7981 N.am      2 RES2    0.0000
     34 H10       12.4409    7.0551    7.1623 H         2 RES2    0.0000
     35 N5        11.1514    7.6005    8.5312 N.2       2 RES2    0.0000
     36 N6         9.6905   11.0978    6.9692 N.pl3     2 RES2    0.0000
     37 C13       13.9624    2.7983    6.8652 C.2       2 RES2    0.0000
     38 H11       14.2663    1.9198    6.9119 H         2 RES2    0.0000
     39 C14       14.3832    3.6840    6.0055 C.2       2 RES2    0.0000
     40 H12       15.0151    3.5541    5.3359 H         2 RES2    0.0000
     41 C15       13.6881    4.8809    6.2891 C.2       2 RES2    0.0000
     42 H13       13.7809    5.6917    5.8441 H         2 RES2    0.0000
     43 C16       12.8808    4.6311    7.3071 C.2       2 RES2    0.0000
     44 C17       11.9449    5.4318    8.0930 C.2       2 RES2    0.0000
     45 C18       11.1622    8.8111    8.1697 C.2       2 RES2    0.0000
     46 H14       11.6550    9.0811    7.4277 H         2 RES2    0.0000
     47 C19       10.3774    9.7884    8.9479 C.ar      2 RES2    0.0000
     48 C20       10.2898    9.6365   10.3234 C.ar      2 RES2    0.0000
     49 H15       10.7534    8.9411   10.7321 H         2 RES2    0.0000
     50 C21        9.5408   10.4838   11.1031 C.ar      2 RES2    0.0000
     51 H16        9.4850   10.3429   12.0216 H         2 RES2    0.0000
     52 C22        8.8778   11.5307   10.5330 C.ar      2 RES2    0.0000
     53 H17        8.3808   12.1117   11.0639 H         2 RES2    0.0000
     54 C23        8.9420   11.7274    9.1802 C.ar      2 RES2    0.0000
     55 H18        8.4885   12.4384    8.7866 H         2 RES2    0.0000
     56 C24        9.6842   10.8618    8.4065 C.ar      2 RES2    0.0000
@<TRIPOS>BOND
     1    1   13 1
     2    2   16 2
     3    3    8 2
     4    4    8 2
     5    5    6 1
     6    7    5 1
     7    8   28 1
     8    9   10 1
     9   11    9 1
    10   12   11 1
    11   13   11 2
    12   14   13 1
    13   15    1 1
    14   16    5 1
    15   17    7 2
    16   18   17 1
    17   19   17 1
    18   20   19 ar
    19   21   20 1
    20   22   20 ar
    21   23   22 1
    22   24   22 ar
    23   25   24 1
    24   26   24 ar
    25   27   26 1
    26   28   19 ar
    27   29   37 1
    28   30   44 2
    29   31   36 2
    30   32   36 2
    31   33   34 1
    32   35   33 1
    33   36   56 1
    34   37   38 1
    35   39   37 2
    36   40   39 1
    37   41   39 1
    38   42   41 1
    39   43   29 1
    40   44   33 1
    41   45   35 2
    42   46   45 1
    43   47   45 1
    44   48   47 ar
    45   49   48 1
    46   50   48 ar
    47   51   50 1
    48   52   50 ar
    49   53   52 1
    50   54   52 ar
    51   55   54 1
    52   56   47 ar
    53    9   15 2
    54   15   16 1
    55   26   28 ar
    56   41   43 2
    57   43   44 1
    58   54   56 ar
@<TRIPOS>SUBSTRUCTURE
     1 RES1 1
     2 RES2 29

@<TRIPOS>CRYSIN
  17.3618    9.1506   15.5801  90.0000 104.5320  90.0000  14 1

