# MOL2 file generated by ConQuest
# Please check atom types

@<TRIPOS>MOLECULE
AZILOM01
    56    58     2
SMALL
NO_CHARGES
****
Generated from CSD

@<TRIPOS>ATOM
      1 O1         4.4929    0.9293   10.9943 O.3       1 RES1    0.0000
      2 O2         3.3402   -0.8335   13.8398 O.2       1 RES1    0.0000
      3 N1         2.4251   -0.5742   11.7779 N.am      1 RES1    0.0000
      4 N2         1.3250   -1.3584   12.0781 N.2       1 RES1    0.0000
      5 O3        -0.8877   -3.4452    7.9186 O.2       1 RES1    0.0000
      6 C1        -0.6117   -2.4273   11.2407 C.ar      1 RES1    0.0000
      7 O4        -0.7863   -1.3866    8.5615 O.2       1 RES1    0.0000
      8 C2         3.3795   -0.3852   12.6984 C.2       1 RES1    0.0000
      9 C3        -1.2691   -2.9970   10.1485 C.ar      1 RES1    0.0000
     10 C4         4.5245    0.4108   12.2479 C.2       1 RES1    0.0000
     11 C5         5.6608    0.7486   12.8433 C.2       1 RES1    0.0000
     12 H1         5.9221    0.5121   13.7033 H         1 RES1    0.0000
     13 N3        -0.9474   -2.5862    8.7780 N.pl3     1 RES1    0.0000
     14 C6         0.5613   -1.5720   11.0913 C.2       1 RES1    0.0000
     15 H2         0.7490   -1.1831   10.2673 H         1 RES1    0.0000
     16 C7        -1.0801   -2.7861   12.4990 C.ar      1 RES1    0.0000
     17 H3        -0.6835   -2.4145   13.2529 H         1 RES1    0.0000
     18 C8         6.4011    1.5336   11.9318 C.2       1 RES1    0.0000
     19 H4         7.2397    1.9125   12.0689 H         1 RES1    0.0000
     20 C9        -2.2585   -3.9354   10.2944 C.ar      1 RES1    0.0000
     21 H5        -2.6352   -4.3425    9.5473 H         1 RES1    0.0000
     22 C10        5.6570    1.6203   10.8367 C.2       1 RES1    0.0000
     23 H6         5.8942    2.0886   10.0700 H         1 RES1    0.0000
     24 C11       -2.1087   -3.6707   12.6564 C.ar      1 RES1    0.0000
     25 H7        -2.4220   -3.8733   13.5090 H         1 RES1    0.0000
     26 C12       -2.6861   -4.2631   11.5538 C.ar      1 RES1    0.0000
     27 H8        -3.3655   -4.8875   11.6652 H         1 RES1    0.0000
     28 H9         2.5231   -0.3012   10.9361 H         1 RES1    0.0000
     29 O5         2.5567   -0.3560    8.9532 O.2       2 RES2    0.0000
     30 N4         2.4618   -3.0198    8.5196 N.2       2 RES2    0.0000
     31 N5         3.2577   -2.1690    7.7845 N.am      2 RES2    0.0000
     32 O6         4.3352    1.2351    7.6732 O.3       2 RES2    0.0000
     33 C13        3.2601   -0.8563    8.0857 C.2       2 RES2    0.0000
     34 C14        4.1929   -0.0575    7.2974 C.2       2 RES2    0.0000
     35 C15        1.0032   -6.2787    8.4070 C.ar      2 RES2    0.0000
     36 C16        2.4740   -4.2257    8.1649 C.2       2 RES2    0.0000
     37 H10        2.9696   -4.4968    7.4263 H         2 RES2    0.0000
     38 C17        5.0027   -0.3003    6.2830 C.2       2 RES2    0.0000
     39 H11        5.1007   -1.1110    5.8386 H         2 RES2    0.0000
     40 C18        1.6905   -5.1970    8.9381 C.ar      2 RES2    0.0000
     41 N6         1.0179   -6.5124    6.9609 N.pl3     2 RES2    0.0000
     42 C19        1.6028   -5.0454   10.3125 C.ar      2 RES2    0.0000
     43 H12        2.0647   -4.3471   10.7177 H         2 RES2    0.0000
     44 C20        5.6881    0.8928    6.0013 C.2       2 RES2    0.0000
     45 H13        6.3156    1.0233    5.3280 H         2 RES2    0.0000
     46 C21        0.2548   -7.1386    9.1782 C.ar      2 RES2    0.0000
     47 H14       -0.2020   -7.8470    8.7866 H         2 RES2    0.0000
     48 C22        0.8608   -5.8889   11.0928 C.ar      2 RES2    0.0000
     49 H15        0.8116   -5.7493   12.0102 H         2 RES2    0.0000
     50 C23        5.2790    1.7764    6.8554 C.2       2 RES2    0.0000
     51 H16        5.5856    2.6528    6.9036 H         2 RES2    0.0000
     52 C24        0.1909   -6.9360   10.5264 C.ar      2 RES2    0.0000
     53 H17       -0.3066   -7.5120   11.0597 H         2 RES2    0.0000
     54 O7         0.3520   -7.3596    6.5331 O.2       2 RES2    0.0000
     55 O8         1.5418   -5.7556    6.2258 O.2       2 RES2    0.0000
     56 H18        3.7805   -2.5469    7.1959 H         2 RES2    0.0000
@<TRIPOS>BOND
     1    1   10 1
     2    2    8 2
     3    3    4 1
     4    4   14 2
     5    5   13 2
     6    6    9 ar
     7    7   13 2
     8    8    3 1
     9    9   13 1
    10   10    8 1
    11   11   10 2
    12   12   11 1
    13   14    6 1
    14   15   14 1
    15   16    6 ar
    16   17   16 1
    17   18   11 1
    18   19   18 1
    19   20    9 ar
    20   21   20 1
    21   22    1 1
    22   23   22 1
    23   24   16 ar
    24   25   24 1
    25   26   20 ar
    26   27   26 1
    27   28    3 1
    28   29   33 2
    29   30   31 1
    30   31   33 1
    31   32   34 1
    32   33   34 1
    33   34   38 2
    34   35   40 ar
    35   36   30 2
    36   37   36 1
    37   38   39 1
    38   40   36 1
    39   41   35 1
    40   42   40 ar
    41   43   42 1
    42   44   38 1
    43   45   44 1
    44   46   35 ar
    45   47   46 1
    46   48   42 ar
    47   49   48 1
    48   50   32 1
    49   51   50 1
    50   52   46 ar
    51   53   52 1
    52   54   41 2
    53   55   41 2
    54   56   31 1
    55   18   22 2
    56   24   26 ar
    57   44   50 2
    58   48   52 ar
@<TRIPOS>SUBSTRUCTURE
     1 RES1 1
     2 RES2 29

@<TRIPOS>CRYSIN
  17.3441    9.1287   15.5631  90.0000 104.5560  90.0000  14 1

