# MOL2 file generated by ConQuest
# Please check atom types

@<TRIPOS>MOLECULE
AZIQUV
    28    29     1
SMALL
NO_CHARGES
****
Generated from CSD

@<TRIPOS>ATOM
      1 N1         1.2885    9.1705    7.3592 N.pl3     1 RES1    0.0000
      2 C1         1.1669    9.5595    5.9698 C.ar      1 RES1    0.0000
      3 C2         1.5804    8.7125    4.9663 C.ar      1 RES1    0.0000
      4 H1         1.9165    7.8806    5.2089 H         1 RES1    0.0000
      5 C3         1.4595    9.0903    3.6236 C.ar      1 RES1    0.0000
      6 H2         1.7617    8.4771    2.9357 H         1 RES1    0.0000
      7 C4         0.9384   10.3417    3.3170 C.ar      1 RES1    0.0000
      8 O1         0.7659   10.8136    2.0301 O.3       1 RES1    0.0000
      9 C5         1.0209    9.8744    0.9519 C.3       1 RES1    0.0000
     10 H3         0.4423    9.1094    1.0689 H         1 RES1    0.0000
     11 H4         1.9607    9.5923    0.8903 H         1 RES1    0.0000
     12 H5         0.8329   10.4039    0.0234 H         1 RES1    0.0000
     13 C6         0.5565   11.2131    4.3334 C.ar      1 RES1    0.0000
     14 H6         0.2138   12.0809    4.1450 H         1 RES1    0.0000
     15 C7         0.6575   10.8222    5.6640 C.ar      1 RES1    0.0000
     16 H7         0.3022   11.4785    6.3566 H         1 RES1    0.0000
     17 C8         1.6725   10.0310    8.3774 C.2       1 RES1    0.0000
     18 H8         1.8944   11.0494    8.1779 H         1 RES1    0.0000
     19 N2         1.6747    9.4437    9.5567 N.2       1 RES1    0.0000
     20 C9         1.2819    8.1531    9.2590 C.2       1 RES1    0.0000
     21 N3         1.1750    7.1835   10.2991 N.pl3     1 RES1    0.0000
     22 O2         0.9627    5.9983    9.9596 O.2       1 RES1    0.0000
     23 O3         1.2686    7.5339   11.4797 O.2       1 RES1    0.0000
     24 C10        1.0305    7.9356    7.9252 C.2       1 RES1    0.0000
     25 C11        0.5344    6.7487    7.1792 C.3       1 RES1    0.0000
     26 H9         1.2973    6.1689    6.8996 H         1 RES1    0.0000
     27 H10       -0.0885    6.2861    7.7469 H         1 RES1    0.0000
     28 H11        0.0663    7.0582    6.3135 H         1 RES1    0.0000
@<TRIPOS>BOND
     1    1    2 1
     2    2    3 ar
     3    3    4 1
     4    5    3 ar
     5    6    5 1
     6    7    5 ar
     7    8    7 1
     8    9    8 1
     9   10    9 1
    10   11    9 1
    11   12    9 1
    12   13    7 ar
    13   14   13 1
    14   15    2 ar
    15   16   15 1
    16   17    1 1
    17   18   17 1
    18   19   17 2
    19   20   19 1
    20   21   20 1
    21   22   21 2
    22   23   21 2
    23   24    1 1
    24   25   24 1
    25   26   25 1
    26   27   25 1
    27   28   25 1
    28   13   15 ar
    29   20   24 2
@<TRIPOS>SUBSTRUCTURE
     1 RES1 1

@<TRIPOS>CRYSIN
   7.3712   11.9530   12.3142  90.0000  90.0000  90.0000  19 1

