# MOL2 file generated by ConQuest
# Please check atom types

@<TRIPOS>MOLECULE
AZIQOP
    27    28     1
SMALL
NO_CHARGES
****
Generated from CSD

@<TRIPOS>ATOM
      1 N1         1.8299    6.8333    4.2977 N.pl3     1 RES1    0.0000
      2 C1         1.8559    8.0440    3.5122 C.ar      1 RES1    0.0000
      3 C2         0.6549    8.6830    3.2221 C.ar      1 RES1    0.0000
      4 H1        -0.1639    8.2841    3.5414 H         1 RES1    0.0000
      5 C3         0.6732    9.8392    2.4579 C.ar      1 RES1    0.0000
      6 H2        -0.1862   10.3106    2.2376 H         1 RES1    0.0000
      7 C4         1.8718   10.3760    1.9792 C.ar      1 RES1    0.0000
      8 C5         1.8753   11.6403    1.1590 C.3       1 RES1    0.0000
      9 H3         1.5162   12.4031    1.6280 H         1 RES1    0.0000
     10 H4         1.3397   11.5550    0.3533 H         1 RES1    0.0000
     11 H5         2.7788   11.8965    0.8244 H         1 RES1    0.0000
     12 C6         3.0588    9.7051    2.2814 C.ar      1 RES1    0.0000
     13 H6         3.9392   10.0727    1.9466 H         1 RES1    0.0000
     14 C7         3.0623    8.5429    3.0436 C.ar      1 RES1    0.0000
     15 H7         3.9030    8.0506    3.2373 H         1 RES1    0.0000
     16 C8         2.0816    5.5645    3.8297 C.2       1 RES1    0.0000
     17 H8         2.3772    5.4119    2.9234 H         1 RES1    0.0000
     18 N2         1.8523    4.6438    4.7314 N.2       1 RES1    0.0000
     19 C9         1.4289    5.3645    5.8248 C.2       1 RES1    0.0000
     20 N3         1.0243    4.7070    7.0286 N.pl3     1 RES1    0.0000
     21 O1         0.5083    5.4092    7.9141 O.2       1 RES1    0.0000
     22 O2         1.1866    3.4918    7.1346 O.2       1 RES1    0.0000
     23 C10        1.4086    6.7238    5.6047 C.2       1 RES1    0.0000
     24 C11        1.0989    7.8993    6.4630 C.3       1 RES1    0.0000
     25 H9         0.1039    8.0132    6.5396 H         1 RES1    0.0000
     26 H10        1.4716    7.7313    7.3571 H         1 RES1    0.0000
     27 H11        1.4960    8.7158    6.0755 H         1 RES1    0.0000
@<TRIPOS>BOND
     1    1    2 1
     2    2    3 ar
     3    3    4 1
     4    5    3 ar
     5    6    5 1
     6    7    5 ar
     7    8    7 1
     8    9    8 1
     9   10    8 1
    10   11    8 1
    11   12    7 ar
    12   13   12 1
    13   14    2 ar
    14   15   14 1
    15   16    1 1
    16   17   16 1
    17   18   16 2
    18   19   18 1
    19   20   19 1
    20   21   20 2
    21   22   20 2
    22   23    1 1
    23   24   23 1
    24   25   24 1
    25   26   24 1
    26   27   24 1
    27   12   14 ar
    28   19   23 2
@<TRIPOS>SUBSTRUCTURE
     1 RES1 1

@<TRIPOS>CRYSIN
   6.8507   22.0264    6.9303  90.0000  91.6100  90.0000  14 2

