# MOL2 file generated by ConQuest
# Please check atom types

@<TRIPOS>MOLECULE
AZIWUD
    39    41     1
SMALL
NO_CHARGES
****
Generated from CSD

@<TRIPOS>ATOM
      1 O1         1.9740    5.4080    2.2778 O.2       1 RES1    0.0000
      2 O2        -3.3601    8.5934    9.8815 O.2       1 RES1    0.0000
      3 O3        -3.9622    6.6531    9.1473 O.2       1 RES1    0.0000
      4 N1         0.5135    8.1654    4.9613 N.pl3     1 RES1    0.0000
      5 N2         1.8973    7.8158    3.2770 N.3       1 RES1    0.0000
      6 H1         2.2827    7.3788    2.6681 H         1 RES1    0.0000
      7 N3         0.4545    6.0333    3.9387 N.2       1 RES1    0.0000
      8 N4         0.2923    4.0242    2.9213 N.am      1 RES1    0.0000
      9 H2        -0.4674    3.9956    3.4059 H         1 RES1    0.0000
     10 N5        -3.2465    7.6527    9.0986 N.pl3     1 RES1    0.0000
     11 C1         0.9419    7.2391    4.0128 C.2       1 RES1    0.0000
     12 C2         2.1846    9.1815    3.6381 C.3       1 RES1    0.0000
     13 H3         1.9056    9.7956    2.9411 H         1 RES1    0.0000
     14 H4         3.1299    9.3076    3.8132 H         1 RES1    0.0000
     15 C3         1.3576    9.3725    4.9057 C.3       1 RES1    0.0000
     16 H5         1.9287    9.4330    5.6874 H         1 RES1    0.0000
     17 H6         0.8141   10.1738    4.8492 H         1 RES1    0.0000
     18 C4         0.9904    5.1901    2.9787 C.2       1 RES1    0.0000
     19 C5        -0.4076    7.9733    5.9864 C.ar      1 RES1    0.0000
     20 C6        -1.3927    6.9697    5.9490 C.ar      1 RES1    0.0000
     21 H7        -1.4273    6.3765    5.2329 H         1 RES1    0.0000
     22 C7        -2.3066    6.8678    6.9757 C.ar      1 RES1    0.0000
     23 H8        -2.9617    6.2083    6.9506 H         1 RES1    0.0000
     24 C8        -2.2512    7.7464    8.0451 C.ar      1 RES1    0.0000
     25 C9        -1.2831    8.7322    8.1173 C.ar      1 RES1    0.0000
     26 H9        -1.2451    9.3076    8.8469 H         1 RES1    0.0000
     27 C10       -0.3765    8.8433    7.0853 C.ar      1 RES1    0.0000
     28 H10        0.2700    9.5107    7.1188 H         1 RES1    0.0000
     29 C11        0.4953    2.9248    2.0611 C.ar      1 RES1    0.0000
     30 C12       -0.4210    1.8860    2.1258 C.ar      1 RES1    0.0000
     31 H11       -1.1234    1.9307    2.7330 H         1 RES1    0.0000
     32 C13       -0.3034    0.7875    1.3011 C.ar      1 RES1    0.0000
     33 H12       -0.9262    0.0992    1.3606 H         1 RES1    0.0000
     34 C14        0.7262    0.6961    0.3888 C.ar      1 RES1    0.0000
     35 H13        0.7927   -0.0340   -0.1830 H         1 RES1    0.0000
     36 C15        1.6442    1.7023    0.3459 C.ar      1 RES1    0.0000
     37 H14        2.3563    1.6391   -0.2494 H         1 RES1    0.0000
     38 C16        1.5477    2.8212    1.1660 C.ar      1 RES1    0.0000
     39 H15        2.1861    3.4959    1.1142 H         1 RES1    0.0000
@<TRIPOS>BOND
     1    1   18 2
     2    2   10 2
     3    3   10 2
     4    4   11 1
     5    5    6 1
     6    7   11 2
     7    8    9 1
     8   10   24 1
     9   11    5 1
    10   12    5 1
    11   13   12 1
    12   14   12 1
    13   15    4 1
    14   16   15 1
    15   17   15 1
    16   18    7 1
    17   19    4 1
    18   20   19 ar
    19   21   20 1
    20   22   20 ar
    21   23   22 1
    22   24   22 ar
    23   25   24 ar
    24   26   25 1
    25   27   19 ar
    26   28   27 1
    27   29    8 1
    28   30   29 ar
    29   31   30 1
    30   32   30 ar
    31   33   32 1
    32   34   32 ar
    33   35   34 1
    34   36   34 ar
    35   37   36 1
    36   38   29 ar
    37   39   38 1
    38    8   18 1
    39   12   15 1
    40   25   27 ar
    41   36   38 ar
@<TRIPOS>SUBSTRUCTURE
     1 RES1 1

@<TRIPOS>CRYSIN
   5.2582    9.7217   14.7605  90.0000  91.2290  90.0000   4 1

