# MOL2 file generated by ConQuest
# Please check atom types

@<TRIPOS>MOLECULE
AZONIN
    74    76     2
SMALL
NO_CHARGES
****
Generated from CSD

@<TRIPOS>ATOM
      1 O1         5.2272    9.8631    6.8095 O.3       1 RES1    0.0000
      2 H1         4.3606    9.9046    6.8966 H         1 RES1    0.0000
      3 O2         9.6780    5.5420   13.3049 O.3       1 RES1    0.0000
      4 H2        10.5025    5.6152   13.4750 H         1 RES1    0.0000
      5 O3         2.9102   10.1580    7.9396 O.2       1 RES1    0.0000
      6 O4         2.7514   10.6457   10.0404 O.2       1 RES1    0.0000
      7 O5        11.9592    6.7651   13.4972 O.2       1 RES1    0.0000
      8 O6        12.1040    8.9067   13.2742 O.2       1 RES1    0.0000
      9 N1         3.4233   10.3683    9.0548 N.pl3     1 RES1    0.0000
     10 N2        11.4439    7.8760   13.2655 N.pl3     1 RES1    0.0000
     11 C1         5.6700   10.0801    8.0588 C.ar      1 RES1    0.0000
     12 C2         4.8661   10.2967    9.1850 C.ar      1 RES1    0.0000
     13 C3         5.4206   10.4758   10.4619 C.ar      1 RES1    0.0000
     14 H3         4.8483   10.6063   11.2092 H         1 RES1    0.0000
     15 C4         6.7848   10.4653   10.6436 C.ar      1 RES1    0.0000
     16 C5         7.5965   10.2596    9.5045 C.ar      1 RES1    0.0000
     17 H4         8.5407   10.2439    9.6075 H         1 RES1    0.0000
     18 C6         7.0578   10.0820    8.2542 C.ar      1 RES1    0.0000
     19 H5         7.6346    9.9583    7.5105 H         1 RES1    0.0000
     20 C7         7.4591   10.6341   12.0109 C.3       1 RES1    0.0000
     21 C8         8.1549    9.3086   12.3411 C.ar      1 RES1    0.0000
     22 C9         9.4888    9.1899   12.6432 C.ar      1 RES1    0.0000
     23 H6        10.0463    9.9595   12.6323 H         1 RES1    0.0000
     24 C10       10.0345    7.9364   12.9677 C.ar      1 RES1    0.0000
     25 C11        9.2516    6.7726   12.9903 C.ar      1 RES1    0.0000
     26 C12        7.9015    6.9027   12.6511 C.ar      1 RES1    0.0000
     27 H7         7.3437    6.1331   12.6351 H         1 RES1    0.0000
     28 C13        7.3739    8.1301   12.3411 C.ar      1 RES1    0.0000
     29 H8         6.4526    8.1906   12.1189 H         1 RES1    0.0000
     30 C14        8.4374   11.8209   11.9382 C.3       1 RES1    0.0000
     31 H9         9.1232   11.6384   11.2622 H         1 RES1    0.0000
     32 H10        8.8643   11.9459   12.8109 H         1 RES1    0.0000
     33 H11        7.9470   12.6337   11.6947 H         1 RES1    0.0000
     34 C15        6.4475   10.9359   13.1290 C.3       1 RES1    0.0000
     35 H12        5.9664   11.7642   12.9197 H         1 RES1    0.0000
     36 H13        6.9225   11.0401   13.9801 H         1 RES1    0.0000
     37 H14        5.8086   10.1959   13.2002 H         1 RES1    0.0000
     38 O7         0.4622   -2.1081    4.2680 O.3       2 RES2    0.0000
     39 H15       -0.4055   -1.9857    4.0182 H         2 RES2    0.0000
     40 O8         5.2325    4.8447    8.0468 O.3       2 RES2    0.0000
     41 H16        6.0739    4.8591    7.9416 H         2 RES2    0.0000
     42 O9        -1.7053   -1.0624    3.3756 O.2       2 RES2    0.0000
     43 O10       -1.7295    0.9430    2.5838 O.2       2 RES2    0.0000
     44 O11        7.5103    4.5342    6.8874 O.2       2 RES2    0.0000
     45 O12        7.6357    3.8213    4.8528 O.2       2 RES2    0.0000
     46 N3        -1.1392    0.0192    3.1159 N.pl3     2 RES2    0.0000
     47 N4         6.9735    4.1306    5.8342 N.pl3     2 RES2    0.0000
     48 C16        0.9846   -0.8941    3.9847 C.ar      2 RES2    0.0000
     49 C17        0.2584    0.1765    3.4507 C.ar      2 RES2    0.0000
     50 C18        0.8465    1.4236    3.2128 C.ar      2 RES2    0.0000
     51 H17        0.3222    2.1353    2.8644 H         2 RES2    0.0000
     52 C19        2.1788    1.6254    3.4808 C.ar      2 RES2    0.0000
     53 C20        2.9132    0.5386    3.9919 C.ar      2 RES2    0.0000
     54 H18        3.8375    0.6557    4.1773 H         2 RES2    0.0000
     55 C21        2.3370   -0.6870    4.2324 C.ar      2 RES2    0.0000
     56 H19        2.8679   -1.3988    4.5707 H         2 RES2    0.0000
     57 C22        2.9052    2.9418    3.1836 C.3       2 RES2    0.0000
     58 C23        3.5914    3.4214    4.4689 C.ar      2 RES2    0.0000
     59 C24        4.9586    3.5425    4.5907 C.ar      2 RES2    0.0000
     60 H20        5.5184    3.3020    3.8620 H         2 RES2    0.0000
     61 C25        5.5316    4.0168    5.7800 C.ar      2 RES2    0.0000
     62 C26        4.7461    4.3778    6.8819 C.ar      2 RES2    0.0000
     63 C27        3.3592    4.2253    6.7608 C.ar      2 RES2    0.0000
     64 H21        2.7963    4.4453    7.4937 H         2 RES2    0.0000
     65 C28        2.8055    3.7611    5.5927 C.ar      2 RES2    0.0000
     66 H22        1.8619    3.6652    5.5390 H         2 RES2    0.0000
     67 C29        1.9443    4.0404    2.6990 C.3       2 RES2    0.0000
     68 H23        1.2504    4.1884    3.3750 H         2 RES2    0.0000
     69 H24        1.5262    3.7617    1.8584 H         2 RES2    0.0000
     70 H25        2.4438    4.8716    2.5560 H         2 RES2    0.0000
     71 C30        3.9005    2.6746    2.0420 C.3       2 RES2    0.0000
     72 H26        4.3743    3.5038    1.8208 H         2 RES2    0.0000
     73 H27        3.4146    2.3555    1.2529 H         2 RES2    0.0000
     74 H28        4.5467    1.9946    2.3244 H         2 RES2    0.0000
@<TRIPOS>BOND
     1    1    2 1
     2    3    4 1
     3    5    9 2
     4    6    9 2
     5    7   10 2
     6    8   10 2
     7    9   12 1
     8   10   24 1
     9   11    1 1
    10   12   11 ar
    11   13   12 ar
    12   14   13 1
    13   15   13 ar
    14   16   15 ar
    15   17   16 1
    16   18   11 ar
    17   19   18 1
    18   20   15 1
    19   21   20 1
    20   22   21 ar
    21   23   22 1
    22   24   22 ar
    23   25    3 1
    24   26   25 ar
    25   27   26 1
    26   28   21 ar
    27   29   28 1
    28   30   20 1
    29   31   30 1
    30   32   30 1
    31   33   30 1
    32   34   20 1
    33   35   34 1
    34   36   34 1
    35   37   34 1
    36   38   39 1
    37   40   41 1
    38   42   46 2
    39   43   46 2
    40   44   47 2
    41   45   47 2
    42   46   49 1
    43   47   61 1
    44   48   38 1
    45   49   48 ar
    46   50   49 ar
    47   51   50 1
    48   52   50 ar
    49   53   52 ar
    50   54   53 1
    51   55   48 ar
    52   56   55 1
    53   57   52 1
    54   58   57 1
    55   59   58 ar
    56   60   59 1
    57   61   59 ar
    58   62   40 1
    59   63   62 ar
    60   64   63 1
    61   65   58 ar
    62   66   65 1
    63   67   57 1
    64   68   67 1
    65   69   67 1
    66   70   67 1
    67   71   57 1
    68   72   71 1
    69   73   71 1
    70   74   71 1
    71   16   18 ar
    72   24   25 ar
    73   26   28 ar
    74   53   55 ar
    75   61   62 ar
    76   63   65 ar
@<TRIPOS>SUBSTRUCTURE
     1 RES1 1
     2 RES2 38

@<TRIPOS>CRYSIN
   8.3989   12.5738   15.3757  66.9670  76.5650  77.8330   2 1

