# MOL2 file generated by ConQuest
# Please check atom types

@<TRIPOS>MOLECULE
AZOVIV
    60    62     1
SMALL
NO_CHARGES
****
Generated from CSD

@<TRIPOS>ATOM
      1 O1         8.3679    2.1438   18.4615 O.3       1 RES1    0.0000
      2 O2         5.3580    2.4854   18.8776 O.3       1 RES1    0.0000
      3 O3         7.7285    4.1218   17.5993 O.2       1 RES1    0.0000
      4 O4         8.2442    1.1373   12.5787 O.3       1 RES1    0.0000
      5 O5         7.6644   -0.6352   13.8295 O.2       1 RES1    0.0000
      6 O6         4.7514    0.7052   17.6574 O.2       1 RES1    0.0000
      7 N1         5.9641    2.9416   15.8418 N.3       1 RES1    0.0000
      8 O7         2.4224    0.4240   10.0326 O.2       1 RES1    0.0000
      9 O8         1.7369   -0.6833   11.7364 O.2       1 RES1    0.0000
     10 C1         7.1651    0.9265   16.1219 C.3       1 RES1    0.0000
     11 H1         6.4851    0.2614   15.9326 H         1 RES1    0.0000
     12 H2         7.8878    0.5107   16.6180 H         1 RES1    0.0000
     13 N2         2.4809    0.1366   11.2214 N.pl3     1 RES1    0.0000
     14 C2         6.5073    2.5753   14.5200 C.3       1 RES1    0.0000
     15 H3         6.8622    3.3747   14.0775 H         1 RES1    0.0000
     16 C3         3.4881    0.7861   12.0592 C.ar      1 RES1    0.0000
     17 C4         4.4464    1.5875   11.4600 C.ar      1 RES1    0.0000
     18 H4         4.4400    1.7377   10.5414 H         1 RES1    0.0000
     19 C5         7.6186    2.9272   17.6753 C.2       1 RES1    0.0000
     20 C6         9.0580    2.2304   15.0712 C.ar      1 RES1    0.0000
     21 C7         4.2953    2.1970   19.8373 C.3       1 RES1    0.0000
     22 H5         4.3107    1.2587   20.0849 H         1 RES1    0.0000
     23 H6         3.4292    2.3993   19.4509 H         1 RES1    0.0000
     24 C8         6.5791    2.1160   16.8865 C.3       1 RES1    0.0000
     25 C9         7.6804    1.5798   14.8314 C.3       1 RES1    0.0000
     26 C10       10.0633    1.4352   15.6322 C.ar      1 RES1    0.0000
     27 H7         9.8800    0.5468   15.8366 H         1 RES1    0.0000
     28 C11        3.4521    0.5618   13.4257 C.ar      1 RES1    0.0000
     29 H8         2.7935    0.0241   13.8029 H         1 RES1    0.0000
     30 C12        4.5422    3.0551   21.0384 C.3       1 RES1    0.0000
     31 H9         4.5213    3.9795   20.7814 H         1 RES1    0.0000
     32 H10        5.4028    2.8465   21.4087 H         1 RES1    0.0000
     33 H11        3.8621    2.8903   21.6945 H         1 RES1    0.0000
     34 C13        9.4234    2.8403   19.1962 C.3       1 RES1    0.0000
     35 H12        9.0357    3.4764   19.8170 H         1 RES1    0.0000
     36 H13        9.9985    3.3211   18.5803 H         1 RES1    0.0000
     37 C14        4.4177    1.1565   14.2148 C.ar      1 RES1    0.0000
     38 H14        4.3998    1.0269   15.1357 H         1 RES1    0.0000
     39 C15        5.4192    1.9483   13.6513 C.ar      1 RES1    0.0000
     40 C16        9.3672    3.5476   14.7470 C.ar      1 RES1    0.0000
     41 H15        8.7184    4.0943   14.3677 H         1 RES1    0.0000
     42 C17       11.3232    1.9440   15.8873 C.ar      1 RES1    0.0000
     43 H16       11.9712    1.4041   16.2787 H         1 RES1    0.0000
     44 C18       11.6228    3.2582   15.5618 C.ar      1 RES1    0.0000
     45 H17       12.4707    3.6022   15.7273 H         1 RES1    0.0000
     46 C19        7.8528    0.5482   13.7190 C.2       1 RES1    0.0000
     47 C20       10.6444    4.0527   14.9879 C.ar      1 RES1    0.0000
     48 H18       10.8409    4.9330   14.7606 H         1 RES1    0.0000
     49 C21        5.4582    1.6578   17.8460 C.2       1 RES1    0.0000
     50 C22        5.4151    2.1577   12.2711 C.ar      1 RES1    0.0000
     51 H19        6.0747    2.6902   11.8875 H         1 RES1    0.0000
     52 C23        8.3247    0.2687   11.4239 C.3       1 RES1    0.0000
     53 H20        8.5920    0.7797   10.6575 H         1 RES1    0.0000
     54 H21        7.4656   -0.1269   11.2602 H         1 RES1    0.0000
     55 H22        8.9701   -0.4232   11.5884 H         1 RES1    0.0000
     56 C24       10.2112    1.8074   19.9396 C.3       1 RES1    0.0000
     57 H23       10.6372    1.2171   19.3125 H         1 RES1    0.0000
     58 H24        9.6224    1.3024   20.5046 H         1 RES1    0.0000
     59 H25       10.8791    2.2396   20.4778 H         1 RES1    0.0000
     60 H26        6.0669    3.8012   15.9773 H         1 RES1    0.0000
@<TRIPOS>BOND
     1    1   19 1
     2    2   21 1
     3    3   19 2
     4    4   46 1
     5    5   46 2
     6    6   49 2
     7    7   14 1
     8    8   13 2
     9    9   13 2
    10   10   11 1
    11   12   10 1
    12   13   16 1
    13   14   15 1
    14   16   17 ar
    15   17   18 1
    16   19   24 1
    17   20   25 1
    18   21   22 1
    19   23   21 1
    20   24    7 1
    21   25   10 1
    22   26   20 ar
    23   27   26 1
    24   28   16 ar
    25   29   28 1
    26   30   21 1
    27   31   30 1
    28   32   30 1
    29   33   30 1
    30   34    1 1
    31   35   34 1
    32   36   34 1
    33   37   28 ar
    34   38   37 1
    35   39   14 1
    36   40   20 ar
    37   41   40 1
    38   42   26 ar
    39   43   42 1
    40   44   42 ar
    41   45   44 1
    42   46   25 1
    43   47   40 ar
    44   48   47 1
    45   49    2 1
    46   50   17 ar
    47   51   50 1
    48   52    4 1
    49   53   52 1
    50   54   52 1
    51   55   52 1
    52   56   34 1
    53   57   56 1
    54   58   56 1
    55   59   56 1
    56   60    7 1
    57   10   24 1
    58   14   25 1
    59   24   49 1
    60   37   39 ar
    61   39   50 ar
    62   44   47 ar
@<TRIPOS>SUBSTRUCTURE
     1 RES1 1

@<TRIPOS>CRYSIN
   9.7948   10.9356   22.3240  90.0000  90.0000  90.0000  19 1

