# MOL2 file generated by ConQuest
# Please check atom types

@<TRIPOS>MOLECULE
AZOXPH04
    76    74     3
SMALL
NO_CHARGES
****
Generated from CSD

@<TRIPOS>ATOM
      1 N1        -0.4794    0.3363    0.2493 N.2       1 RES1    0.0000
      2 C1        -1.0405   -0.1325    1.4853 C.2       1 RES1    0.0000
      3 C2        -1.9620    0.7251    2.0592 C.2       1 RES1    0.0000
      4 C3        -2.5608    0.4123    3.2348 C.2       1 RES1    0.0000
      5 C4        -2.2785   -0.7810    3.8848 C.2       1 RES1    0.0000
      6 C5        -1.3653   -1.6617    3.3039 C.2       1 RES1    0.0000
      7 C6        -0.7690   -1.3347    2.1099 C.2       1 RES1    0.0000
      8 O1        -2.9158   -0.9831    5.0508 O.3       1 RES1    0.0000
      9 C7        -2.6595   -2.2031    5.7690 C.2       1 RES1    0.0000
     10 C8        -3.4622   -2.1255    7.0522 C.3       1 RES1    0.0000
     11 H1        -2.2084    1.6601    1.5588 H         1 RES1    0.0000
     12 H2        -3.2679    1.1010    3.6801 H         1 RES1    0.0000
     13 H3        -1.1282   -2.5950    3.7973 H         1 RES1    0.0000
     14 H4        -0.0876   -2.0338    1.6498 H         1 RES1    0.0000
     15 H5        -2.9718   -3.0449    5.1811 H         1 RES1    0.0000
     16 H6        -3.3034   -3.0356    7.6261 H         1 RES1    0.0000
     17 H7        -4.5135   -2.0431    6.8134 H         1 RES1    0.0000
     18 H8        -3.1498   -1.2778    7.6287 H         1 RES1    0.0000
     19 N2        -0.9618    4.8075    0.1347 N.2       2 RES2    0.0000
     20 C9        -1.3823    4.5299    1.4932 C.2       2 RES2    0.0000
     21 C10       -2.7437    4.4820    1.6690 C.2       2 RES2    0.0000
     22 C11       -3.2813    4.2190    2.8867 C.2       2 RES2    0.0000
     23 C12       -2.4649    4.0008    3.9880 C.2       2 RES2    0.0000
     24 C13       -1.0834    4.0886    3.8384 C.2       2 RES2    0.0000
     25 C14       -0.5561    4.3599    2.5936 C.2       2 RES2    0.0000
     26 O2        -3.1052    3.7190    5.1462 O.3       2 RES2    0.0000
     27 C15       -2.3393    3.5385    6.3314 C.2       2 RES2    0.0000
     28 C16       -3.2841    3.2308    7.4511 C.3       2 RES2    0.0000
     29 H9        -3.3995    4.6618    0.8284 H         2 RES2    0.0000
     30 H10       -4.3537    4.1802    2.9969 H         2 RES2    0.0000
     31 H11       -0.4342    3.9412    4.6939 H         2 RES2    0.0000
     32 H12        0.5140    4.4519    2.4782 H         2 RES2    0.0000
     33 H13       -1.6556    2.7145    6.2090 H         2 RES2    0.0000
     34 H14       -2.7336    3.0960    8.3670 H         2 RES2    0.0000
     35 H15       -3.8426    2.3382    7.2254 H         2 RES2    0.0000
     36 H16       -3.9721    4.0622    7.5683 H         2 RES2    0.0000
     37 O3        -1.1261    1.5785   -0.2904 Du        3 SUP3    0.0000
     38 O4        -2.1285    5.1614   -0.8179 Du        3 SUP3    0.0000
     39 H17       -1.4843   -3.9148    5.9964 Du        3 SUP3    0.0000
     40 H18       -2.1585    7.4842    0.6552 Du        3 SUP3    0.0000
     41 N1A        0.4794   -0.3363   -0.2493 N.2       1 RES1    0.0000
     42 C1A        1.0405    0.1325   -1.4853 C.2       1 RES1    0.0000
     43 C2A        1.9620   -0.7251   -2.0592 C.2       1 RES1    0.0000
     44 C3A        2.5608   -0.4123   -3.2348 C.2       1 RES1    0.0000
     45 C4A        2.2785    0.7810   -3.8848 C.2       1 RES1    0.0000
     46 C5A        1.3653    1.6617   -3.3039 C.2       1 RES1    0.0000
     47 C6A        0.7690    1.3347   -2.1099 C.2       1 RES1    0.0000
     48 H4A        0.0876    2.0338   -1.6498 H         1 RES1    0.0000
     49 H3A        1.1282    2.5950   -3.7973 H         1 RES1    0.0000
     50 O1A        2.9158    0.9831   -5.0508 O.3       1 RES1    0.0000
     51 C7A        2.6595    2.2031   -5.7690 C.2       1 RES1    0.0000
     52 C8A        3.4622    2.1255   -7.0522 C.3       1 RES1    0.0000
     53 H6A        3.3034    3.0356   -7.6261 H         1 RES1    0.0000
     54 H7A        4.5135    2.0431   -6.8134 H         1 RES1    0.0000
     55 H8A        3.1498    1.2778   -7.6287 H         1 RES1    0.0000
     56 H5A        2.9718    3.0449   -5.1811 H         1 RES1    0.0000
     57 H2A        3.2679   -1.1010   -3.6801 H         1 RES1    0.0000
     58 H1A        2.2084   -1.6601   -1.5588 H         1 RES1    0.0000
     59 N2A        0.2353    4.7218   -0.1347 N.2       2 RES2    0.0000
     60 C9A        0.6557    4.9994   -1.4932 C.2       2 RES2    0.0000
     61 C10A       2.0171    5.0474   -1.6690 C.2       2 RES2    0.0000
     62 C11A       2.5547    5.3104   -2.8867 C.2       2 RES2    0.0000
     63 C12A       1.7383    5.5285   -3.9880 C.2       2 RES2    0.0000
     64 C13A       0.3568    5.4408   -3.8384 C.2       2 RES2    0.0000
     65 C14A      -0.1705    5.1695   -2.5936 C.2       2 RES2    0.0000
     66 H12A      -1.2406    5.0774   -2.4782 H         2 RES2    0.0000
     67 H11A      -0.2924    5.5882   -4.6939 H         2 RES2    0.0000
     68 O2A        2.3787    5.8103   -5.1462 O.3       2 RES2    0.0000
     69 C15A       1.6127    5.9909   -6.3314 C.2       2 RES2    0.0000
     70 C16A       2.5576    6.2986   -7.4511 C.3       2 RES2    0.0000
     71 H14A       2.0071    6.4333   -8.3670 H         2 RES2    0.0000
     72 H15A       3.1160    7.1912   -7.2254 H         2 RES2    0.0000
     73 H16A       3.2456    5.4672   -7.5683 H         2 RES2    0.0000
     74 H13A       0.9291    6.8148   -6.2090 H         2 RES2    0.0000
     75 H10A       3.6272    5.3492   -2.9969 H         2 RES2    0.0000
     76 H9A        2.6729    4.8676   -0.8284 H         2 RES2    0.0000
@<TRIPOS>BOND
     1    1    2 1
     2    2    3 1
     3    3    4 1
     4    4    5 1
     5    5    6 1
     6    6    7 1
     7    7    2 1
     8    8    5 1
     9    9    8 1
    10   10    9 1
    11   11    3 1
    12   12    4 1
    13   13    6 1
    14   14    7 1
    15   15    9 1
    16   16   10 1
    17   17   10 1
    18   18   10 1
    19   19   20 1
    20   20   21 1
    21   21   22 1
    22   22   23 1
    23   23   24 1
    24   24   25 1
    25   25   20 1
    26   26   23 1
    27   27   26 1
    28   28   27 1
    29   29   21 1
    30   30   22 1
    31   31   24 1
    32   32   25 1
    33   33   27 1
    34   34   28 1
    35   35   28 1
    36   36   28 1
    37   41    1 1
    38   42   41 1
    39   43   42 1
    40   44   43 1
    41   45   44 1
    42   46   45 1
    43   47   42 1
    44   48   47 1
    45   49   46 1
    46   50   45 1
    47   51   50 1
    48   52   51 1
    49   53   52 1
    50   54   52 1
    51   55   52 1
    52   56   51 1
    53   57   44 1
    54   58   43 1
    55   59   19 1
    56   60   59 1
    57   61   60 1
    58   62   61 1
    59   63   62 1
    60   64   63 1
    61   65   60 1
    62   66   65 1
    63   67   64 1
    64   68   63 1
    65   69   68 1
    66   70   69 1
    67   71   70 1
    68   72   70 1
    69   73   70 1
    70   74   69 1
    71   75   62 1
    72   76   61 1
    73   46   47 1
    74   64   65 1
@<TRIPOS>SUBSTRUCTURE
     1 RES1 1
     2 RES2 19
     3 SUP3 37

@<TRIPOS>CRYSIN
   9.0140    9.5570    9.8610 117.4600  86.7800  94.3600   2 1

