# MOL2 file generated by ConQuest
# Please check atom types

@<TRIPOS>MOLECULE
AZOXOD
    41    42     1
SMALL
NO_CHARGES
****
Generated from CSD

@<TRIPOS>ATOM
      1 O1        10.7549   10.2738    8.7706 O.2       1 RES1    0.0000
      2 O2         9.7327    8.7821    7.6273 O.2       1 RES1    0.0000
      3 O3         8.5920   13.0546   11.9839 O.3       1 RES1    0.0000
      4 O4         6.4408   12.7158   12.4998 O.2       1 RES1    0.0000
      5 N1         7.2417    8.0937    8.1972 N.3       1 RES1    0.0000
      6 N2         4.1597    5.6302    6.3428 N.3       1 RES1    0.0000
      7 N3         4.7496    3.9825    4.9973 N.2       1 RES1    0.0000
      8 N4         9.7401    9.6429    8.5003 N.pl3     1 RES1    0.0000
      9 C1         4.0217    4.4745    7.0309 C.2       1 RES1    0.0000
     10 H1         3.7330    4.3829    7.9102 H         1 RES1    0.0000
     11 C2         4.3868    3.4802    6.1926 C.2       1 RES1    0.0000
     12 H2         4.3862    2.5763    6.4099 H         1 RES1    0.0000
     13 C3         4.5924    5.2790    5.1250 C.2       1 RES1    0.0000
     14 H3         4.7633    5.8880    4.4438 H         1 RES1    0.0000
     15 C4         3.8507    6.9823    6.8169 C.3       1 RES1    0.0000
     16 H4         3.3935    6.9216    7.6699 H         1 RES1    0.0000
     17 H5         3.2479    7.4084    6.1867 H         1 RES1    0.0000
     18 C5         5.0900    7.8449    6.9786 C.3       1 RES1    0.0000
     19 H6         4.8229    8.7429    7.2305 H         1 RES1    0.0000
     20 H7         5.5540    7.8988    6.1284 H         1 RES1    0.0000
     21 C6         6.0391    7.2916    8.0317 C.3       1 RES1    0.0000
     22 H8         5.5729    7.2436    8.8807 H         1 RES1    0.0000
     23 H9         6.2942    6.3892    7.7832 H         1 RES1    0.0000
     24 C7         7.3320    9.1763    8.9900 C.ar      1 RES1    0.0000
     25 C8         6.1779    9.6491    9.6791 C.ar      1 RES1    0.0000
     26 H10        5.3603    9.2331    9.5296 H         1 RES1    0.0000
     27 C9         6.2403   10.6988   10.5551 C.ar      1 RES1    0.0000
     28 H11        5.4627   10.9755   10.9842 H         1 RES1    0.0000
     29 C10        7.4383   11.3672   10.8237 C.ar      1 RES1    0.0000
     30 C11        8.5722   10.9803   10.1337 C.ar      1 RES1    0.0000
     31 H12        9.3748   11.4269   10.2792 H         1 RES1    0.0000
     32 C12        8.5220    9.9264    9.2221 C.ar      1 RES1    0.0000
     33 C13        7.4192   12.4391   11.8498 C.2       1 RES1    0.0000
     34 C14        8.6191   14.1346   12.9561 C.3       1 RES1    0.0000
     35 H13        8.6453   13.7730   13.8555 H         1 RES1    0.0000
     36 H14        7.8232   14.6817   12.8690 H         1 RES1    0.0000
     37 C15        9.8238   14.9487   12.7016 C.3       1 RES1    0.0000
     38 H15        9.8583   15.6731   13.3302 H         1 RES1    0.0000
     39 H16        9.7897   15.2999   11.8093 H         1 RES1    0.0000
     40 H17       10.6061   14.4017   12.8004 H         1 RES1    0.0000
     41 H18        7.9621    7.8591    7.7924 H         1 RES1    0.0000
@<TRIPOS>BOND
     1    1    8 2
     2    2    8 2
     3    3   33 1
     4    4   33 2
     5    5   21 1
     6    6    9 1
     7    7   11 1
     8    8   32 1
     9    9   10 1
    10   11    9 2
    11   12   11 1
    12   13    6 1
    13   14   13 1
    14   15    6 1
    15   16   15 1
    16   17   15 1
    17   18   15 1
    18   19   18 1
    19   20   18 1
    20   21   18 1
    21   22   21 1
    22   23   21 1
    23   24    5 1
    24   25   24 ar
    25   26   25 1
    26   27   25 ar
    27   28   27 1
    28   29   27 ar
    29   30   29 ar
    30   31   30 1
    31   32   24 ar
    32   33   29 1
    33   34    3 1
    34   35   34 1
    35   36   34 1
    36   37   34 1
    37   38   37 1
    38   39   37 1
    39   40   37 1
    40   41    5 1
    41    7   13 2
    42   30   32 ar
@<TRIPOS>SUBSTRUCTURE
     1 RES1 1

@<TRIPOS>CRYSIN
   8.4860    8.6175   11.7507  77.4890  81.7320  67.9770   2 1

