# MOL2 file generated by ConQuest
# Please check atom types

@<TRIPOS>MOLECULE
AZUVEX
    29    29     1
SMALL
NO_CHARGES
****
Generated from CSD

@<TRIPOS>ATOM
      1 O1         5.0273   -0.7588    3.3962 O.3       1 RES1    0.0000
      2 N1         5.9556    0.3043    3.4002 N.2       1 RES1    0.0000
      3 C1         7.9727    1.0348    2.2626 C.2       1 RES1    0.0000
      4 C2         9.0346    0.5401    1.5859 C.2       1 RES1    0.0000
      5 C3        10.2675    1.3577    1.3025 C.3       1 RES1    0.0000
      6 C4        10.3537    2.6376    2.1063 C.3       1 RES1    0.0000
      7 C5         9.0154    3.3219    2.1126 C.3       1 RES1    0.0000
      8 C6         7.9072    2.4830    2.7624 C.3       1 RES1    0.0000
      9 C7         6.8557    0.1291    2.5196 C.2       1 RES1    0.0000
     10 C8         9.1366   -0.8762    1.0620 C.3       1 RES1    0.0000
     11 C9         8.0659    2.5383    4.2847 C.3       1 RES1    0.0000
     12 C10        6.5717    3.1363    2.3695 C.3       1 RES1    0.0000
     13 H1         4.5124   -0.5739    4.0592 H         1 RES1    0.0000
     14 H2        10.2846    1.5805    0.3590 H         1 RES1    0.0000
     15 H3        11.0506    0.8178    1.4911 H         1 RES1    0.0000
     16 H4        10.6227    2.4361    3.0164 H         1 RES1    0.0000
     17 H5        11.0198    3.2254    1.7166 H         1 RES1    0.0000
     18 H6         8.7611    3.5242    1.1988 H         1 RES1    0.0000
     19 H7         9.0941    4.1623    2.5906 H         1 RES1    0.0000
     20 H8         6.7550   -0.6740    2.0386 H         1 RES1    0.0000
     21 H9         9.6450   -1.4089    1.6769 H         1 RES1    0.0000
     22 H10        9.5730   -0.8706    0.2066 H         1 RES1    0.0000
     23 H11        8.2560   -1.2471    0.9697 H         1 RES1    0.0000
     24 H12        7.3759    2.0132    4.6978 H         1 RES1    0.0000
     25 H13        7.9958    3.4483    4.5805 H         1 RES1    0.0000
     26 H14        8.9246    2.1869    4.5300 H         1 RES1    0.0000
     27 H15        5.8465    2.6399    2.7557 H         1 RES1    0.0000
     28 H16        6.4855    3.1379    1.4135 H         1 RES1    0.0000
     29 H17        6.5495    4.0395    2.6944 H         1 RES1    0.0000
@<TRIPOS>BOND
     1    1    2 1
     2    2    9 2
     3    3    4 2
     4    4    5 1
     5    5    6 1
     6    6    7 1
     7    7    8 1
     8    8    3 1
     9    9    3 1
    10   10    4 1
    11   11    8 1
    12   12    8 1
    13   13    1 1
    14   14    5 1
    15   15    5 1
    16   16    6 1
    17   17    6 1
    18   18    7 1
    19   19    7 1
    20   20    9 1
    21   21   10 1
    22   22   10 1
    23   23   10 1
    24   24   11 1
    25   25   11 1
    26   26   11 1
    27   27   12 1
    28   28   12 1
    29   29   12 1
@<TRIPOS>SUBSTRUCTURE
     1 RES1 1

@<TRIPOS>CRYSIN
   7.5670    7.7208    9.3072  81.2120  76.5900  71.3850   2 1

