# MOL2 file generated by ConQuest
# Please check atom types

@<TRIPOS>MOLECULE
AZUVOH
    30    31     1
SMALL
NO_CHARGES
****
Generated from CSD

@<TRIPOS>ATOM
      1 C1         2.2088   10.8740    5.7368 C.ar      1 RES1    0.0000
      2 C2         1.5487   12.0325    6.1795 C.ar      1 RES1    0.0000
      3 H1         1.4230   12.1789    7.1094 H         1 RES1    0.0000
      4 C3         1.0744   12.9745    5.2548 C.ar      1 RES1    0.0000
      5 H2         0.6119   13.7533    5.5431 H         1 RES1    0.0000
      6 C4         1.3026   12.7364    3.8955 C.ar      1 RES1    0.0000
      7 C5         1.9648   11.6059    3.4231 C.ar      1 RES1    0.0000
      8 H3         2.1018   11.4762    2.4925 H         1 RES1    0.0000
      9 C6         2.4235   10.6673    4.3530 C.ar      1 RES1    0.0000
     10 H4         2.8803    9.8888    4.0559 H         1 RES1    0.0000
     11 N1         0.7933   13.7376    2.9109 N.pl3     1 RES1    0.0000
     12 O1         1.1621   13.6260    1.7326 O.2       1 RES1    0.0000
     13 O2         0.0378   14.6253    3.3100 O.2       1 RES1    0.0000
     14 C7         2.7374    9.9424    6.8160 C.2       1 RES1    0.0000
     15 O3         2.9127   10.3601    7.9654 O.2       1 RES1    0.0000
     16 N2         3.0278    8.6499    6.4353 N.am      1 RES1    0.0000
     17 H5         2.8233    8.4337    5.6067 H         1 RES1    0.0000
     18 C8         3.6202    7.6220    7.2262 C.ar      1 RES1    0.0000
     19 C9         4.0582    7.8375    8.5457 C.ar      1 RES1    0.0000
     20 H6         3.9565    8.6831    8.9685 H         1 RES1    0.0000
     21 C10        4.6453    6.7645    9.2080 C.ar      1 RES1    0.0000
     22 C11        4.8356    5.5022    8.6551 C.ar      1 RES1    0.0000
     23 H7         5.2490    4.8013    9.1444 H         1 RES1    0.0000
     24 C12        4.3874    5.3161    7.3408 C.ar      1 RES1    0.0000
     25 H8         4.4953    4.4695    6.9246 H         1 RES1    0.0000
     26 C13        3.7876    6.3544    6.6386 C.ar      1 RES1    0.0000
     27 H9         3.4870    6.2065    5.7493 H         1 RES1    0.0000
     28 N3         5.1347    6.9916   10.5998 N.pl3     1 RES1    0.0000
     29 O4         4.7728    8.0180   11.1949 O.2       1 RES1    0.0000
     30 O5         5.8840    6.1538   11.0995 O.2       1 RES1    0.0000
@<TRIPOS>BOND
     1    1    2 ar
     2    2    3 1
     3    4    2 ar
     4    5    4 1
     5    6    4 ar
     6    7    6 ar
     7    8    7 1
     8    9    1 ar
     9   10    9 1
    10   11    6 1
    11   12   11 2
    12   13   11 2
    13   14    1 1
    14   15   14 2
    15   16   14 1
    16   17   16 1
    17   18   16 1
    18   19   18 ar
    19   20   19 1
    20   21   19 ar
    21   22   21 ar
    22   23   22 1
    23   24   22 ar
    24   25   24 1
    25   26   18 ar
    26   27   26 1
    27   28   21 1
    28   29   28 2
    29   30   28 2
    30    7    9 ar
    31   24   26 ar
@<TRIPOS>SUBSTRUCTURE
     1 RES1 1

@<TRIPOS>CRYSIN
   3.8878   21.6860    7.3919  90.0000  90.2940  90.0000   4 1

