# MOL2 file generated by ConQuest
# Please check atom types

@<TRIPOS>MOLECULE
AZUYUP
    82    90     2
SMALL
NO_CHARGES
****
Generated from CSD

@<TRIPOS>ATOM
      1 O1        -0.9909    2.7674    0.2550 O.2       1 RES1    0.0000
      2 O2         1.2034    4.1886    1.0029 O.3       1 RES1    0.0000
      3 O3         1.3649    5.8330    2.5195 O.2       1 RES1    0.0000
      4 O4         3.9968    9.7493   -2.5471 O.2       1 RES1    0.0000
      5 O5         3.9337    8.0501   -3.8638 O.2       1 RES1    0.0000
      6 N1         3.7390    8.5753   -2.7758 N.pl3     1 RES1    0.0000
      7 C1        -0.5288    1.0816    1.9142 C.3       1 RES1    0.0000
      8 H1        -1.3099    0.6236    1.5331 H         1 RES1    0.0000
      9 C2         0.7963    0.2528    1.7498 C.3       1 RES1    0.0000
     10 H2         0.6350   -0.5757    1.3715 H         1 RES1    0.0000
     11 C3         1.8509    0.9969    0.8997 C.3       1 RES1    0.0000
     12 H3         2.4936    0.3617    0.4412 H         1 RES1    0.0000
     13 H4         1.4652    1.6309    0.2079 H         1 RES1    0.0000
     14 C4         2.6051    1.7529    1.9858 C.3       1 RES1    0.0000
     15 H5         3.3176    2.2389    1.6527 H         1 RES1    0.0000
     16 C5         2.9268    0.6027    2.9320 C.3       1 RES1    0.0000
     17 H6         3.3363    0.8943    3.8050 H         1 RES1    0.0000
     18 H7         3.4346   -0.1106    2.5098 H         1 RES1    0.0000
     19 C6         1.4688    0.2291    3.1559 C.3       1 RES1    0.0000
     20 H8         1.2825   -0.5811    3.6973 H         1 RES1    0.0000
     21 C7         0.8783    1.5143    3.7254 C.3       1 RES1    0.0000
     22 H9         1.0963    1.6130    4.6067 H         1 RES1    0.0000
     23 C8         1.5993    2.5875    2.8240 C.3       1 RES1    0.0000
     24 H10        2.0761    3.2384    3.3458 H         1 RES1    0.0000
     25 C9         0.5778    3.3422    1.9842 C.3       1 RES1    0.0000
     26 H11        0.0447    3.9066    2.5531 H         1 RES1    0.0000
     27 C10       -0.3860    2.4106    1.2446 C.2       1 RES1    0.0000
     28 C11       -0.5987    1.3752    3.4199 C.3       1 RES1    0.0000
     29 H12       -1.1675    2.1411    3.6719 H         1 RES1    0.0000
     30 H13       -0.9733    0.6038    3.9082 H         1 RES1    0.0000
     31 C12        1.5457    5.4229    1.4018 C.2       1 RES1    0.0000
     32 C13        2.1401    6.2146    0.3008 C.ar      1 RES1    0.0000
     33 C14        2.4402    7.5510    0.5429 C.ar      1 RES1    0.0000
     34 H14        2.2556    7.9089    1.4373 H         1 RES1    0.0000
     35 C15        2.9640    8.3415   -0.4631 C.ar      1 RES1    0.0000
     36 H15        3.1663    9.2593   -0.3006 H         1 RES1    0.0000
     37 C16        3.1847    7.7576   -1.6924 C.ar      1 RES1    0.0000
     38 C17        2.8979    6.4405   -1.9641 C.ar      1 RES1    0.0000
     39 H16        3.0505    6.0899   -2.8373 H         1 RES1    0.0000
     40 C18        2.3648    5.6693   -0.9539 C.ar      1 RES1    0.0000
     41 H17        2.1266    4.8064   -1.1292 H         1 RES1    0.0000
     42 O6        -0.2720    8.5446    6.7832 O.2       2 RES2    0.0000
     43 O7         2.0244    8.0678    5.3008 O.3       2 RES2    0.0000
     44 O8         0.8378    9.0545    3.6674 O.2       2 RES2    0.0000
     45 O9         6.8064   12.3052    2.2646 O.2       2 RES2    0.0000
     46 O10        7.2221   12.3591    4.3684 O.2       2 RES2    0.0000
     47 N2         6.5290   12.0315    3.4202 N.pl3     2 RES2    0.0000
     48 C19       -0.3340    6.2292    7.4522 C.3       2 RES2    0.0000
     49 H18       -1.0577    6.4695    8.0183 H         2 RES2    0.0000
     50 C20        0.8910    5.7360    8.3182 C.3       2 RES2    0.0000
     51 H19        0.6160    5.6641    9.2747 H         2 RES2    0.0000
     52 C21        2.1362    6.6089    8.1181 C.3       2 RES2    0.0000
     53 H20        1.9447    7.5212    7.9750 H         2 RES2    0.0000
     54 H21        2.7119    6.5646    8.9038 H         2 RES2    0.0000
     55 C22        2.8159    5.8920    6.9670 C.3       2 RES2    0.0000
     56 H22        3.6572    6.2507    6.6677 H         2 RES2    0.0000
     57 C23        2.8557    4.4759    7.5263 C.3       2 RES2    0.0000
     58 H23        3.3703    4.4554    8.4207 H         2 RES2    0.0000
     59 H24        3.1596    3.7720    6.8951 H         2 RES2    0.0000
     60 C24        1.3338    4.3843    7.6851 C.3       2 RES2    0.0000
     61 H25        1.0103    3.5589    8.1096 H         2 RES2    0.0000
     62 C25        0.8371    4.6031    6.2614 C.3       2 RES2    0.0000
     63 H26        0.9272    3.8033    5.6821 H         2 RES2    0.0000
     64 C26        1.8071    5.7459    5.7902 C.3       2 RES2    0.0000
     65 H27        2.2680    5.5168    4.9687 H         2 RES2    0.0000
     66 C27        1.0471    7.0235    5.4918 C.3       2 RES2    0.0000
     67 H28        0.5073    6.9580    4.7039 H         2 RES2    0.0000
     68 C28        0.0900    7.4067    6.6208 C.2       2 RES2    0.0000
     69 C29       -0.5857    5.0827    6.4778 C.3       2 RES2    0.0000
     70 H29       -1.0660    4.3774    6.8891 H         2 RES2    0.0000
     71 H30       -1.0779    5.4061    5.6477 H         2 RES2    0.0000
     72 C30        1.8338    8.9705    4.3301 C.2       2 RES2    0.0000
     73 C31        3.0448    9.8133    4.1489 C.ar      2 RES2    0.0000
     74 C32        3.1359   10.5991    3.0086 C.ar      2 RES2    0.0000
     75 H31        2.4619   10.6363    2.3766 H         2 RES2    0.0000
     76 C33        4.2839   11.3176    2.7485 C.ar      2 RES2    0.0000
     77 H32        4.4023   11.8174    1.9698 H         2 RES2    0.0000
     78 C34        5.2999   11.2756    3.6798 C.ar      2 RES2    0.0000
     79 C35        5.2274   10.5441    4.8373 C.ar      2 RES2    0.0000
     80 H33        5.9259   10.5338    5.4458 H         2 RES2    0.0000
     81 C36        4.0882    9.7924    5.0683 C.ar      2 RES2    0.0000
     82 H34        4.0543    9.2569    5.8556 H         2 RES2    0.0000
@<TRIPOS>BOND
     1    1   27 2
     2    2   25 1
     3    3   31 2
     4    4    6 2
     5    5    6 2
     6    6   37 1
     7    7    8 1
     8    9    7 1
     9   10    9 1
    10   11    9 1
    11   12   11 1
    12   13   11 1
    13   14   11 1
    14   15   14 1
    15   16   14 1
    16   17   16 1
    17   18   16 1
    18   19    9 1
    19   20   19 1
    20   21   19 1
    21   22   21 1
    22   23   14 1
    23   24   23 1
    24   25   23 1
    25   26   25 1
    26   27    7 1
    27   28    7 1
    28   29   28 1
    29   30   28 1
    30   31    2 1
    31   32   31 1
    32   33   32 ar
    33   34   33 1
    34   35   33 ar
    35   36   35 1
    36   37   35 ar
    37   38   37 ar
    38   39   38 1
    39   40   32 ar
    40   41   40 1
    41   42   68 2
    42   43   66 1
    43   44   72 2
    44   45   47 2
    45   46   47 2
    46   47   78 1
    47   48   49 1
    48   50   48 1
    49   51   50 1
    50   52   50 1
    51   53   52 1
    52   54   52 1
    53   55   52 1
    54   56   55 1
    55   57   55 1
    56   58   57 1
    57   59   57 1
    58   60   50 1
    59   61   60 1
    60   62   60 1
    61   63   62 1
    62   64   55 1
    63   65   64 1
    64   66   64 1
    65   67   66 1
    66   68   48 1
    67   69   48 1
    68   70   69 1
    69   71   69 1
    70   72   43 1
    71   73   72 1
    72   74   73 ar
    73   75   74 1
    74   76   74 ar
    75   77   76 1
    76   78   76 ar
    77   79   78 ar
    78   80   79 1
    79   81   73 ar
    80   82   81 1
    81   16   19 1
    82   21   23 1
    83   21   28 1
    84   25   27 1
    85   38   40 ar
    86   57   60 1
    87   62   64 1
    88   62   69 1
    89   66   68 1
    90   79   81 ar
@<TRIPOS>SUBSTRUCTURE
     1 RES1 1
     2 RES2 42

@<TRIPOS>CRYSIN
   7.0838   14.5357   16.0758  71.2490  78.0190  84.2310   2 1

