# MOL2 file generated by ConQuest
# Please check atom types

@<TRIPOS>MOLECULE
AZUZIE
    38    40     1
SMALL
NO_CHARGES
****
Generated from CSD

@<TRIPOS>ATOM
      1 O1         0.0016    7.8398    9.6147 O.3       1 RES1    0.0000
      2 O2         2.1000    8.4927   10.0421 O.2       1 RES1    0.0000
      3 O3        -5.9166    6.0751    5.7841 O.2       1 RES1    0.0000
      4 O4        -5.3178    8.0775    5.2353 O.2       1 RES1    0.0000
      5 N1        -5.1813    7.0507    5.8928 N.pl3     1 RES1    0.0000
      6 C1         1.3435    7.6138    9.7141 C.2       1 RES1    0.0000
      7 C2         1.6338    6.2093    9.3574 C.2       1 RES1    0.0000
      8 C3         0.3715    5.6189    8.7542 C.3       1 RES1    0.0000
      9 C4        -0.6925    6.5806    9.3975 C.3       1 RES1    0.0000
     10 H1        -0.9709    6.2080   10.2831 H         1 RES1    0.0000
     11 C5         2.8223    5.6715    9.5227 C.2       1 RES1    0.0000
     12 H2         3.5319    6.1893    9.8845 H         1 RES1    0.0000
     13 H3         2.9715    4.7645    9.2820 H         1 RES1    0.0000
     14 C6         0.4612    5.8455    7.2351 C.3       1 RES1    0.0000
     15 H4         1.1315    5.2417    6.8539 H         1 RES1    0.0000
     16 H5         0.7198    6.7742    7.0577 H         1 RES1    0.0000
     17 H6        -0.4111    5.6656    6.8267 H         1 RES1    0.0000
     18 C7         0.0913    4.1715    9.1318 C.ar      1 RES1    0.0000
     19 C8        -0.4361    3.2590    8.2242 C.ar      1 RES1    0.0000
     20 H7        -0.6252    3.5363    7.3363 H         1 RES1    0.0000
     21 C9        -0.6897    1.9498    8.6004 C.ar      1 RES1    0.0000
     22 H8        -1.0472    1.3388    7.9660 H         1 RES1    0.0000
     23 C10       -0.4304    1.5242    9.8840 C.ar      1 RES1    0.0000
     24 H9        -0.5875    0.6205   10.1313 H         1 RES1    0.0000
     25 C11        0.0623    2.4268   10.8059 C.ar      1 RES1    0.0000
     26 H10        0.2251    2.1461   11.6987 H         1 RES1    0.0000
     27 C12        0.3203    3.7394   10.4403 C.ar      1 RES1    0.0000
     28 H11        0.6556    4.3505   11.0849 H         1 RES1    0.0000
     29 C13       -1.9189    6.7993    8.5565 C.ar      1 RES1    0.0000
     30 C14       -2.0478    7.8928    7.7033 C.ar      1 RES1    0.0000
     31 H12       -1.3857    8.5745    7.7078 H         1 RES1    0.0000
     32 C15       -3.1323    7.9944    6.8514 C.ar      1 RES1    0.0000
     33 H13       -3.2266    8.7424    6.2740 H         1 RES1    0.0000
     34 C16       -4.0722    6.9878    6.8593 C.ar      1 RES1    0.0000
     35 C17       -3.9964    5.9080    7.7162 C.ar      1 RES1    0.0000
     36 H14       -4.6707    5.2397    7.7191 H         1 RES1    0.0000
     37 C18       -2.9144    5.8248    8.5712 C.ar      1 RES1    0.0000
     38 H15       -2.8482    5.0945    9.1755 H         1 RES1    0.0000
@<TRIPOS>BOND
     1    1    6 1
     2    2    6 2
     3    3    5 2
     4    4    5 2
     5    5   34 1
     6    6    7 1
     7    7    8 1
     8    8    9 1
     9    9    1 1
    10   10    9 1
    11   11    7 2
    12   12   11 1
    13   13   11 1
    14   14    8 1
    15   15   14 1
    16   16   14 1
    17   17   14 1
    18   18    8 1
    19   19   18 ar
    20   20   19 1
    21   21   19 ar
    22   22   21 1
    23   23   21 ar
    24   24   23 1
    25   25   23 ar
    26   26   25 1
    27   27   18 ar
    28   28   27 1
    29   29    9 1
    30   30   29 ar
    31   31   30 1
    32   32   30 ar
    33   33   32 1
    34   34   32 ar
    35   35   34 ar
    36   36   35 1
    37   37   29 ar
    38   38   37 1
    39   25   27 ar
    40   35   37 ar
@<TRIPOS>SUBSTRUCTURE
     1 RES1 1

@<TRIPOS>CRYSIN
  13.6632    9.8807   22.9010  90.0000  98.4910  90.0000  15 1

