# MOL2 file generated by ConQuest
# Please check atom types

@<TRIPOS>MOLECULE
BABKIY
    23    24     1
SMALL
USER_CHARGES
****
Generated from CSD

@<TRIPOS>ATOM
      1 O1         1.6171    7.2008    0.2701 O.2       1 RES1   -1.0000
      2 N1         1.7133    6.7004    1.4744 N.pl3     1 RES1    1.0000
      3 C1         1.3462    7.4509    2.5735 C.ar      1 RES1    0.0000
      4 C2         1.4146    6.8339    3.8217 C.ar      1 RES1    0.0000
      5 C3         1.8335    5.5368    3.9670 C.ar      1 RES1    0.0000
      6 C4         2.2254    4.8456    2.8467 C.ar      1 RES1    0.0000
      7 C5         2.1598    5.4367    1.6235 C.ar      1 RES1    0.0000
      8 N2        -0.1124   11.9222    3.7014 N.2       1 RES1    0.0000
      9 C6         0.1512   11.0976    2.7696 C.2       1 RES1    0.0000
     10 C7         0.6004    9.7672    3.1850 C.2       1 RES1    0.0000
     11 C8         0.6151    9.8283    4.6889 C.3       1 RES1    0.0000
     12 C9         0.0893   11.2459    4.9796 C.3       1 RES1    0.0000
     13 C10        0.9080    8.8018    2.3078 C.2       1 RES1    0.0000
     14 H1         1.1666    7.3194    4.5993 H         1 RES1    0.0000
     15 H2         1.9312    5.1328    4.8123 H         1 RES1    0.0000
     16 H3         2.6147    4.0210    2.8385 H         1 RES1    0.0000
     17 H4         2.4455    4.9846    0.9399 H         1 RES1    0.0000
     18 H5         0.0271   11.2662    1.7921 H         1 RES1    0.0000
     19 H6         0.0708    9.0797    5.0066 H         1 RES1    0.0000
     20 H7         1.5351    9.7097    4.9815 H         1 RES1    0.0000
     21 H8        -0.8201   11.1736    5.4202 H         1 RES1    0.0000
     22 H9         0.7182   11.7110    5.3951 H         1 RES1    0.0000
     23 H10        0.7672    9.0426    1.4099 H         1 RES1    0.0000
@<TRIPOS>BOND
     1    1    2 1
     2    2    3 ar
     3    3    4 ar
     4    4    5 ar
     5    5    6 ar
     6    6    7 ar
     7    7    2 ar
     8    8    9 2
     9    9   10 1
    10   10   11 1
    11   11   12 1
    12   12    8 1
    13   13    3 1
    14   14    4 1
    15   15    5 1
    16   16    6 1
    17   17    7 1
    18   18    9 1
    19   19   11 1
    20   20   11 1
    21   21   12 1
    22   22   12 1
    23   23   13 1
    24   10   13 2
@<TRIPOS>SUBSTRUCTURE
     1 RES1 1

@<TRIPOS>CRYSIN
   7.3910   18.5300    6.6010  90.0000 108.3300  90.0000 231 1

