# MOL2 file generated by ConQuest
# Please check atom types

@<TRIPOS>MOLECULE
BABRIF
    20    21     1
SMALL
USER_CHARGES
****
Generated from CSD

@<TRIPOS>ATOM
      1 C1         6.1829    5.4625    2.5361 C.2       1 RES1    0.0000
      2 C2         5.1454    5.7930    3.4318 C.2       1 RES1    0.0000
      3 C3         7.6300    5.6583    2.6469 C.ar      1 RES1    0.0000
      4 C4         8.3268    6.2046    1.5923 C.ar      1 RES1    0.0000
      5 C5         9.6954    6.3040    1.6343 C.ar      1 RES1    0.0000
      6 C6        10.3845    5.8220    2.7200 C.ar      1 RES1    0.0000
      7 C7         9.7050    5.2743    3.7916 C.ar      1 RES1    0.0000
      8 C8         8.3306    5.1870    3.7557 C.ar      1 RES1    0.0000
      9 N1         5.6699    4.8351    1.5009 N.2       1 RES1    0.0000
     10 N2         3.9873    5.3768    2.9660 N.pl3     1 RES1    1.0000
     11 N3         5.1779    6.5840    4.6508 N.pl3     1 RES1    0.0000
     12 O1         4.3012    4.7494    1.7080 O.3       1 RES1    0.0000
     13 O2         2.8330    5.3967    3.3045 O.2       1 RES1   -1.0000
     14 O3         6.2211    7.1241    4.9083 O.2       1 RES1    0.0000
     15 O4         4.1615    6.6697    5.2846 O.2       1 RES1    0.0000
     16 H1         7.8099    6.5794    0.8403 H         1 RES1    0.0000
     17 H2        10.2410    6.7171    0.9134 H         1 RES1    0.0000
     18 H3        11.3703    5.8909    2.8862 H         1 RES1    0.0000
     19 H4        10.1835    4.8351    4.5119 H         1 RES1    0.0000
     20 H5         7.8099    4.7892    4.4693 H         1 RES1    0.0000
@<TRIPOS>BOND
     1    1    2 1
     2    2   10 2
     3    3    1 1
     4    4    3 ar
     5    5    4 ar
     6    6    5 ar
     7    7    6 ar
     8    8    3 ar
     9    9    1 2
    10   10   12 1
    11   11    2 1
    12   12    9 1
    13   13   10 1
    14   14   11 2
    15   15   11 2
    16   16    4 1
    17   17    5 1
    18   18    6 1
    19   19    7 1
    20   20    8 1
    21    7    8 ar
@<TRIPOS>SUBSTRUCTURE
     1 RES1 1

@<TRIPOS>CRYSIN
  19.1420   15.3010    6.0890  90.0000  90.0000  90.0000  61 1

