# MOL2 file generated by ConQuest
# Please check atom types

@<TRIPOS>MOLECULE
BABSUT
    17    18     1
SMALL
USER_CHARGES
****
Generated from CSD

@<TRIPOS>ATOM
      1 C1         1.6509   15.5161    0.8916 C.2       1 RES1    0.0000
      2 C2         1.5476   16.2736    2.1171 C.ar      1 RES1    0.0000
      3 C3         0.4618   16.2313    3.0038 C.ar      1 RES1    0.0000
      4 C4         0.4940   16.9413    4.1761 C.ar      1 RES1    0.0000
      5 C5         1.5784   17.7361    4.4989 C.ar      1 RES1    0.0000
      6 C6         2.6531   17.8141    3.6320 C.ar      1 RES1    0.0000
      7 C7         2.6344   17.0718    2.4683 C.ar      1 RES1    0.0000
      8 C8         0.9690   14.0892   -0.9052 C.ar      1 RES1    0.0000
      9 C9         0.0355   14.0808   -1.9143 C.ar      1 RES1    0.0000
     10 C10        0.2598   13.2928   -3.0285 C.ar      1 RES1    0.0000
     11 C11        1.3908   12.5200   -3.1213 C.ar      1 RES1    0.0000
     12 C12        2.3156   12.5437   -2.1047 C.ar      1 RES1    0.0000
     13 C13        2.1145   13.3317   -0.9893 C.ar      1 RES1    0.0000
     14 C14        2.5980   19.2070    6.0756 C.3       1 RES1    0.0000
     15 N1         0.6901   14.8908    0.2782 N.pl3     1 RES1    1.0000
     16 O1        -0.5612   14.9247    0.6393 O.2       1 RES1   -1.0000
     17 O2         1.4963   18.4004    5.6897 O.3       1 RES1    0.0000
@<TRIPOS>BOND
     1    1    2 1
     2    2    3 ar
     3    3    4 ar
     4    4    5 ar
     5    5    6 ar
     6    6    7 ar
     7    7    2 ar
     8    8    9 ar
     9    9   10 ar
    10   10   11 ar
    11   11   12 ar
    12   12   13 ar
    13   13    8 ar
    14   14   17 1
    15   15    1 2
    16   16   15 1
    17   17    5 1
    18    8   15 1
@<TRIPOS>SUBSTRUCTURE
     1 RES1 1

@<TRIPOS>CRYSIN
   5.5538   16.9464   12.3822  90.0000  92.9050  90.0000 231 1

