# MOL2 file generated by ConQuest
# Please check atom types

@<TRIPOS>MOLECULE
BABTII
    34    37     1
SMALL
NO_CHARGES
****
Generated from CSD

@<TRIPOS>ATOM
      1 O1         3.7363    1.9987    5.3401 O.3       1 RES1    0.0000
      2 O2         5.2463    0.2317    5.1252 O.3       1 RES1    0.0000
      3 O3         5.0928    2.6473    7.6712 O.2       1 RES1    0.0000
      4 O4         5.5846    3.0881    4.6831 O.2       1 RES1    0.0000
      5 C1         3.4640    3.7988    3.8531 C.ar      1 RES1    0.0000
      6 N1         4.5126   -1.0619    4.9801 N.3       1 RES1    0.0000
      7 C2         4.5539    1.0254    6.0373 C.3       1 RES1    0.0000
      8 C3         3.1922   -0.8081    5.5795 C.3       1 RES1    0.0000
      9 C4         4.3940    2.9567    4.6534 C.2       1 RES1    0.0000
     10 C5         3.5835    0.1045    6.7293 C.3       1 RES1    0.0000
     11 C6         2.5070   -2.0899    5.9849 C.ar      1 RES1    0.0000
     12 C7         1.1748   -2.2860    5.6861 C.ar      1 RES1    0.0000
     13 C8         5.5096    1.7305    7.0106 C.2       1 RES1    0.0000
     14 C9         1.8592    5.3248    2.2559 C.ar      1 RES1    0.0000
     15 N2         0.9915    6.1559    1.4119 N.pl3     1 RES1    0.0000
     16 C10        1.3021    4.2773    2.9357 C.ar      1 RES1    0.0000
     17 C11        3.1590   -3.0643    6.7258 C.ar      1 RES1    0.0000
     18 C12        3.9911    4.8705    3.1611 C.ar      1 RES1    0.0000
     19 C13        1.1489   -4.3746    6.8866 C.ar      1 RES1    0.0000
     20 C14        4.4961   -1.3480    3.5350 C.3       1 RES1    0.0000
     21 O5        -0.1643    5.8463    1.2809 O.2       1 RES1    0.0000
     22 C15        3.1904    5.6413    2.3485 C.ar      1 RES1    0.0000
     23 C16        2.1217    3.5127    3.7430 C.ar      1 RES1    0.0000
     24 C17        3.8876   -0.3190    2.6229 C.ar      1 RES1    0.0000
     25 C18        0.5118   -3.4136    6.1317 C.ar      1 RES1    0.0000
     26 C19        4.6676    0.7089    2.1266 C.ar      1 RES1    0.0000
     27 O6         1.4598    7.1380    0.8929 O.2       1 RES1    0.0000
     28 C20        2.4843   -4.1878    7.1592 C.ar      1 RES1    0.0000
     29 C21        2.5681   -0.3816    2.2489 C.ar      1 RES1    0.0000
     30 C22        6.8719    1.1656    7.1522 C.3       1 RES1    0.0000
     31 C23        2.8402    1.5819    0.9087 C.ar      1 RES1    0.0000
     32 C24        0.4086   -5.5860    7.3986 C.3       1 RES1    0.0000
     33 C25        4.1368    1.6577    1.2651 C.ar      1 RES1    0.0000
     34 C26        2.0344    0.5892    1.3805 C.ar      1 RES1    0.0000
@<TRIPOS>BOND
     1    1    7 1
     2    2    6 1
     3    3   13 2
     4    4    9 2
     5    5    9 1
     6    6    8 1
     7    7    2 1
     8    8   10 1
     9    9    1 1
    10   10    7 1
    11   11    8 1
    12   12   11 ar
    13   13    7 1
    14   14   15 1
    15   15   21 2
    16   16   14 ar
    17   17   11 ar
    18   18    5 ar
    19   19   25 ar
    20   20    6 1
    21   22   14 ar
    22   23    5 ar
    23   24   20 1
    24   25   12 ar
    25   26   24 ar
    26   27   15 2
    27   28   17 ar
    28   29   24 ar
    29   30   13 1
    30   31   33 ar
    31   32   19 1
    32   33   26 ar
    33   34   29 ar
    34   16   23 ar
    35   18   22 ar
    36   19   28 ar
    37   31   34 ar
@<TRIPOS>SUBSTRUCTURE
     1 RES1 1

@<TRIPOS>CRYSIN
   6.7780   10.1390   18.0130  79.6100  79.3300  82.3200   2 1

