# MOL2 file generated by ConQuest
# Please check atom types

@<TRIPOS>MOLECULE
BABTEE
    30    32     1
SMALL
NO_CHARGES
****
Generated from CSD

@<TRIPOS>ATOM
      1 C1         5.5553   11.7025    1.3942 C.ar      1 RES1    0.0000
      2 C2         4.8510   12.8311    1.7512 C.ar      1 RES1    0.0000
      3 C3         4.7480   13.1443    3.0696 C.ar      1 RES1    0.0000
      4 C4         5.3296   12.3874    4.0452 C.ar      1 RES1    0.0000
      5 C5         6.0267   11.2617    3.6815 C.ar      1 RES1    0.0000
      6 C6         6.1391   10.9046    2.3577 C.ar      1 RES1    0.0000
      7 C7         6.8537    9.6790    1.9193 C.2       1 RES1    0.0000
      8 C8         8.0227    7.7352    2.6345 C.3       1 RES1    0.0000
      9 C9         8.2932    7.0238    3.9441 C.3       1 RES1    0.0000
     10 C10        9.7173    7.4329    4.3275 C.3       1 RES1    0.0000
     11 C11        7.2062    6.8727    1.6633 C.2       1 RES1    0.0000
     12 C12        7.9266    6.1561    0.5812 C.3       1 RES1    0.0000
     13 C13       11.5198    8.2188    2.7290 C.3       1 RES1    0.0000
     14 C14       11.7242    9.3298    1.7029 C.3       1 RES1    0.0000
     15 C15       11.7801    6.8542    2.1094 C.3       1 RES1    0.0000
     16 C16       12.4581    8.4572    3.9068 C.3       1 RES1    0.0000
     17 C17        9.8069    8.0811    5.6921 C.ar      1 RES1    0.0000
     18 C18       10.3608    7.4061    6.7544 C.ar      1 RES1    0.0000
     19 C19       10.3996    7.9715    8.0135 C.ar      1 RES1    0.0000
     20 C20        9.8888    9.2170    8.2255 C.ar      1 RES1    0.0000
     21 C21        9.3359    9.9020    7.1884 C.ar      1 RES1    0.0000
     22 C22        9.2905    9.3363    5.9217 C.ar      1 RES1    0.0000
     23 N1         3.9956   14.3500    3.4618 N.pl3     1 RES1    0.0000
     24 N2        10.1316    8.3845    3.2575 N.3       1 RES1    0.0000
     25 O1         9.2644    8.0327    2.0995 O.3       1 RES1    0.0000
     26 O2         6.0310    6.7481    1.8699 O.2       1 RES1    0.0000
     27 O3         7.3028    8.9539    2.9608 O.3       1 RES1    0.0000
     28 O4         6.9988    9.3602    0.7669 O.2       1 RES1    0.0000
     29 O5         3.3798   14.9450    2.6027 O.2       1 RES1    0.0000
     30 O6         4.0276   14.6965    4.6220 O.2       1 RES1    0.0000
@<TRIPOS>BOND
     1    1    2 ar
     2    2    3 ar
     3    3    4 ar
     4    4    5 ar
     5    5    6 ar
     6    6    1 ar
     7    7    6 1
     8    8    9 1
     9    9   10 1
    10   10   17 1
    11   11    8 1
    12   12   11 1
    13   13   14 1
    14   15   13 1
    15   16   13 1
    16   17   18 ar
    17   18   19 ar
    18   19   20 ar
    19   20   21 ar
    20   21   22 ar
    21   22   17 ar
    22   23    3 1
    23   24   10 1
    24   25    8 1
    25   26   11 2
    26   27    7 1
    27   28    7 2
    28   29   23 2
    29   30   23 2
    30    8   27 1
    31   13   24 1
    32   24   25 1
@<TRIPOS>SUBSTRUCTURE
     1 RES1 1

@<TRIPOS>CRYSIN
   9.1316   11.2660   11.7911  82.1500  68.9050  75.4880   2 1

