# MOL2 file generated by ConQuest
# Please check atom types

@<TRIPOS>MOLECULE
BABTEG
    64    68     1
SMALL
NO_CHARGES
****
Generated from CSD

@<TRIPOS>ATOM
      1 C1         7.1997    9.5246    8.1790 C.ar      1 RES1    0.0000
      2 C2         5.9208    9.8434    8.5375 C.ar      1 RES1    0.0000
      3 H1         5.6847    9.9277    9.4333 H         1 RES1    0.0000
      4 C3         4.9871   10.0348    7.5439 C.ar      1 RES1    0.0000
      5 H2         4.1105   10.2495    7.7679 H         1 RES1    0.0000
      6 C4         5.3502    9.9105    6.2098 C.ar      1 RES1    0.0000
      7 C5         6.6522    9.6049    5.8839 C.ar      1 RES1    0.0000
      8 H3         6.9004    9.5331    4.9901 H         1 RES1    0.0000
      9 C6         7.5860    9.4044    6.8708 C.ar      1 RES1    0.0000
     10 H4         8.4648    9.1907    6.6540 H         1 RES1    0.0000
     11 C7         4.2872   10.0946    5.1788 C.2       1 RES1    0.0000
     12 C8         3.7782   10.0696    2.8705 C.3       1 RES1    0.0000
     13 H5         2.9788    9.5958    3.1486 H         1 RES1    0.0000
     14 H6         4.1360    9.6200    2.0892 H         1 RES1    0.0000
     15 C9         3.4212   11.4739    2.5128 C.2       1 RES1    0.0000
     16 C10        2.1950   11.9824    2.5304 C.2       1 RES1    0.0000
     17 H7         1.4672   11.4933    2.8417 H         1 RES1    0.0000
     18 C11        2.0418   13.3962    2.0194 C.3       1 RES1    0.0000
     19 C12        3.1128   14.2866    2.6747 C.2       1 RES1    0.0000
     20 C13        4.3369   13.7635    2.6321 C.2       1 RES1    0.0000
     21 H8         5.0700   14.2062    2.9944 H         1 RES1    0.0000
     22 C14        4.4753   12.4033    1.9621 C.3       1 RES1    0.0000
     23 H9         5.3840   12.0371    1.9973 H         1 RES1    0.0000
     24 C15        3.9932   12.7146    0.5559 C.2       1 RES1    0.0000
     25 C16        2.5731   13.3025    0.6082 C.2       1 RES1    0.0000
     26 C17        2.7089   15.6293    3.2358 C.3       1 RES1    0.0000
     27 C18        3.9483   16.5243    3.4072 C.3       1 RES1    0.0000
     28 H10        4.4841   16.1823    4.1395 H         1 RES1    0.0000
     29 H11        4.4847   16.4766    2.6002 H         1 RES1    0.0000
     30 C19        3.6028   17.9853    3.6859 C.3       1 RES1    0.0000
     31 H12        3.1217   18.0498    4.5258 H         1 RES1    0.0000
     32 H13        4.4202   18.5015    3.7671 H         1 RES1    0.0000
     33 C20        2.7578   18.5506    2.5768 C.3       1 RES1    0.0000
     34 H14        3.2731   18.4965    1.7449 H         1 RES1    0.0000
     35 C21        1.4442   17.7925    2.3693 C.3       1 RES1    0.0000
     36 C22        1.7714   16.2730    2.1743 C.3       1 RES1    0.0000
     37 H15        2.2821   16.2352    1.3383 H         1 RES1    0.0000
     38 C23        0.5055   15.4411    1.8945 C.3       1 RES1    0.0000
     39 H16       -0.2054   15.7674    2.4678 H         1 RES1    0.0000
     40 H17        0.2337   15.6013    0.9768 H         1 RES1    0.0000
     41 C24        0.6323   13.9363    2.0992 C.3       1 RES1    0.0000
     42 H18        0.2655   13.7117    2.9679 H         1 RES1    0.0000
     43 H19        0.0927   13.4880    1.4302 H         1 RES1    0.0000
     44 C25        2.0695   15.3954    4.6168 C.3       1 RES1    0.0000
     45 H20        2.0508   16.2217    5.1054 H         1 RES1    0.0000
     46 H21        2.5860   14.7482    5.1023 H         1 RES1    0.0000
     47 H22        1.1735   15.0698    4.5040 H         1 RES1    0.0000
     48 C26        0.4856   18.0855    3.5258 C.3       1 RES1    0.0000
     49 H23       -0.3145   17.5661    3.4181 H         1 RES1    0.0000
     50 H24        0.2626   19.0193    3.5287 H         1 RES1    0.0000
     51 H25        0.9068   17.8547    4.3576 H         1 RES1    0.0000
     52 C27        0.7992   18.3028    1.0636 C.3       1 RES1    0.0000
     53 H26        1.3573   18.0691    0.3178 H         1 RES1    0.0000
     54 H27        0.7040   19.2577    1.1061 H         1 RES1    0.0000
     55 H28       -0.0649   17.9003    0.9550 H         1 RES1    0.0000
     56 N1         8.2009    9.3262    9.2467 N.pl3     1 RES1    0.0000
     57 O1         7.8085    9.4046   10.3988 O.2       1 RES1    0.0000
     58 O2         9.3566    9.1507    8.9466 O.2       1 RES1    0.0000
     59 O3         3.1313   10.2764    5.4439 O.2       1 RES1    0.0000
     60 O4         4.7590   10.0264    3.9421 O.3       1 RES1    0.0000
     61 O5         4.5753   12.5812   -0.4780 O.2       1 RES1    0.0000
     62 O6         2.0033   13.6527   -0.3951 O.2       1 RES1    0.0000
     63 O7         2.5313   19.9352    2.8690 O.3       1 RES1    0.0000
     64 H29        2.5704   20.3712    2.1749 H         1 RES1    0.0000
@<TRIPOS>BOND
     1    1    2 ar
     2    2    3 1
     3    4    2 ar
     4    5    4 1
     5    6    4 ar
     6    7    6 ar
     7    8    7 1
     8    9    1 ar
     9   10    9 1
    10   11    6 1
    11   12   13 1
    12   14   12 1
    13   15   12 1
    14   16   15 2
    15   17   16 1
    16   18   16 1
    17   19   18 1
    18   20   19 2
    19   21   20 1
    20   22   15 1
    21   23   22 1
    22   24   22 1
    23   25   18 1
    24   26   19 1
    25   27   26 1
    26   28   27 1
    27   29   27 1
    28   30   27 1
    29   31   30 1
    30   32   30 1
    31   33   30 1
    32   34   33 1
    33   35   33 1
    34   36   26 1
    35   37   36 1
    36   38   36 1
    37   39   38 1
    38   40   38 1
    39   41   18 1
    40   42   41 1
    41   43   41 1
    42   44   26 1
    43   45   44 1
    44   46   44 1
    45   47   44 1
    46   48   35 1
    47   49   48 1
    48   50   48 1
    49   51   48 1
    50   52   35 1
    51   53   52 1
    52   54   52 1
    53   55   52 1
    54   56    1 1
    55   57   56 2
    56   58   56 2
    57   59   11 2
    58   60   11 1
    59   61   24 2
    60   62   25 2
    61   63   33 1
    62   64   63 1
    63    7    9 ar
    64   12   60 1
    65   20   22 1
    66   24   25 1
    67   35   36 1
    68   38   41 1
@<TRIPOS>SUBSTRUCTURE
     1 RES1 1

@<TRIPOS>CRYSIN
   7.3411   11.6358   15.8361  89.2490  79.7240  79.9910   2 1

