# MOL2 file generated by ConQuest
# Please check atom types

@<TRIPOS>MOLECULE
BABVIM
    81    86     1
SMALL
NO_CHARGES
****
Generated from CSD

@<TRIPOS>ATOM
      1 O1         1.9287   10.3364   -2.4051 O.3       1 RES1    0.0000
      2 O2         1.4919   12.6232   -2.1922 O.3       1 RES1    0.0000
      3 O3         7.3727   16.8510    2.5279 O.3       1 RES1    0.0000
      4 O4         1.8607   11.0215    0.3186 O.2       1 RES1    0.0000
      5 O5         8.7803   17.7357    1.0120 O.2       1 RES1    0.0000
      6 C1         6.4732   10.6314   -0.5663 C.ar      1 RES1    0.0000
      7 C2         5.0092   10.6463   -0.9389 C.3       1 RES1    0.0000
      8 H1         4.6597    9.7503   -0.7423 H         1 RES1    0.0000
      9 C3         4.1595   11.6688   -0.0667 C.3       1 RES1    0.0000
     10 C4         3.7198   12.0216   -2.6322 C.3       1 RES1    0.0000
     11 H2         3.5862   12.2251   -3.5818 H         1 RES1    0.0000
     12 C5         4.1723   13.2383   -1.8750 C.2       1 RES1    0.0000
     13 H3         4.2916   14.0576   -2.2994 H         1 RES1    0.0000
     14 C6         4.3942   13.0946   -0.5713 C.2       1 RES1    0.0000
     15 C7         2.4092   11.5752   -1.9708 C.3       1 RES1    0.0000
     16 O6         9.9665   20.6165    7.5610 O.2       1 RES1    0.0000
     17 N1        10.2643   20.9250    6.4241 N.pl3     1 RES1    0.0000
     18 C8         7.3331   11.6638   -0.9233 C.ar      1 RES1    0.0000
     19 H4         7.0114   12.3630   -1.4463 H         1 RES1    0.0000
     20 C9         4.7514   10.9025   -2.4435 C.3       1 RES1    0.0000
     21 H5         5.5820   11.1510   -2.8764 H         1 RES1    0.0000
     22 H6         4.4263   10.0878   -2.8593 H         1 RES1    0.0000
     23 C10        2.7070   11.3724   -0.4663 C.2       1 RES1    0.0000
     24 C11        4.3726   11.4558    1.4300 C.3       1 RES1    0.0000
     25 H7         3.4998   11.4522    1.8544 H         1 RES1    0.0000
     26 H8         4.7519   10.5704    1.5507 H         1 RES1    0.0000
     27 C12        8.7698   18.5721    3.2546 C.ar      1 RES1    0.0000
     28 C13        4.6820   14.2129    0.4173 C.3       1 RES1    0.0000
     29 C14        5.6756   13.6704    1.4676 C.3       1 RES1    0.0000
     30 H9         6.4360   13.3718    0.9261 H         1 RES1    0.0000
     31 C15        8.3258   17.6932    2.1262 C.2       1 RES1    0.0000
     32 C16        8.6567   11.6761   -0.5174 C.ar      1 RES1    0.0000
     33 H10        9.2070   12.3920   -0.7452 H         1 RES1    0.0000
     34 C17        8.4133   18.3036    4.5704 C.ar      1 RES1    0.0000
     35 H11        7.8439   17.5920    4.7556 H         1 RES1    0.0000
     36 C18        6.8722   15.8408    1.5989 C.3       1 RES1    0.0000
     37 H12        7.6325   15.4946    1.0858 H         1 RES1    0.0000
     38 O7        11.0043   21.8430    6.1509 O.2       1 RES1    0.0000
     39 C19        8.8901   19.0761    5.6037 C.ar      1 RES1    0.0000
     40 H13        8.6606   18.8874    6.4851 H         1 RES1    0.0000
     41 C20        9.7144   20.1295    5.2999 C.ar      1 RES1    0.0000
     42 C21        7.0077    9.5834    0.1675 C.ar      1 RES1    0.0000
     43 H14        6.4625    8.8686    0.4059 H         1 RES1    0.0000
     44 C22        9.5829   19.6564    2.9807 C.ar      1 RES1    0.0000
     45 H15        9.8151   19.8490    2.1021 H         1 RES1    0.0000
     46 C23       10.0518   20.4518    4.0090 C.ar      1 RES1    0.0000
     47 H16       10.5864   21.1917    3.8302 H         1 RES1    0.0000
     48 C24        6.3128   14.6995    2.4513 C.3       1 RES1    0.0000
     49 C25        8.3365    9.5820    0.5521 C.ar      1 RES1    0.0000
     50 H17        8.6777    8.8649    1.0369 H         1 RES1    0.0000
     51 C26        9.1560   10.6343    0.2207 C.ar      1 RES1    0.0000
     52 H18       10.0444   10.6394    0.4961 H         1 RES1    0.0000
     53 C27        5.3440   15.3861   -0.3009 C.3       1 RES1    0.0000
     54 H19        6.0645   15.0483   -0.8545 H         1 RES1    0.0000
     55 H20        4.6916   15.8030   -0.8864 H         1 RES1    0.0000
     56 C28        5.9011   16.4395    0.6394 C.3       1 RES1    0.0000
     57 H21        6.3425   17.1311    0.1235 H         1 RES1    0.0000
     58 H22        5.1728   16.8517    1.1319 H         1 RES1    0.0000
     59 C29        1.6278   10.2558   -3.8160 C.3       1 RES1    0.0000
     60 H23        2.4443   10.3055   -4.3206 H         1 RES1    0.0000
     61 H24        1.0555   10.9841   -4.0637 H         1 RES1    0.0000
     62 H25        1.1856    9.4238   -4.0026 H         1 RES1    0.0000
     63 C30        0.1735   12.4243   -1.6678 C.3       1 RES1    0.0000
     64 H26       -0.1635   11.5756   -1.9637 H         1 RES1    0.0000
     65 H27       -0.4034   13.1250   -1.9793 H         1 RES1    0.0000
     66 H28        0.2054   12.4392   -0.7083 H         1 RES1    0.0000
     67 C31        7.4969   14.0104    3.1588 C.3       1 RES1    0.0000
     68 H29        7.1651   13.3246    3.7415 H         1 RES1    0.0000
     69 H30        7.9833   14.6600    3.6733 H         1 RES1    0.0000
     70 H31        8.0794   13.6185    2.5031 H         1 RES1    0.0000
     71 C32        5.3504   15.2272    3.5179 C.3       1 RES1    0.0000
     72 H32        4.7567   15.8720    3.1240 H         1 RES1    0.0000
     73 H33        5.8511   15.6434    4.2233 H         1 RES1    0.0000
     74 H34        4.8392   14.4967    3.8763 H         1 RES1    0.0000
     75 C33        3.3155   14.6302    1.0092 C.3       1 RES1    0.0000
     76 H35        2.7135   14.8559    0.2966 H         1 RES1    0.0000
     77 H36        3.4335   15.3930    1.5812 H         1 RES1    0.0000
     78 H37        2.9514   13.9016    1.5180 H         1 RES1    0.0000
     79 C34        5.2008   12.3859    2.1447 C.3       1 RES1    0.0000
     80 H38        5.9908   11.9022    2.4349 H         1 RES1    0.0000
     81 H39        4.7187   12.6424    2.9459 H         1 RES1    0.0000
@<TRIPOS>BOND
     1    1   15 1
     2    2   15 1
     3    3   31 1
     4    4   23 2
     5    5   31 2
     6    6    7 1
     7    7    8 1
     8    9    7 1
     9   10   11 1
    10   12   10 1
    11   13   12 1
    12   14    9 1
    13   15   10 1
    14   16   17 2
    15   17   38 2
    16   18    6 ar
    17   19   18 1
    18   20    7 1
    19   21   20 1
    20   22   20 1
    21   23    9 1
    22   24    9 1
    23   25   24 1
    24   26   24 1
    25   27   31 1
    26   28   14 1
    27   29   28 1
    28   30   29 1
    29   32   18 ar
    30   33   32 1
    31   34   27 ar
    32   35   34 1
    33   36    3 1
    34   37   36 1
    35   39   34 ar
    36   40   39 1
    37   41   17 1
    38   42    6 ar
    39   43   42 1
    40   44   27 ar
    41   45   44 1
    42   46   41 ar
    43   47   46 1
    44   48   29 1
    45   49   42 ar
    46   50   49 1
    47   51   32 ar
    48   52   51 1
    49   53   28 1
    50   54   53 1
    51   55   53 1
    52   56   36 1
    53   57   56 1
    54   58   56 1
    55   59    1 1
    56   60   59 1
    57   61   59 1
    58   62   59 1
    59   63    2 1
    60   64   63 1
    61   65   63 1
    62   66   63 1
    63   67   48 1
    64   68   67 1
    65   69   67 1
    66   70   67 1
    67   71   48 1
    68   72   71 1
    69   73   71 1
    70   74   71 1
    71   75   28 1
    72   76   75 1
    73   77   75 1
    74   78   75 1
    75   79   24 1
    76   80   79 1
    77   81   79 1
    78   10   20 1
    79   12   14 2
    80   15   23 1
    81   29   79 1
    82   36   48 1
    83   39   41 ar
    84   44   46 ar
    85   49   51 ar
    86   53   56 1
@<TRIPOS>SUBSTRUCTURE
     1 RES1 1

@<TRIPOS>CRYSIN
  11.7541   36.2871    7.3993  90.0000 106.4380  90.0000  14 1

