# MOL2 file generated by ConQuest
# Please check atom types

@<TRIPOS>MOLECULE
BABZOU
    58    60     1
SMALL
NO_CHARGES
****
Generated from CSD

@<TRIPOS>ATOM
      1 O1         3.4166    3.1487    6.1704 O.3       1 RES1    0.0000
      2 N1         3.0691    1.8427    6.3041 N.2       1 RES1    0.0000
      3 C1         4.0768    1.1216    6.8850 C.ar      1 RES1    0.0000
      4 C2         5.2857    1.6672    7.4341 C.ar      1 RES1    0.0000
      5 C3         6.1863    0.8156    8.0347 C.ar      1 RES1    0.0000
      6 C4         5.9603   -0.5557    8.1706 C.ar      1 RES1    0.0000
      7 C5         4.7843   -1.0687    7.6226 C.ar      1 RES1    0.0000
      8 C6         3.8350   -0.3015    6.9727 C.ar      1 RES1    0.0000
      9 C7         5.6568    3.1195    7.4768 C.ar      1 RES1    0.0000
     10 C8         6.3916    3.7112    6.4598 C.ar      1 RES1    0.0000
     11 C9         6.8151    5.0229    6.5650 C.ar      1 RES1    0.0000
     12 C10        6.5223    5.7575    7.6851 C.ar      1 RES1    0.0000
     13 C11        5.8075    5.1804    8.7065 C.ar      1 RES1    0.0000
     14 C12        5.3788    3.8698    8.6024 C.ar      1 RES1    0.0000
     15 C13        6.9167   -1.4141    8.9016 C.ar      1 RES1    0.0000
     16 C14        8.2869   -1.2453    8.7789 C.ar      1 RES1    0.0000
     17 C15        9.1642   -2.0204    9.5110 C.ar      1 RES1    0.0000
     18 C16        8.6857   -2.9687   10.3900 C.ar      1 RES1    0.0000
     19 C17        7.3424   -3.1499   10.5215 C.ar      1 RES1    0.0000
     20 C18        6.4647   -2.3928    9.7795 C.ar      1 RES1    0.0000
     21 C19        2.5755   -0.9697    6.3743 C.3       1 RES1    0.0000
     22 C20        1.3053   -0.4207    7.0472 C.3       1 RES1    0.0000
     23 C21        2.5891   -2.4861    6.5814 C.3       1 RES1    0.0000
     24 C22        2.5145   -0.7267    4.8596 C.3       1 RES1    0.0000
     25 C23        2.3166    3.9891    5.6838 C.3       1 RES1    0.0000
     26 C24        1.7657    3.4052    4.4092 C.3       1 RES1    0.0000
     27 C25        3.0536    5.2918    5.3660 C.3       1 RES1    0.0000
     28 C26        1.2924    4.0779    6.7458 C.3       1 RES1    0.0000
     29 H1         6.9898    1.1103    8.4183 H         1 RES1    0.0000
     30 H2         4.5897   -2.0553    7.7158 H         1 RES1    0.0000
     31 H3         6.5762    3.1544    5.5863 H         1 RES1    0.0000
     32 H4         7.3295    5.3761    5.8471 H         1 RES1    0.0000
     33 H5         6.8310    6.6496    7.7169 H         1 RES1    0.0000
     34 H6         5.5866    5.7136    9.4935 H         1 RES1    0.0000
     35 H7         4.8555    3.4468    9.3576 H         1 RES1    0.0000
     36 H8         8.5886   -0.5625    8.1827 H         1 RES1    0.0000
     37 H9        10.1210   -1.9180    9.3707 H         1 RES1    0.0000
     38 H10        9.3123   -3.4052   10.9961 H         1 RES1    0.0000
     39 H11        6.9602   -3.8440   11.0739 H         1 RES1    0.0000
     40 H12        5.5497   -2.5030    9.8442 H         1 RES1    0.0000
     41 H13        1.1779    0.5377    6.8894 H         1 RES1    0.0000
     42 H14        0.5871   -0.8831    6.6296 H         1 RES1    0.0000
     43 H15        1.3551   -0.5940    8.0643 H         1 RES1    0.0000
     44 H16        1.8647   -2.8180    6.2143 H         1 RES1    0.0000
     45 H17        3.4340   -2.9046    6.1058 H         1 RES1    0.0000
     46 H18        2.5736   -2.6875    7.4966 H         1 RES1    0.0000
     47 H19        2.4887    0.2464    4.6415 H         1 RES1    0.0000
     48 H20        3.3343   -1.0946    4.3818 H         1 RES1    0.0000
     49 H21        1.7354   -1.1058    4.5166 H         1 RES1    0.0000
     50 H22        1.1114    3.9947    4.0563 H         1 RES1    0.0000
     51 H23        2.6992    3.3928    3.7636 H         1 RES1    0.0000
     52 H24        1.4474    2.3973    4.5396 H         1 RES1    0.0000
     53 H25        3.2272    5.6203    6.3863 H         1 RES1    0.0000
     54 H26        3.7441    4.9082    4.5188 H         1 RES1    0.0000
     55 H27        2.4629    5.9386    4.9648 H         1 RES1    0.0000
     56 H28        1.9496    4.8508    7.3585 H         1 RES1    0.0000
     57 H29        0.5760    4.6922    6.4806 H         1 RES1    0.0000
     58 H30        0.8456    3.1994    6.9168 H         1 RES1    0.0000
@<TRIPOS>BOND
     1    1    2 1
     2    2    3 1
     3    3    4 ar
     4    4    5 ar
     5    5    6 ar
     6    6    7 ar
     7    7    8 ar
     8    8    3 ar
     9    9    4 1
    10   10    9 ar
    11   11   10 ar
    12   12   11 ar
    13   13   12 ar
    14   14    9 ar
    15   15    6 1
    16   16   15 ar
    17   17   16 ar
    18   18   17 ar
    19   19   18 ar
    20   20   15 ar
    21   21    8 1
    22   22   21 1
    23   23   21 1
    24   24   21 1
    25   25    1 1
    26   26   25 1
    27   27   25 1
    28   28   25 1
    29   29    5 1
    30   30    7 1
    31   31   10 1
    32   32   11 1
    33   33   12 1
    34   34   13 1
    35   35   14 1
    36   36   16 1
    37   37   17 1
    38   38   18 1
    39   39   19 1
    40   40   20 1
    41   41   22 1
    42   42   22 1
    43   43   22 1
    44   44   23 1
    45   45   23 1
    46   46   23 1
    47   47   24 1
    48   48   24 1
    49   49   24 1
    50   50   26 1
    51   51   26 1
    52   52   26 1
    53   53   27 1
    54   54   27 1
    55   55   27 1
    56   56   28 1
    57   57   28 1
    58   58   28 1
    59   13   14 ar
    60   19   20 ar
@<TRIPOS>SUBSTRUCTURE
     1 RES1 1

@<TRIPOS>CRYSIN
  36.9243   11.2495   10.9599  90.0000  90.0000  90.0000  61 1

