# MOL2 file generated by ConQuest
# Please check atom types

@<TRIPOS>MOLECULE
BACCEN
    56    60     2
SMALL
NO_CHARGES
****
Generated from CSD

@<TRIPOS>ATOM
      1 O1         4.6035   19.8090    6.9057 O.3       1 RES1    0.0000
      2 C1         3.7689   19.2325    5.9824 C.2       1 RES1    0.0000
      3 C2         3.8439   17.7116    6.1079 C.3       1 RES1    0.0000
      4 N1         5.0582   17.5427    6.9337 N.3       1 RES1    0.0000
      5 C3         5.3221   18.8207    7.6219 C.3       1 RES1    0.0000
      6 C4         6.8045   18.6871    7.2624 C.3       1 RES1    0.0000
      7 C5         6.3619   17.5212    6.4014 C.2       1 RES1    0.0000
      8 C6         2.6813   17.0855    6.8783 C.2       1 RES1    0.0000
      9 C7         3.0893   19.9507    5.1060 C.2       1 RES1    0.0000
     10 C8         3.1737   21.4434    5.0074 C.3       1 RES1    0.0000
     11 C9         6.9872   16.7591    5.4982 C.2       1 RES1    0.0000
     12 C10        6.3801   15.6511    4.7703 C.2       1 RES1    0.0000
     13 C11        6.7696   13.9026    3.2487 C.3       1 RES1    0.0000
     14 C12        1.6813   15.0565    7.5034 C.3       1 RES1    0.0000
     15 C13        1.8668   13.6100    7.1921 C.ar      1 RES1    0.0000
     16 C14        2.6659   12.8269    8.0241 C.ar      1 RES1    0.0000
     17 C15        2.8774   11.5065    7.7474 C.ar      1 RES1    0.0000
     18 C16        2.2843   10.9515    6.6334 C.ar      1 RES1    0.0000
     19 C17        1.4776   11.6854    5.7928 C.ar      1 RES1    0.0000
     20 C18        1.2802   13.0274    6.0941 C.ar      1 RES1    0.0000
     21 N2         2.5297    9.5390    6.3231 N.pl3     1 RES1    0.0000
     22 O2         1.9030   22.0700    4.8031 O.3       1 RES1    0.0000
     23 O3         2.6194   15.7933    6.6656 O.3       1 RES1    0.0000
     24 O4         1.9463   17.6744    7.6186 O.2       1 RES1    0.0000
     25 O5         7.2892   15.0197    4.0141 O.3       1 RES1    0.0000
     26 O6         5.2209   15.3180    4.8213 O.2       1 RES1    0.0000
     27 O7         3.1688    8.8647    7.1176 O.2       1 RES1    0.0000
     28 O8         2.0968    9.1080    5.2773 O.2       1 RES1    0.0000
     29 O9         1.7785   -0.1308    1.5306 O.3       2 RES2    0.0000
     30 C19        0.7195    0.5507    2.1048 C.2       2 RES2    0.0000
     31 C20        0.9792    2.0429    2.0324 C.3       2 RES2    0.0000
     32 N3         2.3887    2.0935    1.6131 N.3       2 RES2    0.0000
     33 C21        2.7493    0.7779    1.0545 C.3       2 RES2    0.0000
     34 C22        4.0518    0.8203    1.8801 C.3       2 RES2    0.0000
     35 C23        3.4616    2.0506    2.5361 C.2       2 RES2    0.0000
     36 C24        0.1716    2.7740    0.9608 C.2       2 RES2    0.0000
     37 C25       -0.2891   -0.0721    2.6815 C.2       2 RES2    0.0000
     38 C26       -0.4034   -1.5576    2.7884 C.3       2 RES2    0.0000
     39 C27        3.8109    2.8027    3.5778 C.2       2 RES2    0.0000
     40 C28        3.0547    3.9580    4.0475 C.2       2 RES2    0.0000
     41 C29        3.0203    5.6988    5.6408 C.3       2 RES2    0.0000
     42 C30       -0.3121    4.9138    0.1026 C.3       2 RES2    0.0000
     43 C31       -0.4262    6.3164    0.6153 C.ar      2 RES2    0.0000
     44 C32        0.2385    6.7773    1.7605 C.ar      2 RES2    0.0000
     45 C33        0.0988    8.0734    2.1782 C.ar      2 RES2    0.0000
     46 C34       -0.7121    8.9262    1.4598 C.ar      2 RES2    0.0000
     47 C35       -1.3717    8.4972    0.3357 C.ar      2 RES2    0.0000
     48 C36       -1.2329    7.1997   -0.0838 C.ar      2 RES2    0.0000
     49 N4        -0.8775   10.3101    1.9128 N.pl3     2 RES2    0.0000
     50 O10       -1.7487   -2.0129    2.5652 O.3       2 RES2    0.0000
     51 O11        0.2122    4.0773    1.1557 O.3       2 RES2    0.0000
     52 O12       -0.3418    2.2706    0.0230 O.2       2 RES2    0.0000
     53 O13        2.0109    4.3631    3.6131 O.2       2 RES2    0.0000
     54 O14        3.7007    4.5683    5.0621 O.3       2 RES2    0.0000
     55 O15       -1.5308   11.0689    1.2180 O.2       2 RES2    0.0000
     56 O16       -0.3595   10.6408    2.9701 O.2       2 RES2    0.0000
@<TRIPOS>BOND
     1    1    2 1
     2    2    3 1
     3    3    4 1
     4    4    5 1
     5    5    1 1
     6    6    5 1
     7    7    4 1
     8    8    3 1
     9    9    2 2
    10   10    9 1
    11   11    7 2
    12   12   11 1
    13   13   25 1
    14   14   15 1
    15   15   16 ar
    16   16   17 ar
    17   17   18 ar
    18   18   19 ar
    19   19   20 ar
    20   20   15 ar
    21   21   18 1
    22   22   10 1
    23   23    8 1
    24   24    8 2
    25   25   12 1
    26   26   12 2
    27   27   21 2
    28   28   21 2
    29   29   30 1
    30   30   31 1
    31   31   32 1
    32   32   33 1
    33   33   29 1
    34   34   33 1
    35   35   32 1
    36   36   31 1
    37   37   30 2
    38   38   37 1
    39   39   35 2
    40   40   39 1
    41   41   54 1
    42   42   43 1
    43   43   44 ar
    44   44   45 ar
    45   45   46 ar
    46   46   47 ar
    47   47   48 ar
    48   48   43 ar
    49   49   46 1
    50   50   38 1
    51   51   36 1
    52   52   36 2
    53   53   40 2
    54   54   40 1
    55   55   49 2
    56   56   49 2
    57    6    7 1
    58   14   23 1
    59   34   35 1
    60   42   51 1
@<TRIPOS>SUBSTRUCTURE
     1 RES1 1
     2 RES2 29

@<TRIPOS>CRYSIN
   8.0680   47.7210    4.8250  90.0000  99.1500  90.0000   4 1

