# MOL2 file generated by ConQuest
# Please check atom types

@<TRIPOS>MOLECULE
BADRAC01
    44    46     2
SMALL
NO_CHARGES
****
Generated from CSD

@<TRIPOS>ATOM
      1 N1         3.7307    1.0755    1.3655 N.3       1 RES1    0.0000
      2 N2         3.3702    1.6647    0.2174 N.2       1 RES1    0.0000
      3 C1         4.5455    2.0549   -0.2392 C.2       1 RES1    0.0000
      4 N3         5.6258    1.7773    0.4994 N.2       1 RES1    0.0000
      5 C2         5.0611    1.1429    1.5386 C.2       1 RES1    0.0000
      6 C3         5.7658    0.6136    2.6799 C.2       1 RES1    0.0000
      7 N4         7.0747    0.8532    2.9272 N.3       1 RES1    0.0000
      8 N5         7.4760    0.2037    4.0259 N.2       1 RES1    0.0000
      9 C4         6.3488   -0.3788    4.3885 C.2       1 RES1    0.0000
     10 N6         5.2739   -0.1903    3.6210 N.2       1 RES1    0.0000
     11 N7         2.7871    0.4411    2.1777 N.3       1 RES1    0.0000
     12 H1         3.0155    0.7654    2.9762 H         1 RES1    0.0000
     13 H2         1.9755    0.7784    1.9000 H         1 RES1    0.0000
     14 N8         4.6394    2.8046   -1.4803 N.pl3     1 RES1    0.0000
     15 O1         3.6020    3.0471   -2.0751 O.2       1 RES1    0.0000
     16 O2         5.7550    3.1497   -1.8483 O.2       1 RES1    0.0000
     17 N9         8.0029    1.6112    2.2042 N.3       1 RES1    0.0000
     18 H3         8.0972    2.3611    2.6440 H         1 RES1    0.0000
     19 H4         7.6324    1.7384    1.4084 H         1 RES1    0.0000
     20 N10        6.2959   -1.2039    5.5764 N.pl3     1 RES1    0.0000
     21 O3         5.2119   -1.6939    5.8639 O.2       1 RES1    0.0000
     22 O4         7.3167   -1.3321    6.2297 O.2       1 RES1    0.0000
     23 N11        2.7893    1.6622    7.4345 N.3       2 RES2    0.0000
     24 N12        3.0139    2.8570    6.8729 N.2       2 RES2    0.0000
     25 C5         3.0228    2.5297    5.6016 C.2       2 RES2    0.0000
     26 N13        2.8233    1.2328    5.2844 N.2       2 RES2    0.0000
     27 C6         2.6718    0.6966    6.4945 C.2       2 RES2    0.0000
     28 N14        2.7090    1.6022    8.8302 N.3       2 RES2    0.0000
     29 H5         1.8794    1.1805    9.0481 H         2 RES2    0.0000
     30 H6         3.3977    1.1027    9.0880 H         2 RES2    0.0000
     31 N15        3.1979    3.5551    4.5882 N.pl3     2 RES2    0.0000
     32 O5         3.1901    4.7160    4.9705 O.2       2 RES2    0.0000
     33 O6         3.3344    3.1865    3.4293 O.2       2 RES2    0.0000
     34 N11B       2.2944   -1.6622    5.8520 N.pl3     2 RES2    0.0000
     35 N12B       2.0697   -2.8570    6.4137 N.2       2 RES2    0.0000
     36 C5B        2.0608   -2.5297    7.6849 C.2       2 RES2    0.0000
     37 N13B       2.2604   -1.2328    8.0021 N.2       2 RES2    0.0000
     38 C6B        2.4119   -0.6966    6.7921 C.2       2 RES2    0.0000
     39 N14B       2.3746   -1.6022    4.4563 N.3       2 RES2    0.0000
     40 H5B        3.2042   -1.1805    4.2384 H         2 RES2    0.0000
     41 H6B        1.6860   -1.1027    4.1985 H         2 RES2    0.0000
     42 N15B       1.8858   -3.5551    8.6983 N.pl3     2 RES2    0.0000
     43 O5B        1.8936   -4.7160    8.3160 O.2       2 RES2    0.0000
     44 O6B        1.7493   -3.1865    9.8573 O.2       2 RES2    0.0000
@<TRIPOS>BOND
     1    1    2 1
     2    2    3 2
     3    3    4 1
     4    4    5 2
     5    5    1 1
     6    6    5 1
     7    7    6 1
     8    8    7 1
     9    9    8 2
    10   10    6 2
    11   11    1 1
    12   12   11 1
    13   13   11 1
    14   14    3 1
    15   15   14 2
    16   16   14 2
    17   17    7 1
    18   18   17 1
    19   19   17 1
    20   20    9 1
    21   21   20 2
    22   22   20 2
    23   23   24 1
    24   24   25 2
    25   25   26 1
    26   26   27 2
    27   27   23 1
    28   28   23 1
    29   29   28 1
    30   30   28 1
    31   31   25 1
    32   32   31 2
    33   33   31 2
    34   34   35 1
    35   35   36 2
    36   36   37 1
    37   37   38 2
    38   38   27 1
    39   39   34 1
    40   40   39 1
    41   41   39 1
    42   42   36 1
    43   43   42 2
    44   44   42 2
    45    9   10 1
    46   34   38 1
@<TRIPOS>SUBSTRUCTURE
     1 RES1 1
     2 RES2 23

@<TRIPOS>CRYSIN
   7.9524   12.9729   13.5927  90.0000 102.1840  90.0000 231 1

