# MOL2 file generated by ConQuest
# Please check atom types

@<TRIPOS>MOLECULE
BADRAC
    44    46     2
SMALL
NO_CHARGES
****
Generated from CSD

@<TRIPOS>ATOM
      1 N1         0.1934   13.8475   16.1990 N.3       1 RES1    0.0000
      2 N2         0.5981   13.1976   17.2926 N.2       1 RES1    0.0000
      3 C1        -0.5359   12.6141   17.6536 C.2       1 RES1    0.0000
      4 N3        -1.6024   12.8026   16.8892 N.2       1 RES1    0.0000
      5 C2        -1.1108   13.6122   15.9495 C.2       1 RES1    0.0000
      6 C3        -1.8199   14.1399   14.8080 C.2       1 RES1    0.0000
      7 N4        -3.1544   14.0736   14.6315 N.3       1 RES1    0.0000
      8 N5        -3.5146   14.6714   13.4874 N.2       1 RES1    0.0000
      9 C4        -2.3318   15.0600   13.0348 C.2       1 RES1    0.0000
     10 N6        -1.2525   14.7819   13.7622 N.2       1 RES1    0.0000
     11 N7         1.1288   14.6103   15.4783 N.3       1 RES1    0.0000
     12 H1         0.7374   14.6857   14.6660 H         1 RES1    0.0000
     13 H2         1.2572   15.4135   15.8605 H         1 RES1    0.0000
     14 N8        -0.5822   11.7889   18.8455 N.pl3     1 RES1    0.0000
     15 O1         0.4311   11.6563   19.4959 O.2       1 RES1    0.0000
     16 O2        -1.6746   11.3015   19.1322 O.2       1 RES1    0.0000
     17 N9        -4.1014   13.4433   15.4451 N.3       1 RES1    0.0000
     18 H3        -3.8078   13.7370   16.2454 H         1 RES1    0.0000
     19 H4        -4.9253   13.7110   15.1969 H         1 RES1    0.0000
     20 N10       -2.2428   15.8073   11.7859 N.pl3     1 RES1    0.0000
     21 O3        -3.2708   16.0555   11.1953 O.2       1 RES1    0.0000
     22 O4        -1.1179   16.1530   11.4196 O.2       1 RES1    0.0000
     23 N11       -1.6951   11.3314    5.8452 N.3       2 RES2    0.0000
     24 N12       -1.9215   10.1357    6.4066 N.2       2 RES2    0.0000
     25 C5        -1.9361   10.4632    7.6688 C.2       2 RES2    0.0000
     26 N13       -1.7334   11.7642    7.9953 N.2       2 RES2    0.0000
     27 C6        -1.5837   12.2983    6.7862 C.2       2 RES2    0.0000
     28 N14       -1.6236   11.3938    4.4542 N.3       2 RES2    0.0000
     29 H5        -0.8513   11.7876    4.2206 H         2 RES2    0.0000
     30 H6        -2.3539   11.8395    4.1675 H         2 RES2    0.0000
     31 N15       -2.1022    9.4352    8.6868 N.pl3     2 RES2    0.0000
     32 O5        -2.2457    9.7991    9.8495 O.2       2 RES2    0.0000
     33 O6        -2.0951    8.2734    8.3046 O.2       2 RES2    0.0000
     34 N11B      -1.2075   14.6610    7.4272 N.pl3     2 RES2    0.0000
     35 N12B      -0.9811   15.8567    6.8658 N.2       2 RES2    0.0000
     36 C5B       -0.9665   15.5292    5.6036 C.2       2 RES2    0.0000
     37 N13B      -1.1692   14.2282    5.2771 N.2       2 RES2    0.0000
     38 C6B       -1.3189   13.6941    6.4862 C.2       2 RES2    0.0000
     39 N14B      -1.2790   14.5986    8.8182 N.3       2 RES2    0.0000
     40 H5B       -2.0513   14.2048    9.0518 H         2 RES2    0.0000
     41 H6B       -0.5487   14.1529    9.1049 H         2 RES2    0.0000
     42 N15B      -0.8004   16.5572    4.5856 N.pl3     2 RES2    0.0000
     43 O5B       -0.6569   16.1933    3.4230 O.2       2 RES2    0.0000
     44 O6B       -0.8075   17.7190    4.9679 O.2       2 RES2    0.0000
@<TRIPOS>BOND
     1    1    2 1
     2    2    3 2
     3    3    4 1
     4    4    5 2
     5    5    1 1
     6    6    5 1
     7    7    6 1
     8    8    7 1
     9    9    8 2
    10   10    6 2
    11   11    1 1
    12   12   11 1
    13   13   11 1
    14   14    3 1
    15   15   14 2
    16   16   14 2
    17   17    7 1
    18   18   17 1
    19   19   17 1
    20   20    9 1
    21   21   20 2
    22   22   20 2
    23   23   24 1
    24   24   25 2
    25   25   26 1
    26   26   27 2
    27   27   23 1
    28   28   23 1
    29   29   28 1
    30   30   28 1
    31   31   25 1
    32   32   31 2
    33   33   31 2
    34   34   35 1
    35   35   36 2
    36   36   37 1
    37   37   38 2
    38   38   27 1
    39   39   34 1
    40   40   39 1
    41   41   39 1
    42   42   36 1
    43   43   42 2
    44   44   42 2
    45    9   10 1
    46   34   38 1
@<TRIPOS>SUBSTRUCTURE
     1 RES1 1
     2 RES2 23

@<TRIPOS>CRYSIN
   7.9693   12.9962   13.5861  90.0000 102.3360  90.0000 231 1

