# MOL2 file generated by ConQuest
# Please check atom types

@<TRIPOS>MOLECULE
BAFGUL01
    32    33     1
SMALL
NO_CHARGES
****
Generated from CSD

@<TRIPOS>ATOM
      1 O1         2.2034    3.9137    8.5022 O.2       1 RES1    0.0000
      2 O2         0.7987    2.6466    9.5351 O.2       1 RES1    0.0000
      3 O3         2.8346    3.7806    3.8478 O.2       1 RES1    0.0000
      4 O4         1.5850    2.5443    2.6037 O.2       1 RES1    0.0000
      5 O5        -3.5564   -1.4343    6.7255 O.3       1 RES1    0.0000
      6 H1        -2.9001   -0.7615    6.8040 H         1 RES1    0.0000
      7 N1         1.3360    3.0556    8.4910 N.pl3     1 RES1    0.0000
      8 N2         1.9272    2.9764    3.6927 N.pl3     1 RES1    0.0000
      9 N3        -1.8019    0.1231    8.0380 N.2       1 RES1    0.0000
     10 N4        -0.8021    1.0578    8.2064 N.pl3     1 RES1    0.0000
     11 H2        -0.5609    1.3359    9.0108 H         1 RES1    0.0000
     12 C1        -2.3242   -0.3133    9.1321 C.2       1 RES1    0.0000
     13 H3        -1.9973    0.0022    9.9434 H         1 RES1    0.0000
     14 C2        -0.1638    1.5748    7.1264 C.ar      1 RES1    0.0000
     15 C3         0.8948    2.5073    7.2251 C.ar      1 RES1    0.0000
     16 C4         1.5813    2.9655    6.1025 C.ar      1 RES1    0.0000
     17 H4         2.2791    3.5735    6.1880 H         1 RES1    0.0000
     18 C5         1.2069    2.5025    4.8738 C.ar      1 RES1    0.0000
     19 C6         0.1413    1.6305    4.7191 C.ar      1 RES1    0.0000
     20 H5        -0.1077    1.3459    3.8693 H         1 RES1    0.0000
     21 C7        -0.5465    1.1871    5.8160 C.ar      1 RES1    0.0000
     22 H6        -1.2766    0.6223    5.7006 H         1 RES1    0.0000
     23 C8        -3.3979   -1.2741    9.1378 C.ar      1 RES1    0.0000
     24 C9        -3.9864   -1.7937    7.9676 C.ar      1 RES1    0.0000
     25 C10       -5.0320   -2.6871    8.0583 C.ar      1 RES1    0.0000
     26 H7        -5.4113   -3.0313    7.2829 H         1 RES1    0.0000
     27 C11       -5.5219   -3.0765    9.2868 C.ar      1 RES1    0.0000
     28 H8        -6.2309   -3.6766    9.3315 H         1 RES1    0.0000
     29 C12       -4.9656   -2.5817   10.4514 C.ar      1 RES1    0.0000
     30 H9        -5.2958   -2.8485   11.2788 H         1 RES1    0.0000
     31 C13       -3.9174   -1.6914   10.3761 C.ar      1 RES1    0.0000
     32 H10       -3.5468   -1.3581   11.1607 H         1 RES1    0.0000
@<TRIPOS>BOND
     1    1    7 2
     2    2    7 2
     3    3    8 2
     4    4    8 2
     5    5    6 1
     6    7   15 1
     7    8   18 1
     8    9   10 1
     9   10   11 1
    10   12    9 2
    11   13   12 1
    12   14   10 1
    13   15   14 ar
    14   16   15 ar
    15   17   16 1
    16   18   16 ar
    17   19   18 ar
    18   20   19 1
    19   21   14 ar
    20   22   21 1
    21   23   12 1
    22   24    5 1
    23   25   24 ar
    24   26   25 1
    25   27   25 ar
    26   28   27 1
    27   29   27 ar
    28   30   29 1
    29   31   23 ar
    30   32   31 1
    31   19   21 ar
    32   23   24 ar
    33   29   31 ar
@<TRIPOS>SUBSTRUCTURE
     1 RES1 1

@<TRIPOS>CRYSIN
  13.8200    4.3515   25.1590  90.0000 123.0100  90.0000  14 1

