# MOL2 file generated by ConQuest
# Please check atom types

@<TRIPOS>MOLECULE
BAFHOH
    36    32     2
SMALL
USER_CHARGES
****
Generated from CSD

@<TRIPOS>ATOM
      1 O1         5.9535   -0.6501    1.0357 O.2       1 RES1    0.0000
      2 O2         4.5559   -1.9692    0.0235 O.2       1 RES1    0.0000
      3 O3         1.6855    0.3378    1.4253 O.3       1 RES1    0.0000
      4 O4         1.9117    2.2280    2.6942 O.2       1 RES1   -1.0000
      5 O5         8.9856    3.8674    4.1126 O.2       1 RES1    0.0000
      6 O6         7.5892    4.5654    5.6128 O.2       1 RES1    0.0000
      7 O7         5.7686    0.9239    6.8570 O.2       1 RES1   -1.0000
      8 O8         4.7999    5.6875    5.0846 O.2       1 RES1    0.0000
      9 O9         3.9684    6.2462    6.9889 O.2       1 RES1    0.0000
     10 O10        5.0045    2.6145    8.2300 O.3       1 RES1    0.0000
     11 N1         4.8263   -0.9959    0.7021 N.pl3     1 RES1    0.0000
     12 N2         2.5303   -0.5669    0.8519 N.2       1 RES1    0.0000
     13 N3         2.4910    1.3256    2.1301 N.pl3     1 RES1    1.0000
     14 N4         7.8616    3.9435    4.5960 N.pl3     1 RES1    0.0000
     15 N5         5.4537    2.0646    6.9340 N.pl3     1 RES1    1.0000
     16 N6         4.5240    5.4575    6.2414 N.pl3     1 RES1    0.0000
     17 N7         4.6460    3.9158    8.0294 N.2       1 RES1    0.0000
     18 C1         3.7222   -0.1720    1.1660 C.2       1 RES1    0.0000
     19 C2         3.7781    0.9958    1.9474 C.2       1 RES1    0.0000
     20 C3         4.8396    1.7875    2.5896 C.ar      1 RES1    0.0000
     21 C4         5.9903    2.1794    1.9110 C.ar      1 RES1    0.0000
     22 H1         6.1063    1.9532    0.9953 H         1 RES1    0.0000
     23 C5         6.9672    2.9015    2.5808 C.ar      1 RES1    0.0000
     24 H2         7.7592    3.1701    2.1292 H         1 RES1    0.0000
     25 C6         6.7793    3.2263    3.9085 C.ar      1 RES1    0.0000
     26 C7         5.6230    2.8612    4.6021 C.ar      1 RES1    0.0000
     27 C8         4.6554    2.1382    3.9228 C.ar      1 RES1    0.0000
     28 H3         3.8595    1.8800    4.3719 H         1 RES1    0.0000
     29 C9         5.3702    3.0555    6.0602 C.2       1 RES1    0.0000
     30 C10        4.8555    4.1472    6.7771 C.2       1 RES1    0.0000
     31 C11        5.1733    3.1648    7.0651 Du        2 SUP2    0.0000
     32 C12        5.2832    3.6411    5.8504 Du        2 SUP2    0.0000
     33 N8         4.8421    4.9238    5.9736 Du        2 SUP2    0.0000
     34 N9         5.5540    1.8439    7.5291 Du        2 SUP2    0.0000
     35 O11        4.4788    5.1275    7.3269 Du        2 SUP2    0.0000
     36 O12        5.8006    1.5946    8.6398 Du        2 SUP2    0.0000
@<TRIPOS>BOND
     1    1   11 2
     2    2   11 2
     3    3   12 1
     4    4   13 1
     5    5   14 2
     6    6   14 2
     7    7   15 1
     8    8   16 2
     9    9   16 2
    10   10   15 1
    11   11   18 1
    12   12   18 2
    13   13    3 1
    14   14   25 1
    15   15   29 2
    16   16   30 1
    17   17   10 1
    18   18   19 1
    19   19   13 2
    20   20   19 1
    21   21   20 ar
    22   22   21 1
    23   23   21 ar
    24   24   23 1
    25   25   23 ar
    26   26   25 ar
    27   27   20 ar
    28   28   27 1
    29   29   26 1
    30   30   17 2
    31   26   27 ar
    32   29   30 1
@<TRIPOS>SUBSTRUCTURE
     1 RES1 1
     2 SUP2 31

@<TRIPOS>CRYSIN
  13.4057   10.6094   19.2510  90.0000  90.0000  90.0000  61 1

