# MOL2 file generated by ConQuest
# Please check atom types

@<TRIPOS>MOLECULE
BAFHEW
    32    33     1
SMALL
NO_CHARGES
****
Generated from CSD

@<TRIPOS>ATOM
      1 C1         6.4245    4.5991    2.2293 C.ar      1 RES1    0.0000
      2 C2         6.0774    3.3984    2.9030 C.ar      1 RES1    0.0000
      3 C3         6.6158    3.0891    4.1482 C.ar      1 RES1    0.0000
      4 H1         6.3931    2.2930    4.5732 H         1 RES1    0.0000
      5 C4         7.4772    3.9737    4.7360 C.ar      1 RES1    0.0000
      6 C5         7.8262    5.1706    4.1191 C.ar      1 RES1    0.0000
      7 H2         8.4156    5.7564    4.5361 H         1 RES1    0.0000
      8 C6         7.3006    5.4818    2.9028 C.ar      1 RES1    0.0000
      9 H3         7.5233    6.2921    2.5053 H         1 RES1    0.0000
     10 C7         5.8799    6.2649   -0.7844 C.2       1 RES1    0.0000
     11 H4         5.3080    5.5733   -1.1933 H         1 RES1    0.0000
     12 C8         6.2057    7.4352   -1.5802 C.ar      1 RES1    0.0000
     13 C9         5.6267    7.5663   -2.8509 C.ar      1 RES1    0.0000
     14 H5         5.0660    6.8964   -3.1699 H         1 RES1    0.0000
     15 C10        5.8764    8.6699   -3.6348 C.ar      1 RES1    0.0000
     16 H6         5.4920    8.7367   -4.4793 H         1 RES1    0.0000
     17 C11        6.6979    9.6781   -3.1686 C.ar      1 RES1    0.0000
     18 C12        7.3010    9.5606   -1.9150 C.ar      1 RES1    0.0000
     19 H7         7.8678   10.2299   -1.6059 H         1 RES1    0.0000
     20 C13        7.0566    8.4552   -1.1387 C.ar      1 RES1    0.0000
     21 H8         7.4632    8.3829   -0.3064 H         1 RES1    0.0000
     22 N1         6.3787    6.0892    0.3916 N.2       1 RES1    0.0000
     23 N2         5.9567    4.9164    0.9957 N.pl3     1 RES1    0.0000
     24 H9         5.3822    4.2558    0.4941 H         1 RES1    0.0000
     25 N3         5.1894    2.4174    2.3343 N.pl3     1 RES1    0.0000
     26 N4         8.1036    3.6106    6.0003 N.pl3     1 RES1    0.0000
     27 O1         4.7265    2.6184    1.2022 O.2       1 RES1    0.0000
     28 O2         4.9043    1.4215    2.9898 O.2       1 RES1    0.0000
     29 O3         8.9562    4.3813    6.4381 O.2       1 RES1    0.0000
     30 O4         7.7721    2.5782    6.5594 O.2       1 RES1    0.0000
     31 O5         6.9753   10.8027   -3.8819 O.3       1 RES1    0.0000
     32 H10        6.3065   10.9549   -4.5831 H         1 RES1    0.0000
@<TRIPOS>BOND
     1    1    2 ar
     2    2    3 ar
     3    3    4 1
     4    5    3 ar
     5    6    5 ar
     6    7    6 1
     7    8    1 ar
     8    9    8 1
     9   10   11 1
    10   12   10 1
    11   13   12 ar
    12   14   13 1
    13   15   13 ar
    14   16   15 1
    15   17   15 ar
    16   18   17 ar
    17   19   18 1
    18   20   12 ar
    19   21   20 1
    20   22   10 2
    21   23    1 1
    22   24   23 1
    23   25    2 1
    24   26    5 1
    25   27   25 2
    26   28   25 2
    27   29   26 2
    28   30   26 2
    29   31   17 1
    30   32   31 1
    31    6    8 ar
    32   18   20 ar
    33   22   23 1
@<TRIPOS>SUBSTRUCTURE
     1 RES1 1

@<TRIPOS>CRYSIN
   8.4297    6.1857   24.7150  90.0000  91.4880  90.0000 231 1

