# MOL2 file generated by ConQuest
# Please check atom types

@<TRIPOS>MOLECULE
BAGMEC
    27    27     1
SMALL
NO_CHARGES
****
Generated from CSD

@<TRIPOS>ATOM
      1 C1         7.0824   -0.6942   12.5901 C.3       1 RES1    0.0000
      2 C2         6.4385   -1.0926   11.2818 C.3       1 RES1    0.0000
      3 C3         7.9592   -0.2070    9.4376 C.3       1 RES1    0.0000
      4 C4         9.4663   -0.1769    9.5146 C.3       1 RES1    0.0000
      5 C5         9.9878    0.9424   11.7470 C.3       1 RES1    0.0000
      6 C6         9.0869    0.8549   12.9551 C.3       1 RES1    0.0000
      7 N1         7.6785    0.6426   12.6368 N.pl3     1 RES1    0.0000
      8 N2         7.3708   -1.3159   10.1825 N.pl3     1 RES1    0.0000
      9 N3         9.9715   -0.2285   10.8773 N.pl3     1 RES1    0.0000
     10 N4         6.9225    1.7202   12.7143 N.2       1 RES1    0.0000
     11 N5         7.5107   -2.5698    9.8025 N.2       1 RES1    0.0000
     12 N6        10.5183   -1.3722   11.2285 N.2       1 RES1    0.0000
     13 O1         5.7110    1.5183   12.5648 O.2       1 RES1    0.0000
     14 O2         8.2263   -2.7368    8.8034 O.2       1 RES1    0.0000
     15 O3        10.9773   -1.3948   12.3804 O.2       1 RES1    0.0000
     16 H1         7.7615   -1.3165   12.7973 H         1 RES1    0.0000
     17 H2         6.3933   -0.7192   13.2660 H         1 RES1    0.0000
     18 H3         5.8218   -0.4582   11.0042 H         1 RES1    0.0000
     19 H4         5.9672   -1.9487   11.4347 H         1 RES1    0.0000
     20 H5         7.6942   -0.2668    8.5238 H         1 RES1    0.0000
     21 H6         7.5722    0.5858    9.8084 H         1 RES1    0.0000
     22 H7         9.7801    0.5916    9.1497 H         1 RES1    0.0000
     23 H8         9.8461   -0.9395    9.0786 H         1 RES1    0.0000
     24 H9        10.8763    1.0381   12.0688 H         1 RES1    0.0000
     25 H10        9.7406    1.6877   11.1805 H         1 RES1    0.0000
     26 H11        9.3383    0.1276   13.5312 H         1 RES1    0.0000
     27 H12        9.1235    1.6703   13.4560 H         1 RES1    0.0000
@<TRIPOS>BOND
     1    1    2 1
     2    2    8 1
     3    3    4 1
     4    4    9 1
     5    5    6 1
     6    6    7 1
     7    7    1 1
     8    8    3 1
     9    9    5 1
    10   10    7 1
    11   11    8 1
    12   12    9 1
    13   13   10 2
    14   14   11 2
    15   15   12 2
    16   16    1 1
    17   17    1 1
    18   18    2 1
    19   19    2 1
    20   20    3 1
    21   21    3 1
    22   22    4 1
    23   23    4 1
    24   24    5 1
    25   25    5 1
    26   26    6 1
    27   27    6 1
@<TRIPOS>SUBSTRUCTURE
     1 RES1 1

@<TRIPOS>CRYSIN
  12.3314    5.7996   13.7077  90.0000  94.4460  90.0000  14 1

