# MOL2 file generated by ConQuest
# Please check atom types

@<TRIPOS>MOLECULE
BAGQEF
    66    70     2
SMALL
USER_CHARGES
****
Generated from CSD

@<TRIPOS>ATOM
      1 O1        -2.1111    9.6921   -1.1962 O.2       1 RES1   -1.0000
      2 O2         2.1751    7.2092    0.6727 O.2       1 RES1   -1.0000
      3 O3        -0.1185    4.6309   -6.6952 O.3       1 RES1    0.0000
      4 N1        -1.0647    9.1471   -0.7347 N.pl3     1 RES1    1.0000
      5 N2        -0.5122    8.1878   -1.4534 N.ar      1 RES1    0.0000
      6 N3         1.1292    7.8778    0.2480 N.pl3     1 RES1    1.0000
      7 N4         1.1620    6.5677   -1.6233 N.3       1 RES1    0.0000
      8 C1        -0.5247    9.5774    0.4776 C.ar      1 RES1    0.0000
      9 C2        -1.1018   10.6366    1.1939 C.ar      1 RES1    0.0000
     10 C3        -0.5247   11.0272    2.3603 C.ar      1 RES1    0.0000
     11 C4         0.6164   10.3812    2.8448 C.ar      1 RES1    0.0000
     12 C5         1.1805    9.3322    2.1789 C.ar      1 RES1    0.0000
     13 C6         0.6040    8.9235    0.9643 C.ar      1 RES1    0.0000
     14 C7         0.5761    7.5713   -0.9528 C.ar      1 RES1    0.0000
     15 C8         0.7899    6.0966   -2.9159 C.ar      1 RES1    0.0000
     16 C9         0.5461    6.9401   -3.9813 C.ar      1 RES1    0.0000
     17 C10        0.2552    6.4122   -5.2257 C.ar      1 RES1    0.0000
     18 C11        0.2180    5.0532   -5.4324 C.ar      1 RES1    0.0000
     19 C12        0.4933    4.2040   -4.3808 C.ar      1 RES1    0.0000
     20 C13        0.7719    4.7353   -3.1295 C.ar      1 RES1    0.0000
     21 C14       -0.1446    3.2288   -6.9638 C.3       1 RES1    0.0000
     22 O4         6.7969    1.6678    1.2238 O.2       2 RES2   -1.0000
     23 O5         2.7307    4.4345   -0.7324 O.2       2 RES2   -1.0000
     24 O6         4.9434    7.2046    6.5574 O.3       2 RES2    0.0000
     25 N5         5.8335    2.3058    0.7278 N.pl3     2 RES2    1.0000
     26 N6         5.3249    3.2958    1.4350 N.ar      2 RES2    0.0000
     27 N7         3.7823    3.7510   -0.3168 N.pl3     2 RES2    1.0000
     28 N8         3.7505    5.0146    1.5820 N.3       2 RES2    0.0000
     29 C15        5.3397    1.9618   -0.5373 C.ar      2 RES2    0.0000
     30 C16        5.8681    0.8810   -1.2490 C.ar      2 RES2    0.0000
     31 C17        5.3653    0.6017   -2.4797 C.ar      2 RES2    0.0000
     32 C18        4.3514    1.3873   -3.0284 C.ar      2 RES2    0.0000
     33 C19        3.8125    2.4318   -2.3419 C.ar      2 RES2    0.0000
     34 C20        4.3060    2.7247   -1.0699 C.ar      2 RES2    0.0000
     35 C21        4.3171    4.0031    0.9023 C.ar      2 RES2    0.0000
     36 C22        4.1218    5.4994    2.8677 C.ar      2 RES2    0.0000
     37 C23        5.4279    5.5539    3.3108 C.ar      2 RES2    0.0000
     38 C24        5.7356    6.1056    4.5392 C.ar      2 RES2    0.0000
     39 C25        4.7374    6.6211    5.3290 C.ar      2 RES2    0.0000
     40 C26        3.4286    6.5507    4.9020 C.ar      2 RES2    0.0000
     41 C27        3.1219    5.9967    3.6736 C.ar      2 RES2    0.0000
     42 C28        6.2332    7.7064    6.8444 C.3       2 RES2    0.0000
     43 H1         1.8726    5.8967   -1.1136 H         1 RES1    0.0000
     44 H2        -1.8799   11.0737    0.8679 H         1 RES1    0.0000
     45 H3        -0.9026   11.7458    2.8539 H         1 RES1    0.0000
     46 H4         1.0092   10.6809    3.6553 H         1 RES1    0.0000
     47 H5         1.9460    8.8883    2.5256 H         1 RES1    0.0000
     48 H6         0.5783    7.8824   -3.8596 H         1 RES1    0.0000
     49 H7         0.0767    6.9991   -5.9513 H         1 RES1    0.0000
     50 H8         0.4916    3.2629   -4.5117 H         1 RES1    0.0000
     51 H9         0.9548    4.1484   -2.4062 H         1 RES1    0.0000
     52 H10       -0.4195    3.0801   -7.8937 H         1 RES1    0.0000
     53 H11       -0.7815    2.7928   -6.3600 H         1 RES1    0.0000
     54 H12        0.7493    2.8530   -6.8237 H         1 RES1    0.0000
     55 H13        3.0021    5.4563    1.0998 H         2 RES2    0.0000
     56 H14        6.5667    0.3531   -0.8794 H         2 RES2    0.0000
     57 H15        5.7065   -0.1362   -2.9687 H         2 RES2    0.0000
     58 H16        4.0304    1.1887   -3.9009 H         2 RES2    0.0000
     59 H17        3.1136    2.9518   -2.7208 H         2 RES2    0.0000
     60 H18        6.1234    5.2065    2.7644 H         2 RES2    0.0000
     61 H19        6.6377    6.1295    4.8354 H         2 RES2    0.0000
     62 H20        2.7338    6.8867    5.4553 H         2 RES2    0.0000
     63 H21        2.2171    5.9569    3.3866 H         2 RES2    0.0000
     64 H22        6.2407    8.0913    7.7467 H         2 RES2    0.0000
     65 H23        6.4667    8.3989    6.1923 H         2 RES2    0.0000
     66 H24        6.8862    6.9776    6.7962 H         2 RES2    0.0000
@<TRIPOS>BOND
     1    1    4 1
     2    2    6 1
     3    3   18 1
     4    4    5 ar
     5    5   14 ar
     6    6   13 ar
     7    7   14 1
     8    8    4 ar
     9    9    8 ar
    10   10    9 ar
    11   11   10 ar
    12   12   11 ar
    13   13    8 ar
    14   14    6 ar
    15   15    7 1
    16   16   15 ar
    17   17   16 ar
    18   18   17 ar
    19   19   18 ar
    20   20   15 ar
    21   21    3 1
    22   22   25 1
    23   23   27 1
    24   24   39 1
    25   25   26 ar
    26   26   35 ar
    27   27   34 ar
    28   28   35 1
    29   29   25 ar
    30   30   29 ar
    31   31   30 ar
    32   32   31 ar
    33   33   32 ar
    34   34   29 ar
    35   35   27 ar
    36   36   28 1
    37   37   36 ar
    38   38   37 ar
    39   39   38 ar
    40   40   39 ar
    41   41   36 ar
    42   42   24 1
    43   43    7 1
    44   44    9 1
    45   45   10 1
    46   46   11 1
    47   47   12 1
    48   48   16 1
    49   49   17 1
    50   50   19 1
    51   51   20 1
    52   52   21 1
    53   53   21 1
    54   54   21 1
    55   55   28 1
    56   56   30 1
    57   57   31 1
    58   58   32 1
    59   59   33 1
    60   60   37 1
    61   61   38 1
    62   62   40 1
    63   63   41 1
    64   64   42 1
    65   65   42 1
    66   66   42 1
    67   12   13 ar
    68   19   20 ar
    69   33   34 ar
    70   40   41 ar
@<TRIPOS>SUBSTRUCTURE
     1 RES1 1
     2 RES2 22

@<TRIPOS>CRYSIN
   9.9760   11.3530   23.3190  90.0000 100.0650  90.0000 231 1

