# MOL2 file generated by ConQuest
# Please check atom types

@<TRIPOS>MOLECULE
BAGVIP
    54    57     1
SMALL
NO_CHARGES
****
Generated from CSD

@<TRIPOS>ATOM
      1 C1         4.9354    0.7080    5.0498 C.3       1 RES1    0.0000
      2 H1         5.7322    1.2031    5.2950 H         1 RES1    0.0000
      3 H2         5.1486    0.1421    4.2908 H         1 RES1    0.0000
      4 C2         4.4830   -0.1304    6.1989 C.3       1 RES1    0.0000
      5 H3         4.2851    0.4349    6.9495 H         1 RES1    0.0000
      6 H4         5.1778   -0.7482    6.4376 H         1 RES1    0.0000
      7 H5         3.6947   -0.6179    5.9481 H         1 RES1    0.0000
      8 C3         2.6848    2.2810    1.7349 C.2       1 RES1    0.0000
      9 C4         2.0804    3.1605    2.8006 C.3       1 RES1    0.0000
     10 H6         1.7241    3.9455    2.3342 H         1 RES1    0.0000
     11 C5         3.1479    3.6956    3.7849 C.3       1 RES1    0.0000
     12 H7         2.7222    3.7684    4.6642 H         1 RES1    0.0000
     13 C6         4.3041    2.7177    3.9228 C.3       1 RES1    0.0000
     14 H8         5.0248    3.1686    4.4097 H         1 RES1    0.0000
     15 C7         1.8486    1.8577    0.5734 C.ar      1 RES1    0.0000
     16 C8         0.8641    2.6978    0.0529 C.ar      1 RES1    0.0000
     17 H9         0.6810    3.5090    0.4699 H         1 RES1    0.0000
     18 C9         0.1533    2.3306   -1.0865 C.ar      1 RES1    0.0000
     19 H10       -0.5001    2.8970   -1.4293 H         1 RES1    0.0000
     20 C10        0.4189    1.1206   -1.7109 C.ar      1 RES1    0.0000
     21 H11       -0.0482    0.8787   -2.4783 H         1 RES1    0.0000
     22 C11        1.3770    0.2782   -1.1913 C.ar      1 RES1    0.0000
     23 H12        1.5493   -0.5370   -1.6056 H         1 RES1    0.0000
     24 C12        2.0866    0.6374   -0.0543 C.ar      1 RES1    0.0000
     25 H13        2.7268    0.0584    0.2923 H         1 RES1    0.0000
     26 C13        0.8661    2.4826    3.4898 C.3       1 RES1    0.0000
     27 C14        0.2248    3.4623    4.4635 C.ar      1 RES1    0.0000
     28 C15       -0.3782    4.6198    3.9851 C.ar      1 RES1    0.0000
     29 H14       -0.4067    4.7772    3.0685 H         1 RES1    0.0000
     30 C16       -0.9375    5.5420    4.8571 C.ar      1 RES1    0.0000
     31 H15       -1.3355    6.3142    4.5258 H         1 RES1    0.0000
     32 C17       -0.9024    5.3113    6.2183 C.ar      1 RES1    0.0000
     33 H16       -1.2804    5.9268    6.8040 H         1 RES1    0.0000
     34 C18       -0.3091    4.1728    6.7061 C.ar      1 RES1    0.0000
     35 H17       -0.2838    4.0201    7.6236 H         1 RES1    0.0000
     36 C19        0.2551    3.2459    5.8336 C.ar      1 RES1    0.0000
     37 H18        0.6543    2.4766    6.1705 H         1 RES1    0.0000
     38 C20        3.6154    5.0816    3.3954 C.ar      1 RES1    0.0000
     39 C21        3.1947    6.1671    4.1589 C.ar      1 RES1    0.0000
     40 H19        2.6527    6.0226    4.9006 H         1 RES1    0.0000
     41 C22        3.5718    7.4605    3.8294 C.ar      1 RES1    0.0000
     42 H20        3.2780    8.1740    4.3482 H         1 RES1    0.0000
     43 C23        4.3739    7.6939    2.7440 C.ar      1 RES1    0.0000
     44 H21        4.6386    8.5604    2.5342 H         1 RES1    0.0000
     45 C24        4.7882    6.6279    1.9614 C.ar      1 RES1    0.0000
     46 H22        5.3256    6.7829    1.2182 H         1 RES1    0.0000
     47 C25        4.4068    5.3273    2.2785 C.ar      1 RES1    0.0000
     48 H23        4.6821    4.6200    1.7412 H         1 RES1    0.0000
     49 O1         4.8234    2.2877    2.6732 O.3       1 RES1    0.0000
     50 O2         3.8734    1.6250    4.6985 O.3       1 RES1    0.0000
     51 O3         1.1991    1.2425    4.0954 O.3       1 RES1    0.0000
     52 N1         3.9067    1.8921    1.6563 N.2       1 RES1    0.0000
     53 H24        0.1977    2.2699    2.7985 H         1 RES1    0.0000
     54 H25        2.0296    1.2625    4.4251 H         1 RES1    0.0000
@<TRIPOS>BOND
     1    1    2 1
     2    3    1 1
     3    4    1 1
     4    5    4 1
     5    6    4 1
     6    7    4 1
     7    8    9 1
     8    9   10 1
     9   11    9 1
    10   12   11 1
    11   13   11 1
    12   14   13 1
    13   15    8 1
    14   16   15 ar
    15   17   16 1
    16   18   16 ar
    17   19   18 1
    18   20   18 ar
    19   21   20 1
    20   22   20 ar
    21   23   22 1
    22   24   15 ar
    23   25   24 1
    24   26    9 1
    25   27   26 1
    26   28   27 ar
    27   29   28 1
    28   30   28 ar
    29   31   30 1
    30   32   30 ar
    31   33   32 1
    32   34   32 ar
    33   35   34 1
    34   36   27 ar
    35   37   36 1
    36   38   11 1
    37   39   38 ar
    38   40   39 1
    39   41   39 ar
    40   42   41 1
    41   43   41 ar
    42   44   43 1
    43   45   43 ar
    44   46   45 1
    45   47   38 ar
    46   48   47 1
    47   49   13 1
    48   50    1 1
    49   51   26 1
    50   52    8 2
    51   53   26 1
    52   54   51 1
    53   13   50 1
    54   22   24 ar
    55   34   36 ar
    56   45   47 ar
    57   49   52 1
@<TRIPOS>SUBSTRUCTURE
     1 RES1 1

@<TRIPOS>CRYSIN
   7.8805    9.5857   14.4571  75.4010  89.5260  82.4810   2 1

