# MOL2 file generated by ConQuest
# Please check atom types

@<TRIPOS>MOLECULE
BAHDIY
    68    70     2
SMALL
NO_CHARGES
****
Generated from CSD

@<TRIPOS>ATOM
      1 O1         5.9673    4.4687    8.4918 O.2       1 RES1    0.0000
      2 O2         4.7618   11.3060    9.2387 O.2       2 RES2    0.0000
      3 N1         1.6258   -0.6755    3.0731 N.ar      1 RES1    0.0000
      4 N2         2.1820    1.2804    1.8473 N.ar      1 RES1    0.0000
      5 N3         5.0647    3.5940    8.7492 N.3       1 RES1    0.0000
      6 N4         3.1306    5.1253    3.4566 N.ar      2 RES2    0.0000
      7 N5         3.4288    7.1754    2.3029 N.ar      2 RES2    0.0000
      8 N6         4.7239   10.0438    9.4505 N.3       2 RES2    0.0000
      9 C1         1.6204    0.0865    1.9955 C.ar      1 RES1    0.0000
     10 H1         1.1711   -0.2514    1.2550 H         1 RES1    0.0000
     11 C2         2.2621   -0.1693    4.1271 C.ar      1 RES1    0.0000
     12 H2         2.3052   -0.6829    4.9021 H         1 RES1    0.0000
     13 C3         2.8611    1.0750    4.1352 C.ar      1 RES1    0.0000
     14 C4         2.7876    1.7641    2.9341 C.ar      1 RES1    0.0000
     15 H3         3.1799    2.6061    2.8829 H         1 RES1    0.0000
     16 C5         3.4796    1.6565    5.3457 C.ar      1 RES1    0.0000
     17 C6         2.9141    1.4566    6.6002 C.ar      1 RES1    0.0000
     18 H4         2.1738    0.8991    6.6778 H         1 RES1    0.0000
     19 C7         3.4165    2.0576    7.7285 C.ar      1 RES1    0.0000
     20 H5         3.0134    1.9040    8.5529 H         1 RES1    0.0000
     21 C8         4.5234    2.8931    7.6460 C.ar      1 RES1    0.0000
     22 C9         5.1246    3.0740    6.4035 C.ar      1 RES1    0.0000
     23 H6         5.8806    3.6115    6.3299 H         1 RES1    0.0000
     24 C10        4.6099    2.4635    5.2816 C.ar      1 RES1    0.0000
     25 H7         5.0281    2.5939    4.4610 H         1 RES1    0.0000
     26 C11        4.6126    3.4738   10.1814 C.3       1 RES1    0.0000
     27 C12        4.6829    2.0257   10.6323 C.3       1 RES1    0.0000
     28 H8         5.5835    1.7063   10.5436 H         1 RES1    0.0000
     29 H9         4.0992    1.4920   10.0876 H         1 RES1    0.0000
     30 H10        4.4091    1.9633   11.5501 H         1 RES1    0.0000
     31 C13        5.5830    4.2912   11.0275 C.3       1 RES1    0.0000
     32 H11        6.4631    3.9142   10.9586 H         1 RES1    0.0000
     33 H12        5.2995    4.2754   11.9440 H         1 RES1    0.0000
     34 H13        5.5978    5.1976   10.7126 H         1 RES1    0.0000
     35 C14        3.2232    4.0778   10.3001 C.3       1 RES1    0.0000
     36 H14        2.6038    3.5596    9.7806 H         1 RES1    0.0000
     37 H15        3.2379    4.9806    9.9745 H         1 RES1    0.0000
     38 H16        2.9502    4.0745   11.2208 H         1 RES1    0.0000
     39 C15        3.1995    5.8764    2.3753 C.ar      2 RES2    0.0000
     40 H17        3.0722    5.4387    1.5645 H         2 RES2    0.0000
     41 C16        3.3118    5.7671    4.6104 C.ar      2 RES2    0.0000
     42 H18        3.2620    5.2782    5.4004 H         2 RES2    0.0000
     43 C17        3.5703    7.1226    4.6921 C.ar      2 RES2    0.0000
     44 C18        3.6174    7.7827    3.4741 C.ar      2 RES2    0.0000
     45 H19        3.7891    8.6966    3.4744 H         2 RES2    0.0000
     46 C19        3.8043    7.8242    5.9748 C.ar      2 RES2    0.0000
     47 C20        4.5080    7.2322    7.0140 C.ar      2 RES2    0.0000
     48 H20        4.7962    6.3529    6.9239 H         2 RES2    0.0000
     49 C21        4.7897    7.9191    8.1777 C.ar      2 RES2    0.0000
     50 H21        5.2567    7.4974    8.8624 H         2 RES2    0.0000
     51 C22        4.3795    9.2373    8.3304 C.ar      2 RES2    0.0000
     52 C23        3.6457    9.8226    7.3136 C.ar      2 RES2    0.0000
     53 H22        3.3417   10.6956    7.4110 H         2 RES2    0.0000
     54 C24        3.3600    9.1307    6.1607 C.ar      2 RES2    0.0000
     55 H23        2.8611    9.5424    5.4924 H         2 RES2    0.0000
     56 C25        4.9144    9.5558   10.8594 C.3       2 RES2    0.0000
     57 C26        3.7552    8.6417   11.2180 C.3       2 RES2    0.0000
     58 H24        2.9286    9.1179   11.1127 H         2 RES2    0.0000
     59 H25        3.8448    8.3534   12.1292 H         2 RES2    0.0000
     60 H26        3.7597    7.8756   10.6381 H         2 RES2    0.0000
     61 C27        4.8957   10.7605   11.7835 C.3       2 RES2    0.0000
     62 H27        4.0535   11.2144   11.6993 H         2 RES2    0.0000
     63 H28        5.6072   11.3591   11.5452 H         2 RES2    0.0000
     64 H29        5.0127   10.4691   12.6909 H         2 RES2    0.0000
     65 C28        6.2630    8.8676   11.0072 C.3       2 RES2    0.0000
     66 H30        6.2999    8.1070   10.4231 H         2 RES2    0.0000
     67 H31        6.3772    8.5790   11.9155 H         2 RES2    0.0000
     68 H32        6.9628    9.4830   10.7760 H         2 RES2    0.0000
@<TRIPOS>BOND
     1    1    5 1
     2    2    8 1
     3    3    9 ar
     4    4    9 ar
     5    5   21 1
     6    6   39 ar
     7    7   39 ar
     8    8   51 1
     9    9   10 1
    10   11    3 ar
    11   12   11 1
    12   13   11 ar
    13   14    4 ar
    14   15   14 1
    15   16   13 1
    16   17   16 ar
    17   18   17 1
    18   19   17 ar
    19   20   19 1
    20   21   19 ar
    21   22   21 ar
    22   23   22 1
    23   24   16 ar
    24   25   24 1
    25   26    5 1
    26   27   26 1
    27   28   27 1
    28   29   27 1
    29   30   27 1
    30   31   26 1
    31   32   31 1
    32   33   31 1
    33   34   31 1
    34   35   26 1
    35   36   35 1
    36   37   35 1
    37   38   35 1
    38   39   40 1
    39   41    6 ar
    40   42   41 1
    41   43   41 ar
    42   44    7 ar
    43   45   44 1
    44   46   43 1
    45   47   46 ar
    46   48   47 1
    47   49   47 ar
    48   50   49 1
    49   51   49 ar
    50   52   51 ar
    51   53   52 1
    52   54   46 ar
    53   55   54 1
    54   56    8 1
    55   57   56 1
    56   58   57 1
    57   59   57 1
    58   60   57 1
    59   61   56 1
    60   62   61 1
    61   63   61 1
    62   64   61 1
    63   65   56 1
    64   66   65 1
    65   67   65 1
    66   68   65 1
    67   13   14 ar
    68   22   24 ar
    69   43   44 ar
    70   52   54 ar
@<TRIPOS>SUBSTRUCTURE
     1 RES1 1
     2 RES2 2

@<TRIPOS>CRYSIN
   8.6102   12.2878   12.5928  82.9002  82.7916  79.6236   2 1

