# MOL2 file generated by ConQuest
# Please check atom types

@<TRIPOS>MOLECULE
BAHPOP
    73    76     1
SMALL
NO_CHARGES
****
Generated from CSD

@<TRIPOS>ATOM
      1 C1         0.9322   -2.2110   11.0912 C.3       1 RES1    0.0000
      2 C2         0.8576   -2.6672   12.5506 C.3       1 RES1    0.0000
      3 C3         1.6912   -1.8065   13.4287 C.3       1 RES1    0.0000
      4 C4         3.1601   -1.7233   13.0370 C.3       1 RES1    0.0000
      5 C5         3.2586   -1.2874   11.5293 C.3       1 RES1    0.0000
      6 C6         4.6652   -1.1230   10.9986 C.3       1 RES1    0.0000
      7 C7         4.6609   -0.4267    9.6298 C.3       1 RES1    0.0000
      8 C8         3.7990   -1.1083    8.5685 C.3       1 RES1    0.0000
      9 C9         2.3960   -1.4204    9.1560 C.3       1 RES1    0.0000
     10 C10        2.3757   -2.1408   10.5711 C.3       1 RES1    0.0000
     11 C11        1.4624   -2.0540    8.1200 C.3       1 RES1    0.0000
     12 C12        1.3378   -1.1748    6.8691 C.3       1 RES1    0.0000
     13 C13        2.6661   -0.7665    6.3258 C.2       1 RES1    0.0000
     14 C14        3.5527   -0.0831    7.3998 C.3       1 RES1    0.0000
     15 C15        4.7992    0.5449    6.8059 C.3       1 RES1    0.0000
     16 C16        4.4783    1.7972    5.8878 C.3       1 RES1    0.0000
     17 C17        4.2611    3.0957    6.6248 C.2       1 RES1    0.0000
     18 C18        4.0286    4.2650    5.6920 C.3       1 RES1    0.0000
     19 C19        3.0305   -1.0732    5.0939 C.2       1 RES1    0.0000
     20 C20        4.5443   -2.3347    8.0315 C.3       1 RES1    0.0000
     21 C21        2.9146   -3.5575   10.3921 C.2       1 RES1    0.0000
     22 C22        3.8692   -3.0089   13.3466 C.3       1 RES1    0.0000
     23 C23        3.8142   -0.6169   13.8751 C.3       1 RES1    0.0000
     24 O1         2.2272   -4.4885   10.0763 O.2       1 RES1    0.0000
     25 N1         4.2973    3.1382    7.9094 N.2       1 RES1    0.0000
     26 N2         4.1415    4.4146    8.4422 N.pl3     1 RES1    0.0000
     27 C24        4.1459    4.5088    9.8530 C.ar      1 RES1    0.0000
     28 C25        4.0322    5.7740   10.4848 C.ar      1 RES1    0.0000
     29 C26        4.0162    5.8627   11.8683 C.ar      1 RES1    0.0000
     30 C27        4.0365    4.7230   12.5990 C.ar      1 RES1    0.0000
     31 C28        4.1271    3.4559   11.9862 C.ar      1 RES1    0.0000
     32 C29        4.1611    3.3599   10.6448 C.ar      1 RES1    0.0000
     33 N3         3.9554    7.0061    9.7393 N.pl3     1 RES1    0.0000
     34 O2         3.9489    6.9765    8.5348 O.2       1 RES1    0.0000
     35 O3         3.9206    8.0238   10.3816 O.2       1 RES1    0.0000
     36 N4         4.0365    4.8449   14.0688 N.pl3     1 RES1    0.0000
     37 O4         4.1292    5.9421   14.5574 O.2       1 RES1    0.0000
     38 O5         4.0141    3.8216   14.6837 O.2       1 RES1    0.0000
     39 H1         0.3766   -1.2560   10.8870 H         1 RES1    0.0000
     40 H2         0.3259   -2.7891   10.4658 H         1 RES1    0.0000
     41 H3        -0.1738   -3.1401   12.8875 H         1 RES1    0.0000
     42 H4         1.1879   -3.6573   12.5085 H         1 RES1    0.0000
     43 H5         1.5572   -1.9025   14.5511 H         1 RES1    0.0000
     44 H6         1.1589   -0.8866   13.2876 H         1 RES1    0.0000
     45 H7         2.7161   -0.2771   11.4766 H         1 RES1    0.0000
     46 H8         5.1570   -2.0872   10.9291 H         1 RES1    0.0000
     47 H9         5.4323   -0.5911   11.6451 H         1 RES1    0.0000
     48 H10        4.2444    0.3509    9.7499 H         1 RES1    0.0000
     49 H11        5.6713   -0.1108    9.3919 H         1 RES1    0.0000
     50 H12        2.0498   -0.3325    9.3498 H         1 RES1    0.0000
     51 H13        0.4346   -2.1611    8.5074 H         1 RES1    0.0000
     52 H14        1.7600   -3.0292    7.9810 H         1 RES1    0.0000
     53 H15        0.9706   -0.2955    7.1808 H         1 RES1    0.0000
     54 H16        0.5867   -1.4777    6.2332 H         1 RES1    0.0000
     55 H17        3.0131    0.7019    7.8546 H         1 RES1    0.0000
     56 H18        3.9257   -0.6465    4.7381 H         1 RES1    0.0000
     57 H19        2.1439   -1.5516    4.5064 H         1 RES1    0.0000
     58 H20        4.1792   -3.6388   10.4027 H         1 RES1    0.0000
     59 H21        4.8166   -3.3433   12.8243 H         1 RES1    0.0000
     60 H22        3.3245   -3.7681   12.9296 H         1 RES1    0.0000
     61 H23        3.8678   -3.4541   14.1510 H         1 RES1    0.0000
     62 H24        3.6577    0.3325   13.6035 H         1 RES1    0.0000
     63 H25        3.6577   -0.8681   14.8038 H         1 RES1    0.0000
     64 H26        4.9252   -0.7573   13.8772 H         1 RES1    0.0000
     65 H27        5.1136   -2.0872    7.3914 H         1 RES1    0.0000
     66 H28        5.0846   -2.9738    8.6548 H         1 RES1    0.0000
     67 H29        5.4250    2.1242    5.2645 H         1 RES1    0.0000
     68 H30        3.2014    5.0426    5.9805 H         1 RES1    0.0000
     69 H31        4.7152    4.8948    5.9805 H         1 RES1    0.0000
     70 H32        3.9257    4.2668    4.7802 H         1 RES1    0.0000
     71 H33        4.2227    6.7050   12.6137 H         1 RES1    0.0000
     72 H34        4.5196    2.7707   12.8033 H         1 RES1    0.0000
     73 H35        3.9329    2.3273   10.0447 H         1 RES1    0.0000
@<TRIPOS>BOND
     1    1    2 1
     2    2    3 1
     3    3    4 1
     4    4    5 1
     5    5    6 1
     6    6    7 1
     7    7    8 1
     8    8    9 1
     9    9   10 1
    10   10    1 1
    11   11    9 1
    12   12   11 1
    13   13   12 1
    14   14    8 1
    15   15   14 1
    16   16   15 1
    17   17   16 1
    18   18   17 1
    19   19   13 2
    20   20    8 1
    21   21   10 1
    22   22    4 1
    23   23    4 1
    24   24   21 2
    25   25   17 2
    26   26   25 1
    27   27   26 1
    28   28   27 ar
    29   29   28 ar
    30   30   29 ar
    31   31   30 ar
    32   32   27 ar
    33   33   28 1
    34   34   33 2
    35   35   33 2
    36   36   30 1
    37   37   36 2
    38   38   36 2
    39   39    1 1
    40   40    1 1
    41   41    2 1
    42   42    2 1
    43   43    3 1
    44   44    3 1
    45   45    5 1
    46   46    6 1
    47   47    6 1
    48   48    7 1
    49   49    7 1
    50   50    9 1
    51   51   11 1
    52   52   11 1
    53   53   12 1
    54   54   12 1
    55   55   14 1
    56   56   19 1
    57   57   19 1
    58   58   21 1
    59   59   22 1
    60   60   22 1
    61   61   22 1
    62   62   23 1
    63   63   23 1
    64   64   23 1
    65   65   20 1
    66   66   20 1
    67   67   16 1
    68   68   18 1
    69   69   18 1
    70   70   18 1
    71   71   29 1
    72   72   31 1
    73   73   32 1
    74    5   10 1
    75   13   14 1
    76   31   32 ar
@<TRIPOS>SUBSTRUCTURE
     1 RES1 1

@<TRIPOS>CRYSIN
   7.2430   18.4710   21.0580  90.0000  90.0000  90.0000  19 1

