# MOL2 file generated by ConQuest
# Please check atom types

@<TRIPOS>MOLECULE
BAHQUW
    50    44     2
SMALL
NO_CHARGES
****
Generated from CSD

@<TRIPOS>ATOM
      1 N1         3.4305    0.0605    4.2362 N.pl3     1 RES1    0.0000
      2 N2         7.3262   -0.9917    1.6500 N.3       1 RES1    0.0000
      3 O1         2.2152    0.2000    4.0799 O.2       1 RES1    0.0000
      4 O2         3.9348   -0.4451    5.2327 O.2       1 RES1    0.0000
      5 O3         2.5985    4.8689    2.1464 O.2       1 RES1    0.0000
      6 O4         1.5216    1.8018    1.0040 O.2       1 RES1    0.0000
      7 O5         4.4057    4.3006    3.3265 O.3       1 RES1    0.0000
      8 O6         0.5809    2.5984    2.8650 O.3       1 RES1    0.0000
      9 C1         4.0454    1.6058    2.4025 C.ar      1 RES1    0.0000
     10 C2         4.3257    0.4826    3.1466 C.ar      1 RES1    0.0000
     11 C3         5.4037   -0.3733    2.9187 C.ar      1 RES1    0.0000
     12 C4         6.2576   -0.1487    1.8761 C.ar      1 RES1    0.0000
     13 C5         6.0267    0.9885    1.0285 C.ar      1 RES1    0.0000
     14 C6         6.8709    1.2676   -0.0659 C.ar      1 RES1    0.0000
     15 C7         6.6101    2.3063   -0.9051 C.ar      1 RES1    0.0000
     16 C8         5.4907    3.1128   -0.6941 C.ar      1 RES1    0.0000
     17 C9         4.6720    2.8945    0.3645 C.ar      1 RES1    0.0000
     18 C10        4.9058    1.8421    1.2865 C.ar      1 RES1    0.0000
     19 C11        2.9305    2.5644    2.8104 C.3       1 RES1    0.0000
     20 C12        3.2718    4.0455    2.6936 C.2       1 RES1    0.0000
     21 C13        1.6138    2.2785    2.0974 C.2       1 RES1    0.0000
     22 C14        4.7413    5.6341    3.6561 Du        2 SUP2    0.0000
     23 C15        5.5853    6.0523    2.6408 Du        2 SUP2    0.0000
     24 C16        4.8954    5.7407    3.0985 C.3       1 RES1    0.0000
     25 C17        6.0498    5.9008    3.9386 C.3       1 RES1    0.0000
     26 C18       -0.7413    2.3051    2.3131 C.3       1 RES1    0.0000
     27 C19       -1.7476    2.8352    3.2436 C.3       1 RES1    0.0000
     28 H1         7.4596   -1.6652    2.1671 H         1 RES1    0.0000
     29 H2         7.8591   -0.8430    0.9908 H         1 RES1    0.0000
     30 H3         5.5418   -1.1018    3.4800 H         1 RES1    0.0000
     31 H4         7.6166    0.7340   -0.2176 H         1 RES1    0.0000
     32 H5         7.1788    2.4798   -1.6208 H         1 RES1    0.0000
     33 H6         5.3043    3.8061   -1.2846 H         1 RES1    0.0000
     34 H7         3.9368    3.4500    0.4888 H         1 RES1    0.0000
     35 H8         2.7642    2.3996    3.7616 H         1 RES1    0.0000
     36 H9         3.9476    6.1885    3.6938 H         1 RES1    0.0000
     37 H10        5.1916    5.6724    4.5150 Du        2 SUP2    0.0000
     38 H11        5.8564    6.9593    2.8028 Du        2 SUP2    0.0000
     39 H12        5.1244    6.0018    1.8007 Du        2 SUP2    0.0000
     40 H13        6.3603    5.4866    2.6154 Du        2 SUP2    0.0000
     41 H14        5.1309    5.8767    2.1671 H         1 RES1    0.0000
     42 H15        4.2058    6.3772    3.3425 Du        2 SUP2    0.0000
     43 H16        6.3968    6.7905    3.8397 H         1 RES1    0.0000
     44 H17        6.7228    5.2653    3.6834 H         1 RES1    0.0000
     45 H18        5.8024    5.7537    4.8550 H         1 RES1    0.0000
     46 H19       -0.8551    1.3476    2.2085 H         1 RES1    0.0000
     47 H20       -0.8392    2.7224    1.4428 H         1 RES1    0.0000
     48 H21       -2.6262    2.6538    2.9026 H         1 RES1    0.0000
     49 H22       -1.6295    3.7828    3.3368 H         1 RES1    0.0000
     50 H23       -1.6435    2.4133    4.1006 H         1 RES1    0.0000
@<TRIPOS>BOND
     1    1    3 2
     2    2   12 1
     3    4    1 2
     4    5   20 2
     5    6   21 2
     6    7   20 1
     7    8   21 1
     8    9   10 ar
     9   10    1 1
    10   11   10 ar
    11   12   11 ar
    12   13   12 ar
    13   14   13 ar
    14   15   14 ar
    15   16   15 ar
    16   17   16 ar
    17   18    9 ar
    18   19    9 1
    19   20   19 1
    20   21   19 1
    21   24    7 1
    22   25   24 1
    23   26    8 1
    24   27   26 1
    25   28    2 1
    26   29    2 1
    27   30   11 1
    28   31   14 1
    29   32   15 1
    30   33   16 1
    31   34   17 1
    32   35   19 1
    33   36   24 1
    34   41   24 1
    35   43   25 1
    36   44   25 1
    37   45   25 1
    38   46   26 1
    39   47   26 1
    40   48   27 1
    41   49   27 1
    42   50   27 1
    43   13   18 ar
    44   17   18 ar
@<TRIPOS>SUBSTRUCTURE
     1 RES1 1
     2 SUP2 22

@<TRIPOS>CRYSIN
  10.0519   10.2242   10.2630 105.3820  97.9900 117.6430   2 1

