# MOL2 file generated by ConQuest
# Please check atom types

@<TRIPOS>MOLECULE
BAJBUJ
    74    78     2
SMALL
NO_CHARGES
****
Generated from CSD

@<TRIPOS>ATOM
      1 C1         9.2070    3.0697   12.7855 C.2       1 RES1    0.0000
      2 C2         8.7552    3.7265   14.0215 C.ar      1 RES1    0.0000
      3 C3         7.5292    3.5619   14.6770 C.ar      1 RES1    0.0000
      4 C4         7.3515    4.2449   15.8331 C.ar      1 RES1    0.0000
      5 C5         8.3395    5.1035   16.4185 C.ar      1 RES1    0.0000
      6 C6         8.1648    5.8084   17.6278 C.ar      1 RES1    0.0000
      7 C7         9.1257    6.6206   18.1043 C.ar      1 RES1    0.0000
      8 C8        10.3351    6.7827   17.4247 C.ar      1 RES1    0.0000
      9 C9        10.5490    6.1284   16.2516 C.ar      1 RES1    0.0000
     10 C10        9.5670    5.2850   15.6953 C.ar      1 RES1    0.0000
     11 C11        9.7176    4.5758   14.4762 C.ar      1 RES1    0.0000
     12 C12       10.8758    4.5674   13.4555 C.3       1 RES1    0.0000
     13 C13       11.0822    5.8870   12.6936 C.2       1 RES1    0.0000
     14 C14       11.0566    8.2483   12.8000 C.3       1 RES1    0.0000
     15 C15       12.2193    4.1039   14.0820 C.2       1 RES1    0.0000
     16 C16       14.4620    4.7253   14.4811 C.3       1 RES1    0.0000
     17 N1        10.4285    3.5551   12.5315 N.am      1 RES1    0.0000
     18 N2         6.0456    4.0507   16.4935 N.pl3     1 RES1    0.0000
     19 O1         8.6136    2.2136   12.1300 O.2       1 RES1    0.0000
     20 O2         5.0516    4.0710   15.7606 O.2       1 RES1    0.0000
     21 O3         5.9764    3.8599   17.6714 O.2       1 RES1    0.0000
     22 O4        11.5069    5.9072   11.5689 O.2       1 RES1    0.0000
     23 O5        10.7674    6.9448   13.3999 O.3       1 RES1    0.0000
     24 O6        12.3865    3.0207   14.5222 O.2       1 RES1    0.0000
     25 O7        13.1245    5.0571   14.0312 O.3       1 RES1    0.0000
     26 C17       12.8474    1.4023   10.2507 C.2       2 RES2    0.0000
     27 C18       12.3534    0.6171    9.0945 C.ar      2 RES2    0.0000
     28 C19       11.1153    0.7362    8.4439 C.ar      2 RES2    0.0000
     29 C20       10.9391    0.0093    7.3240 C.ar      2 RES2    0.0000
     30 C21       11.9226   -0.8544    6.7604 C.ar      2 RES2    0.0000
     31 C22       11.7554   -1.5821    5.5680 C.ar      2 RES2    0.0000
     32 C23       12.7344   -2.4044    5.0987 C.ar      2 RES2    0.0000
     33 C24       13.9288   -2.5479    5.8002 C.ar      2 RES2    0.0000
     34 C25       14.1472   -1.8852    6.9636 C.ar      2 RES2    0.0000
     35 C26       13.1591   -1.0114    7.4909 C.ar      2 RES2    0.0000
     36 C27       13.3293   -0.2592    8.6785 C.ar      2 RES2    0.0000
     37 C28       14.4861   -0.1756    9.6726 C.3       2 RES2    0.0000
     38 C29       15.8371    0.2195    9.0050 C.2       2 RES2    0.0000
     39 C30       18.0586   -0.4736    8.6083 C.3       2 RES2    0.0000
     40 C31       14.6984   -1.4369   10.5457 C.2       2 RES2    0.0000
     41 C32       14.7798   -3.7941   10.5530 C.3       2 RES2    0.0000
     42 N3        14.0704    0.9135   10.5361 N.am      2 RES2    0.0000
     43 N4         9.6212    0.1435    6.6878 N.pl3     2 RES2    0.0000
     44 O8        12.2886    2.3276   10.8215 O.2       2 RES2    0.0000
     45 O9         9.5399    0.3470    5.5099 O.2       2 RES2    0.0000
     46 O10        8.6422    0.0827    7.4256 O.2       2 RES2    0.0000
     47 O11       16.0148    1.2748    8.5019 O.2       2 RES2    0.0000
     48 O12       16.7212   -0.7505    9.1163 O.3       2 RES2    0.0000
     49 O13       15.0343   -1.3711   11.6874 O.2       2 RES2    0.0000
     50 O14       14.4876   -2.5420    9.8733 O.3       2 RES2    0.0000
     51 H1         6.8665    3.0072   14.3335 H         1 RES1    0.0000
     52 H2         7.3710    5.7114   18.1043 H         1 RES1    0.0000
     53 H3         8.9826    7.0816   18.8977 H         1 RES1    0.0000
     54 H4        10.9933    7.3374   17.7754 H         1 RES1    0.0000
     55 H5        11.3593    6.2399   15.8090 H         1 RES1    0.0000
     56 H6        10.7870    8.9448   13.4023 H         1 RES1    0.0000
     57 H7        10.5746    8.3344   11.9728 H         1 RES1    0.0000
     58 H8        11.9994    8.3201   12.6283 H         1 RES1    0.0000
     59 H9        15.0283    5.4961   14.3964 H         1 RES1    0.0000
     60 H10       14.8114    4.0110   13.9441 H         1 RES1    0.0000
     61 H11       14.4303    4.4492   15.4002 H         1 RES1    0.0000
     62 H12       10.9075    3.2841   11.8712 H         1 RES1    0.0000
     63 H13       10.4466    1.2925    8.7704 H         2 RES2    0.0000
     64 H14       10.9617   -1.5011    5.0891 H         2 RES2    0.0000
     65 H15       12.6049   -2.8721    4.3078 H         2 RES2    0.0000
     66 H16       14.5900   -3.1094    5.4664 H         2 RES2    0.0000
     67 H17       14.9484   -2.0042    7.4183 H         2 RES2    0.0000
     68 H18       18.6174   -1.2427    8.7414 H         2 RES2    0.0000
     69 H19       18.4306    0.2769    9.0776 H         2 RES2    0.0000
     70 H20       18.0089   -0.2718    7.6699 H         2 RES2    0.0000
     71 H21       14.5885   -4.5294    9.9677 H         2 RES2    0.0000
     72 H22       14.2360   -3.8641   11.3415 H         2 RES2    0.0000
     73 H23       15.7075   -3.8152   10.8021 H         2 RES2    0.0000
     74 H24       14.5614    1.2199   11.1722 H         2 RES2    0.0000
@<TRIPOS>BOND
     1    1    2 1
     2    2    3 ar
     3    3    4 ar
     4    4    5 ar
     5    5    6 ar
     6    6    7 ar
     7    7    8 ar
     8    8    9 ar
     9    9   10 ar
    10   10    5 ar
    11   11    2 ar
    12   12   11 1
    13   13   12 1
    14   14   23 1
    15   15   12 1
    16   16   25 1
    17   17    1 1
    18   18    4 1
    19   19    1 2
    20   20   18 2
    21   21   18 2
    22   22   13 2
    23   23   13 1
    24   24   15 2
    25   25   15 1
    26   26   27 1
    27   27   28 ar
    28   28   29 ar
    29   29   30 ar
    30   30   31 ar
    31   31   32 ar
    32   32   33 ar
    33   33   34 ar
    34   34   35 ar
    35   35   30 ar
    36   36   27 ar
    37   37   36 1
    38   38   37 1
    39   39   48 1
    40   40   37 1
    41   41   50 1
    42   42   26 1
    43   43   29 1
    44   44   26 2
    45   45   43 2
    46   46   43 2
    47   47   38 2
    48   48   38 1
    49   49   40 2
    50   50   40 1
    51   51    3 1
    52   52    6 1
    53   53    7 1
    54   54    8 1
    55   55    9 1
    56   56   14 1
    57   57   14 1
    58   58   14 1
    59   59   16 1
    60   60   16 1
    61   61   16 1
    62   62   17 1
    63   63   28 1
    64   64   31 1
    65   65   32 1
    66   66   33 1
    67   67   34 1
    68   68   39 1
    69   69   39 1
    70   70   39 1
    71   71   41 1
    72   72   41 1
    73   73   41 1
    74   74   42 1
    75   10   11 ar
    76   12   17 1
    77   35   36 ar
    78   37   42 1
@<TRIPOS>SUBSTRUCTURE
     1 RES1 1
     2 RES2 26

@<TRIPOS>CRYSIN
  15.0614    8.4425   24.1875  90.0000  90.0000  90.0000  33 1

