# MOL2 file generated by ConQuest
# Please check atom types

@<TRIPOS>MOLECULE
BAJCIY02
    19    19     1
SMALL
NO_CHARGES
****
Generated from CSD

@<TRIPOS>ATOM
      1 O1         6.1737    4.0431    3.9959 O.2       1 RES1    0.0000
      2 O2         6.7877    6.0803    4.3301 O.2       1 RES1    0.0000
      3 N1         0.9640    7.1088    2.3469 N.pl3     1 RES1    0.0000
      4 H1         0.8209    7.9771    2.3185 H         1 RES1    0.0000
      5 H2         0.3278    6.5500    2.1093 H         1 RES1    0.0000
      6 N2         5.9400    5.2528    3.9845 N.pl3     1 RES1    0.0000
      7 C1         2.1660    6.6338    2.7562 C.ar      1 RES1    0.0000
      8 C2         2.4278    5.2457    2.7812 C.ar      1 RES1    0.0000
      9 C3         3.6780    4.8046    3.1831 C.ar      1 RES1    0.0000
     10 H3         3.8708    3.8740    3.1984 H         1 RES1    0.0000
     11 C4         4.6550    5.7259    3.5656 C.ar      1 RES1    0.0000
     12 C5         4.4183    7.0958    3.5326 C.ar      1 RES1    0.0000
     13 H4         5.0988    7.7109    3.7799 H         1 RES1    0.0000
     14 C6         3.1775    7.5442    3.1336 C.ar      1 RES1    0.0000
     15 H5         3.0007    8.4771    3.1120 H         1 RES1    0.0000
     16 C7         1.3496    4.2779    2.3714 C.3       1 RES1    0.0000
     17 H6         1.6659    3.3600    2.5061 H         1 RES1    0.0000
     18 H7         1.1321    4.4133    1.4256 H         1 RES1    0.0000
     19 H8         0.5496    4.4318    2.9153 H         1 RES1    0.0000
@<TRIPOS>BOND
     1    1    6 2
     2    2    6 2
     3    3    4 1
     4    5    3 1
     5    6   11 1
     6    7    3 1
     7    8    7 ar
     8    9    8 ar
     9   10    9 1
    10   11    9 ar
    11   12   11 ar
    12   13   12 1
    13   14    7 ar
    14   15   14 1
    15   16    8 1
    16   17   16 1
    17   18   16 1
    18   19   16 1
    19   12   14 ar
@<TRIPOS>SUBSTRUCTURE
     1 RES1 1

@<TRIPOS>CRYSIN
  10.7232   11.5744    7.4661  90.0000 130.4200  90.0000   9 1

