# MOL2 file generated by ConQuest
# Please check atom types

@<TRIPOS>MOLECULE
BAJCIY03
    19    19     1
SMALL
NO_CHARGES
****
Generated from CSD

@<TRIPOS>ATOM
      1 O1         7.2675    1.1364    3.5151 O.2       1 RES1    0.0000
      2 O2         7.9516    3.1764    3.6995 O.2       1 RES1    0.0000
      3 N1         2.3615    4.2203    1.1060 N.3       1 RES1    0.0000
      4 N2         7.0929    2.3501    3.3652 N.pl3     1 RES1    0.0000
      5 C1         3.5145    3.7461    1.6407 C.ar      1 RES1    0.0000
      6 C2         3.7162    2.3477    1.8024 C.ar      1 RES1    0.0000
      7 C3         4.8987    1.9061    2.3724 C.ar      1 RES1    0.0000
      8 C4         5.8772    2.8220    2.7798 C.ar      1 RES1    0.0000
      9 C5         5.6841    4.1999    2.6373 C.ar      1 RES1    0.0000
     10 C6         4.5120    4.6538    2.0702 C.ar      1 RES1    0.0000
     11 C7         2.6595    1.3824    1.3483 C.3       1 RES1    0.0000
     12 H1         1.6459    3.5962    0.7525 H         1 RES1    0.0000
     13 H2         2.3319    5.1896    0.8376 H         1 RES1    0.0000
     14 H3         5.0756    0.8487    2.5001 H         1 RES1    0.0000
     15 H4         6.4513    4.8901    2.9715 H         1 RES1    0.0000
     16 H5         4.3500    5.7226    1.9445 H         1 RES1    0.0000
     17 H6         2.4239    1.5113    0.2782 H         1 RES1    0.0000
     18 H7         1.7255    1.5344    1.8875 H         1 RES1    0.0000
     19 H8         2.9965    0.3619    1.5013 H         1 RES1    0.0000
@<TRIPOS>BOND
     1    1    4 2
     2    2    4 2
     3    3    5 1
     4    4    8 1
     5    5    6 ar
     6    6    7 ar
     7    7    8 ar
     8    8    9 ar
     9    9   10 ar
    10   10    5 ar
    11   11    6 1
    12   12    3 1
    13   13    3 1
    14   14    7 1
    15   15    9 1
    16   16   10 1
    17   17   11 1
    18   18   11 1
    19   19   11 1
@<TRIPOS>SUBSTRUCTURE
     1 RES1 1

