# MOL2 file generated by ConQuest
# Please check atom types

@<TRIPOS>MOLECULE
BAJCOH
    80    86     2
SMALL
NO_CHARGES
****
Generated from CSD

@<TRIPOS>ATOM
      1 O1         8.0078    4.2837   10.2901 O.2       1 RES1    0.0000
      2 O2         4.3829    5.8805   12.5454 O.2       1 RES1    0.0000
      3 O3         5.2282    4.5565   10.2295 O.3       1 RES1    0.0000
      4 O4         5.9013    6.5451    9.3490 O.2       1 RES1    0.0000
      5 O5         4.5520    5.1036    8.2531 O.3       1 RES1    0.0000
      6 N1         6.0336    4.8978   11.2920 N.am      1 RES1    0.0000
      7 C1         7.4217    4.7838   11.2272 C.2       1 RES1    0.0000
      8 C2         7.9491    5.3830   12.4913 C.3       1 RES1    0.0000
      9 H1         8.5342    6.1566   12.2926 H         1 RES1    0.0000
     10 H2         8.4685    4.7144   13.0047 H         1 RES1    0.0000
     11 C3         6.7173    5.8318   13.2865 C.3       1 RES1    0.0000
     12 H3         6.6335    5.3053   14.1223 H         1 RES1    0.0000
     13 H4         6.7875    6.7905   13.5239 H         1 RES1    0.0000
     14 C4         5.5382    5.5962   12.4006 C.2       1 RES1    0.0000
     15 C5         5.2855    5.5276    9.2431 C.2       1 RES1    0.0000
     16 C6         4.4989    5.9921    7.0930 C.3       1 RES1    0.0000
     17 H5         5.3981    6.0822    6.6896 H         1 RES1    0.0000
     18 H6         4.1861    6.8914    7.3651 H         1 RES1    0.0000
     19 C7         3.5382    5.3846    6.0990 C.3       1 RES1    0.0000
     20 H7         3.8384    4.4614    5.8577 H         1 RES1    0.0000
     21 C8         3.4325    6.2368    4.8387 C.ar      1 RES1    0.0000
     22 C9         4.4426    6.6409    3.9856 C.ar      1 RES1    0.0000
     23 H8         5.3438    6.3847    4.1400 H         1 RES1    0.0000
     24 C10        4.0978    7.4377    2.8912 C.ar      1 RES1    0.0000
     25 H9         4.7793    7.7327    2.2968 H         1 RES1    0.0000
     26 C11        2.8072    7.7997    2.6558 C.ar      1 RES1    0.0000
     27 H10        2.5999    8.3410    1.9030 H         1 RES1    0.0000
     28 C12        1.7884    7.3864    3.5050 C.ar      1 RES1    0.0000
     29 H11        0.8882    7.6393    3.3390 H         1 RES1    0.0000
     30 C13        2.1128    6.5938    4.6051 C.ar      1 RES1    0.0000
     31 C14        1.2690    6.0533    5.6686 C.ar      1 RES1    0.0000
     32 C15       -0.0909    6.1293    5.8983 C.ar      1 RES1    0.0000
     33 H12       -0.6534    6.5946    5.2903 H         1 RES1    0.0000
     34 C16       -0.6296    5.5194    7.0235 C.ar      1 RES1    0.0000
     35 H13       -1.5638    5.5623    7.1856 H         1 RES1    0.0000
     36 C17        0.1910    4.8565    7.9017 C.ar      1 RES1    0.0000
     37 H14       -0.1882    4.4606    8.6776 H         1 RES1    0.0000
     38 C18        1.5524    4.7466    7.6894 C.ar      1 RES1    0.0000
     39 H15        2.0996    4.2680    8.3012 H         1 RES1    0.0000
     40 C19        2.1039    5.3508    6.5661 C.ar      1 RES1    0.0000
     41 O6         7.0218   -0.5860    5.7763 O.2       2 RES2    0.0000
     42 O7         6.5731    3.9457    5.7495 O.2       2 RES2    0.0000
     43 O8         6.7125    1.6547    4.1537 O.3       2 RES2    0.0000
     44 O9         8.9690    1.2860    4.1338 O.2       2 RES2    0.0000
     45 O10        7.7023    1.4133    2.2640 O.3       2 RES2    0.0000
     46 N2         6.8432    1.6852    5.5343 N.am      2 RES2    0.0000
     47 C20        6.9315    0.5050    6.2785 C.2       2 RES2    0.0000
     48 C21        6.9108    0.9373    7.7164 C.3       2 RES2    0.0000
     49 H16        7.7432    0.6595    8.1738 H         2 RES2    0.0000
     50 H17        6.1387    0.5356    8.1873 H         2 RES2    0.0000
     51 C22        6.7919    2.4663    7.6952 C.3       2 RES2    0.0000
     52 H18        5.9813    2.7572    8.1854 H         2 RES2    0.0000
     53 H19        7.5840    2.8804    8.1198 H         2 RES2    0.0000
     54 C23        6.7033    2.8655    6.2515 C.2       2 RES2    0.0000
     55 C24        7.9456    1.4274    3.5610 C.2       2 RES2    0.0000
     56 C25        8.8883    1.1455    1.4437 C.3       2 RES2    0.0000
     57 H20        9.1147    0.1827    1.4804 H         2 RES2    0.0000
     58 H21        9.6601    1.6613    1.7872 H         2 RES2    0.0000
     59 C26        8.5890    1.5464    0.0386 C.3       2 RES2    0.0000
     60 H22        8.3425    2.5159    0.0154 H         2 RES2    0.0000
     61 C27        9.7979    1.3141   -0.8415 C.ar      2 RES2    0.0000
     62 C28       11.1008    1.7241   -0.6832 C.ar      2 RES2    0.0000
     63 H23       11.3568    2.2034    0.0965 H         2 RES2    0.0000
     64 C29       12.0415    1.4373   -1.6618 C.ar      2 RES2    0.0000
     65 H24       12.9374    1.7390   -1.5653 H         2 RES2    0.0000
     66 C30       11.6683    0.7067   -2.7870 C.ar      2 RES2    0.0000
     67 H25       12.3132    0.5174   -3.4587 H         2 RES2    0.0000
     68 C31       10.3808    0.2562   -2.9395 C.ar      2 RES2    0.0000
     69 H26       10.1350   -0.2438   -3.7096 H         2 RES2    0.0000
     70 C32        9.4379    0.5372   -1.9571 C.ar      2 RES2    0.0000
     71 C33        8.0202    0.1719   -1.8374 C.ar      2 RES2    0.0000
     72 C34        7.2048   -0.6290   -2.6326 C.ar      2 RES2    0.0000
     73 H27        7.5483   -1.0249   -3.4239 H         2 RES2    0.0000
     74 C35        5.9083   -0.8381   -2.2640 C.ar      2 RES2    0.0000
     75 H28        5.3507   -1.3794   -2.8102 H         2 RES2    0.0000
     76 C36        5.3902   -0.2794   -1.1098 C.ar      2 RES2    0.0000
     77 H29        4.4864   -0.4480   -0.8685 H         2 RES2    0.0000
     78 C37        6.1823    0.5290   -0.2972 C.ar      2 RES2    0.0000
     79 H30        5.8187    0.9315    0.4825 H         2 RES2    0.0000
     80 C38        7.5109    0.7381   -0.6446 C.ar      2 RES2    0.0000
@<TRIPOS>BOND
     1    1    7 2
     2    2   14 2
     3    3    6 1
     4    4   15 2
     5    5   15 1
     6    6    7 1
     7    7    8 1
     8    8    9 1
     9   10    8 1
    10   11    8 1
    11   12   11 1
    12   13   11 1
    13   14    6 1
    14   15    3 1
    15   16    5 1
    16   17   16 1
    17   18   16 1
    18   19   16 1
    19   20   19 1
    20   21   19 1
    21   22   21 ar
    22   23   22 1
    23   24   22 ar
    24   25   24 1
    25   26   24 ar
    26   27   26 1
    27   28   26 ar
    28   29   28 1
    29   30   21 ar
    30   31   30 1
    31   32   31 ar
    32   33   32 1
    33   34   32 ar
    34   35   34 1
    35   36   34 ar
    36   37   36 1
    37   38   36 ar
    38   39   38 1
    39   40   19 1
    40   41   47 2
    41   42   54 2
    42   43   46 1
    43   44   55 2
    44   45   55 1
    45   46   47 1
    46   47   48 1
    47   48   49 1
    48   50   48 1
    49   51   48 1
    50   52   51 1
    51   53   51 1
    52   54   46 1
    53   55   43 1
    54   56   45 1
    55   57   56 1
    56   58   56 1
    57   59   56 1
    58   60   59 1
    59   61   59 1
    60   62   61 ar
    61   63   62 1
    62   64   62 ar
    63   65   64 1
    64   66   64 ar
    65   67   66 1
    66   68   66 ar
    67   69   68 1
    68   70   61 ar
    69   71   70 1
    70   72   71 ar
    71   73   72 1
    72   74   72 ar
    73   75   74 1
    74   76   74 ar
    75   77   76 1
    76   78   76 ar
    77   79   78 1
    78   80   59 1
    79   11   14 1
    80   28   30 ar
    81   31   40 ar
    82   38   40 ar
    83   51   54 1
    84   68   70 ar
    85   71   80 ar
    86   78   80 ar
@<TRIPOS>SUBSTRUCTURE
     1 RES1 1
     2 RES2 41

@<TRIPOS>CRYSIN
   9.9770    8.2650   19.3660  90.0000  94.7100  90.0000   4 1

