# MOL2 file generated by ConQuest
# Please check atom types

@<TRIPOS>MOLECULE
BAKJUV
    39    42     1
SMALL
NO_CHARGES
****
Generated from CSD

@<TRIPOS>ATOM
      1 N1         0.4482    2.1728    2.0809 N.am      1 RES1    0.0000
      2 O1         3.5026   -2.8747    3.6092 O.2       1 RES1    0.0000
      3 O2         3.4601    1.0177    4.9526 O.3       1 RES1    0.0000
      4 O3         5.3081   -0.8291    1.4315 O.3       1 RES1    0.0000
      5 H1         6.1188   -0.7242    1.4970 H         1 RES1    0.0000
      6 O4         0.2505   -0.1091    2.1129 O.2       1 RES1    0.0000
      7 O5        -0.8643    2.4780    1.7973 O.3       1 RES1    0.0000
      8 C1         3.4741   -1.6920    3.8861 C.2       1 RES1    0.0000
      9 C2         2.2351   -1.0095    4.3688 C.3       1 RES1    0.0000
     10 H2         2.0784   -1.2510    5.2943 H         1 RES1    0.0000
     11 H3         1.4773   -1.3206    3.8475 H         1 RES1    0.0000
     12 C3         2.3295    0.5091    4.2559 C.3       1 RES1    0.0000
     13 H4         1.5333    0.8808    4.6895 H         1 RES1    0.0000
     14 C4         4.6246    0.1920    4.9538 C.3       1 RES1    0.0000
     15 H5         4.6576   -0.3089    5.7832 H         1 RES1    0.0000
     16 H6         5.4129    0.7562    4.9162 H         1 RES1    0.0000
     17 C5         4.6538   -0.7800    3.7837 C.3       1 RES1    0.0000
     18 H7         5.4703   -1.3182    3.8464 H         1 RES1    0.0000
     19 C6         4.6482   -0.0515    2.4194 C.3       1 RES1    0.0000
     20 H8         5.1200    0.8025    2.5155 H         1 RES1    0.0000
     21 C7         3.2575    0.2160    1.8720 C.3       1 RES1    0.0000
     22 H9         2.8309   -0.6355    1.6871 H         1 RES1    0.0000
     23 H10        3.3444    0.6881    1.0300 H         1 RES1    0.0000
     24 C8         2.3384    1.0312    2.7955 C.3       1 RES1    0.0000
     25 C9         0.8934    0.9219    2.2847 C.2       1 RES1    0.0000
     26 C10        1.4109    3.1672    2.3359 C.ar      1 RES1    0.0000
     27 C11        2.5729    2.5312    2.7433 C.ar      1 RES1    0.0000
     28 C12        3.6789    3.3049    3.0170 C.ar      1 RES1    0.0000
     29 H11        4.4750    2.9076    3.2854 H         1 RES1    0.0000
     30 C13        3.5929    4.6817    2.8874 C.ar      1 RES1    0.0000
     31 H12        4.3396    5.2088    3.0619 H         1 RES1    0.0000
     32 C14        2.4179    5.2758    2.5051 C.ar      1 RES1    0.0000
     33 H13        2.3784    6.2027    2.4382 H         1 RES1    0.0000
     34 C15        1.2903    4.5308    2.2157 C.ar      1 RES1    0.0000
     35 H14        0.4928    4.9313    1.9535 H         1 RES1    0.0000
     36 C16       -1.0840    2.5689    0.3897 C.3       1 RES1    0.0000
     37 H15       -0.5489    3.2782    0.0272 H         1 RES1    0.0000
     38 H16       -2.0112    2.7495    0.2215 H         1 RES1    0.0000
     39 H17       -0.8387    1.7392   -0.0261 H         1 RES1    0.0000
@<TRIPOS>BOND
     1    1    7 1
     2    2    8 2
     3    3   12 1
     4    4    5 1
     5    6   25 2
     6    7   36 1
     7    8    9 1
     8    9   10 1
     9   11    9 1
    10   12    9 1
    11   13   12 1
    12   14    3 1
    13   15   14 1
    14   16   14 1
    15   17    8 1
    16   18   17 1
    17   19    4 1
    18   20   19 1
    19   21   19 1
    20   22   21 1
    21   23   21 1
    22   24   12 1
    23   25    1 1
    24   26    1 1
    25   27   24 1
    26   28   27 ar
    27   29   28 1
    28   30   28 ar
    29   31   30 1
    30   32   30 ar
    31   33   32 1
    32   34   26 ar
    33   35   34 1
    34   36   37 1
    35   38   36 1
    36   39   36 1
    37   14   17 1
    38   17   19 1
    39   21   24 1
    40   24   25 1
    41   26   27 ar
    42   32   34 ar
@<TRIPOS>SUBSTRUCTURE
     1 RES1 1

@<TRIPOS>CRYSIN
   7.6850    9.7870   11.6920  65.8900  72.2180  71.7090   2 1

