# MOL2 file generated by ConQuest
# Please check atom types

@<TRIPOS>MOLECULE
BAKKAC
    41    45     1
SMALL
NO_CHARGES
****
Generated from CSD

@<TRIPOS>ATOM
      1 O1        10.3815   28.3072    0.3897 O.2       1 RES1    0.0000
      2 O2         6.2907   31.4190    1.0528 O.3       1 RES1    0.0000
      3 O3        10.7235   31.5885    1.2220 O.2       1 RES1    0.0000
      4 O4        11.2022   34.3533    1.2288 O.3       1 RES1    0.0000
      5 N1         9.4394   29.0144    2.3450 N.am      1 RES1    0.0000
      6 H1        10.1039   28.8227    2.8563 H         1 RES1    0.0000
      7 N2        10.0962   33.6954    1.7363 N.am      1 RES1    0.0000
      8 C1         9.4569   28.8006    1.0596 C.2       1 RES1    0.0000
      9 C2         8.1290   29.2075    0.4811 C.3       1 RES1    0.0000
     10 H2         7.8208   28.5426   -0.1684 H         1 RES1    0.0000
     11 C3         8.1924   30.5880   -0.1578 C.3       1 RES1    0.0000
     12 H3         7.7082   30.5659   -0.9977 H         1 RES1    0.0000
     13 H4         9.1181   30.7981   -0.3580 H         1 RES1    0.0000
     14 C4         7.6153   31.7046    0.7084 C.3       1 RES1    0.0000
     15 H5         7.5924   32.5117    0.1495 H         1 RES1    0.0000
     16 C5         8.4295   32.0769    1.9938 C.3       1 RES1    0.0000
     17 C6         8.2798   31.0781    3.1743 C.3       1 RES1    0.0000
     18 H6         9.0284   31.2145    3.7770 H         1 RES1    0.0000
     19 H7         7.4743   31.3140    3.6606 H         1 RES1    0.0000
     20 C7         8.2121   29.5966    2.8435 C.3       1 RES1    0.0000
     21 H8         7.9519   29.1139    3.6554 H         1 RES1    0.0000
     22 C8         7.2077   29.2259    1.7152 C.3       1 RES1    0.0000
     23 H9         6.8929   28.3105    1.8745 H         1 RES1    0.0000
     24 C9         6.0197   30.1089    1.5830 C.3       1 RES1    0.0000
     25 H10        5.3727   29.6704    1.0075 H         1 RES1    0.0000
     26 H11        5.6120   30.2084    2.4576 H         1 RES1    0.0000
     27 C10        7.9672   33.4699    2.4455 C.ar      1 RES1    0.0000
     28 C11        6.7924   33.8863    3.0089 C.ar      1 RES1    0.0000
     29 H12        6.1126   33.2819    3.1947 H         1 RES1    0.0000
     30 C12        6.6394   35.2352    3.3004 C.ar      1 RES1    0.0000
     31 H13        5.8383   35.5373    3.6606 H         1 RES1    0.0000
     32 C13        7.6481   36.1307    3.0512 C.ar      1 RES1    0.0000
     33 H14        7.5246   37.0262    3.2626 H         1 RES1    0.0000
     34 C14        8.8492   35.7179    2.5021 C.ar      1 RES1    0.0000
     35 H15        9.5323   36.3223    2.3201 H         1 RES1    0.0000
     36 C15        8.9891   34.3912    2.2378 C.ar      1 RES1    0.0000
     37 C16        9.9071   32.3606    1.5875 C.2       1 RES1    0.0000
     38 C17       12.3520   34.2070    2.0958 C.3       1 RES1    0.0000
     39 H16       13.0951   34.6897    1.7250 H         1 RES1    0.0000
     40 H17       12.5793   33.2783    2.1713 H         1 RES1    0.0000
     41 H18       12.1443   34.5571    2.9643 H         1 RES1    0.0000
@<TRIPOS>BOND
     1    1    8 2
     2    2   14 1
     3    3   37 2
     4    4    7 1
     5    5    6 1
     6    7   36 1
     7    8    5 1
     8    9    8 1
     9   10    9 1
    10   11    9 1
    11   12   11 1
    12   13   11 1
    13   14   11 1
    14   15   14 1
    15   16   14 1
    16   17   16 1
    17   18   17 1
    18   19   17 1
    19   20    5 1
    20   21   20 1
    21   22    9 1
    22   23   22 1
    23   24    2 1
    24   25   24 1
    25   26   24 1
    26   27   16 1
    27   28   27 ar
    28   29   28 1
    29   30   28 ar
    30   31   30 1
    31   32   30 ar
    32   33   32 1
    33   34   32 ar
    34   35   34 1
    35   36   27 ar
    36   37    7 1
    37   38    4 1
    38   39   38 1
    39   40   38 1
    40   41   38 1
    41   16   37 1
    42   17   20 1
    43   20   22 1
    44   22   24 1
    45   34   36 ar
@<TRIPOS>SUBSTRUCTURE
     1 RES1 1

@<TRIPOS>CRYSIN
  10.9290   36.8530    7.5524  90.0000  90.0000  90.0000  45 1

