# MOL2 file generated by ConQuest
# Please check atom types

@<TRIPOS>MOLECULE
BAKLII
    23    23     1
SMALL
NO_CHARGES
****
Generated from CSD

@<TRIPOS>ATOM
      1 C1         3.8183    1.5332    8.5684 C.ar      1 RES1    0.0000
      2 C2         3.0487    2.2184    7.5999 C.ar      1 RES1    0.0000
      3 C3         2.0258    1.5252    6.8559 C.ar      1 RES1    0.0000
      4 C4         1.9563    0.0997    7.0023 C.ar      1 RES1    0.0000
      5 C5         2.8451   -0.6202    7.8719 C.ar      1 RES1    0.0000
      6 C6         3.6644    0.1771    8.7147 C.ar      1 RES1    0.0000
      7 O1         4.7478    2.1276    9.3144 O.3       1 RES1    0.0000
      8 N1         3.2582    3.5967    7.3979 N.pl3     1 RES1    0.0000
      9 N2         1.2016    2.1641    6.0461 N.3       1 RES1    0.0000
     10 N3         0.9931   -0.6336    6.2542 N.pl3     1 RES1    0.0000
     11 N4         2.9047   -1.9310    7.9316 N.3       1 RES1    0.0000
     12 N5         4.4161   -0.4609    9.7945 N.pl3     1 RES1    0.0000
     13 O2         4.2349    4.1671    7.9893 O.2       1 RES1    0.0000
     14 O3         2.5532    4.2855    6.6458 O.2       1 RES1    0.0000
     15 O4         0.0641   -0.0356    5.6752 O.2       1 RES1    0.0000
     16 O5         1.0770   -1.8758    6.1759 O.2       1 RES1    0.0000
     17 O6         5.1068   -1.4460    9.5081 O.2       1 RES1    0.0000
     18 O7         4.2875   -0.0276   10.9155 O.2       1 RES1    0.0000
     19 H1         4.5681    3.1144    9.1495 H         1 RES1    0.0000
     20 H2         1.3903    2.9721    5.7906 H         1 RES1    0.0000
     21 H3         0.6455    1.5839    5.2960 H         1 RES1    0.0000
     22 H4         2.5820   -2.5271    7.3979 H         1 RES1    0.0000
     23 H5         3.2274   -2.2958    8.5313 H         1 RES1    0.0000
@<TRIPOS>BOND
     1    1    2 ar
     2    2    3 ar
     3    3    4 ar
     4    4    5 ar
     5    5    6 ar
     6    6    1 ar
     7    7    1 1
     8    8    2 1
     9    9    3 1
    10   10    4 1
    11   11    5 1
    12   12    6 1
    13   13    8 2
    14   14    8 2
    15   15   10 2
    16   16   10 2
    17   17   12 2
    18   18   12 2
    19   19    7 1
    20   20    9 1
    21   21    9 1
    22   22   11 1
    23   23   11 1
@<TRIPOS>SUBSTRUCTURE
     1 RES1 1

@<TRIPOS>CRYSIN
   4.9653    8.8984   20.6070  90.0000  90.0000  90.0000  19 1

