# MOL2 file generated by ConQuest
# Please check atom types

@<TRIPOS>MOLECULE
BAKTOX
    17    17     1
SMALL
NO_CHARGES
****
Generated from CSD

@<TRIPOS>ATOM
      1 O1         5.0063    1.4401    4.4374 O.3       1 RES1    0.0000
      2 O2         2.8530   -2.0416    2.4307 O.2       1 RES1    0.0000
      3 O3         2.8538   -0.0933    1.3192 O.3       1 RES1    0.0000
      4 N1         5.1267    0.2608    5.2300 N.2       1 RES1    0.0000
      5 C1         4.4918   -0.6700    4.5653 C.2       1 RES1    0.0000
      6 C2         3.9460   -0.1608    3.3535 C.2       1 RES1    0.0000
      7 C3         4.3069    1.1355    3.3464 C.2       1 RES1    0.0000
      8 C4         4.4205   -2.0495    5.1148 C.3       1 RES1    0.0000
      9 C5         3.1699   -0.8758    2.3470 C.2       1 RES1    0.0000
     10 C6         2.0869   -0.7139    0.2495 C.3       1 RES1    0.0000
     11 H1         4.1167    1.8774    2.6920 H         1 RES1    0.0000
     12 H2         4.9592   -2.1360    5.8734 H         1 RES1    0.0000
     13 H3         3.4890   -2.3159    5.2656 H         1 RES1    0.0000
     14 H4         4.7493   -2.7206    4.4998 H         1 RES1    0.0000
     15 H5         2.6227   -1.4502   -0.1816 H         1 RES1    0.0000
     16 H6         1.2908   -1.0343    0.6079 H         1 RES1    0.0000
     17 H7         1.8807    0.0450   -0.4579 H         1 RES1    0.0000
@<TRIPOS>BOND
     1    1    4 1
     2    2    9 2
     3    3    9 1
     4    4    5 2
     5    5    6 1
     6    6    7 2
     7    7    1 1
     8    8    5 1
     9    9    6 1
    10   10    3 1
    11   11    7 1
    12   12    8 1
    13   13    8 1
    14   14    8 1
    15   15   10 1
    16   16   10 1
    17   17   10 1
@<TRIPOS>SUBSTRUCTURE
     1 RES1 1

@<TRIPOS>CRYSIN
   7.8027   11.2422    8.4806  90.0000 111.4280  90.0000  14 1

