# MOL2 file generated by ConQuest
# Please check atom types

@<TRIPOS>MOLECULE
BAKTUD
    17    17     1
SMALL
NO_CHARGES
****
Generated from CSD

@<TRIPOS>ATOM
      1 O1         2.4229    1.5810    4.3140 O.3       1 RES1    0.0000
      2 O2         3.8066    1.5810    7.5630 O.2       1 RES1    0.0000
      3 O3         1.6806    1.5810    6.8521 O.3       1 RES1    0.0000
      4 N1         3.0621    1.5810    3.0512 N.2       1 RES1    0.0000
      5 C1         4.3477    1.5810    3.2922 C.2       1 RES1    0.0000
      6 C2         4.6119    1.5810    4.6876 C.2       1 RES1    0.0000
      7 C3         3.3901    1.5810    5.2545 C.2       1 RES1    0.0000
      8 C4         5.3219    1.5810    2.1716 C.3       1 RES1    0.0000
      9 C5         2.9915    1.5810    6.6790 C.2       1 RES1    0.0000
     10 C6         1.2353    1.5810    8.2421 C.3       1 RES1    0.0000
     11 H1         5.5025    1.5810    5.1485 H         1 RES1    0.0000
     12 H2         4.9325    1.5810    1.3423 H         1 RES1    0.0000
     13 H3         5.9064    0.7842    2.2078 H         1 RES1    0.0000
     14 H4         0.3187    1.5810    8.2129 H         1 RES1    0.0000
     15 H5         1.5473    0.7968    8.6898 H         1 RES1    0.0000
     16 H5A        1.5473    2.3651    8.6898 H         1 RES1    0.0000
     17 H3A        5.9064    2.3777    2.2078 H         1 RES1    0.0000
@<TRIPOS>BOND
     1    1    4 1
     2    2    9 2
     3    3    9 1
     4    4    5 2
     5    5    6 1
     6    6    7 2
     7    7    1 1
     8    8    5 1
     9    9    7 1
    10   10    3 1
    11   11    6 1
    12   12    8 1
    13   13    8 1
    14   14   10 1
    15   15   10 1
    16   16   10 1
    17   17    8 1
@<TRIPOS>SUBSTRUCTURE
     1 RES1 1

@<TRIPOS>CRYSIN
   5.8086    6.3238    8.8391  90.0000  92.4350  90.0000  11 1

