# MOL2 file generated by ConQuest
# Please check atom types

@<TRIPOS>MOLECULE
BAKYIW
    86    89     1
SMALL
NO_CHARGES
****
Generated from CSD

@<TRIPOS>ATOM
      1 O1         4.7522    5.9132   -0.2223 O.3       1 RES1    0.0000
      2 O2         4.9785    4.0844    1.7203 O.3       1 RES1    0.0000
      3 O3         7.4876    2.7941    2.9113 O.3       1 RES1    0.0000
      4 O4         7.7447    5.8016    4.2170 O.3       1 RES1    0.0000
      5 O5         4.7525    8.3763    5.4785 O.3       1 RES1    0.0000
      6 O6         3.1362    6.5476    2.2091 O.3       1 RES1    0.0000
      7 O7         6.2224    0.8282   -3.4159 O.2       1 RES1    0.0000
      8 O8         7.3372   -0.2957   -1.9973 O.2       1 RES1    0.0000
      9 N1         6.6082    0.6383   -2.2920 N.pl3     1 RES1    0.0000
     10 C1         4.2655    8.0141    0.7075 C.ar      1 RES1    0.0000
     11 C2         3.9502    7.0703   -0.4111 C.3       1 RES1    0.0000
     12 C3         4.2989    4.8245   -1.0110 C.3       1 RES1    0.0000
     13 C4         5.1243    3.6184   -0.6264 C.ar      1 RES1    0.0000
     14 C5         5.5341    2.7275   -1.6127 C.ar      1 RES1    0.0000
     15 C6         6.2244    1.5977   -1.2492 C.ar      1 RES1    0.0000
     16 C7         6.5488    1.3275    0.0741 C.ar      1 RES1    0.0000
     17 C8         6.1473    2.1832    1.0445 C.ar      1 RES1    0.0000
     18 C9         5.4224    3.3560    0.7199 C.ar      1 RES1    0.0000
     19 C10        6.4503    1.9051    2.5037 C.3       1 RES1    0.0000
     20 C11        7.5618    2.9174    4.3352 C.3       1 RES1    0.0000
     21 C12        6.5014    3.8592    4.8786 C.ar      1 RES1    0.0000
     22 C13        5.3664    3.3266    5.5332 C.ar      1 RES1    0.0000
     23 C14        4.4063    4.1568    6.1014 C.ar      1 RES1    0.0000
     24 C15        4.5884    5.5196    6.0096 C.ar      1 RES1    0.0000
     25 C16        5.6934    6.1129    5.3480 C.ar      1 RES1    0.0000
     26 C17        6.6391    5.2435    4.7710 C.ar      1 RES1    0.0000
     27 C18        5.9301    7.6010    5.2774 C.3       1 RES1    0.0000
     28 C19        3.7515    8.2451    4.5028 C.3       1 RES1    0.0000
     29 C20        4.1842    8.5486    3.0807 C.ar      1 RES1    0.0000
     30 C21        4.9581    9.6510    2.8160 C.ar      1 RES1    0.0000
     31 C22        5.4071    9.9721    1.5562 C.ar      1 RES1    0.0000
     32 C23        5.0469    9.1321    0.5205 C.ar      1 RES1    0.0000
     33 C24        3.8649    7.7165    2.0114 C.ar      1 RES1    0.0000
     34 C25        7.6594    6.0032    2.7984 C.3       1 RES1    0.0000
     35 C26        1.7534    6.6729    2.4173 C.3       1 RES1    0.0000
     36 C27        3.1408    3.5851    6.7454 C.3       1 RES1    0.0000
     37 C28        1.9214    4.0413    5.8879 C.3       1 RES1    0.0000
     38 C29        3.1595    2.0755    6.8460 C.3       1 RES1    0.0000
     39 C30        2.8693    4.2293    8.1022 C.3       1 RES1    0.0000
     40 C31        6.3046   11.1723    1.2845 C.3       1 RES1    0.0000
     41 C32        7.4366   10.8082    0.4411 C.3       1 RES1    0.0000
     42 C33        5.5362   12.1318    0.3352 C.3       1 RES1    0.0000
     43 C34        6.5978   12.0025    2.4702 C.3       1 RES1    0.0000
     44 H1         4.3770    7.2250   -1.4998 H         1 RES1    0.0000
     45 H2         2.9931    6.6964   -0.1588 H         1 RES1    0.0000
     46 H3         4.4412    5.0125   -2.1349 H         1 RES1    0.0000
     47 H4         3.2931    4.7579   -0.8469 H         1 RES1    0.0000
     48 H5         5.3472    2.8783   -2.4525 H         1 RES1    0.0000
     49 H6         6.9838    0.6657    0.2647 H         1 RES1    0.0000
     50 H7         4.9269    4.7521    1.3657 H         1 RES1    0.0000
     51 H8         5.6469    2.2125    2.9466 H         1 RES1    0.0000
     52 H9         6.7272    1.0084    2.6149 H         1 RES1    0.0000
     53 H10        7.4339    1.9776    4.7463 H         1 RES1    0.0000
     54 H11        8.4216    3.2601    4.5699 H         1 RES1    0.0000
     55 H12        5.3034    2.4279    5.6814 H         1 RES1    0.0000
     56 H13        4.1619    6.3048    6.3343 H         1 RES1    0.0000
     57 H14        6.5895    7.6949    6.0696 H         1 RES1    0.0000
     58 H15        6.4636    7.9299    4.4640 H         1 RES1    0.0000
     59 H16        3.7234    7.4991    4.3052 H         1 RES1    0.0000
     60 H17        2.9903    9.0655    4.6228 H         1 RES1    0.0000
     61 H18        5.2125   10.1033    3.6347 H         1 RES1    0.0000
     62 H19        5.3976    9.3592   -0.1941 H         1 RES1    0.0000
     63 H20        1.3640    7.1428    1.6797 H         1 RES1    0.0000
     64 H21        1.6168    7.2329    3.2077 H         1 RES1    0.0000
     65 H22        1.3535    5.8544    2.5443 H         1 RES1    0.0000
     66 H23        8.4565    6.4007    2.4843 H         1 RES1    0.0000
     67 H24        6.9190    6.5652    2.6078 H         1 RES1    0.0000
     68 H25        7.5305    5.1593    2.3731 H         1 RES1    0.0000
     69 H26        2.8305    5.1770    8.0017 H         1 RES1    0.0000
     70 H27        2.0529    3.9121    8.4551 H         1 RES1    0.0000
     71 H28        3.5808    4.0139    8.7021 H         1 RES1    0.0000
     72 H29        3.3389    1.7015    5.9920 H         1 RES1    0.0000
     73 H30        2.3245    1.7602    7.1636 H         1 RES1    0.0000
     74 H31        3.8482    1.8072    7.4529 H         1 RES1    0.0000
     75 H32        1.8860    4.9870    5.8579 H         1 RES1    0.0000
     76 H33        2.0107    3.6987    5.0039 H         1 RES1    0.0000
     77 H34        1.1171    3.7065    6.2725 H         1 RES1    0.0000
     78 H35        6.0724   12.8739    0.1323 H         1 RES1    0.0000
     79 H36        4.7437   12.4333    0.8028 H         1 RES1    0.0000
     80 H37        5.2762   11.6697   -0.4376 H         1 RES1    0.0000
     81 H38        7.8509   11.6031    0.1041 H         1 RES1    0.0000
     82 H39        7.1170   10.3010   -0.3123 H         1 RES1    0.0000
     83 H40        8.0554   10.3010    0.9228 H         1 RES1    0.0000
     84 H41        7.1242   11.4700    3.0772 H         1 RES1    0.0000
     85 H42        5.8077   12.2649    2.8760 H         1 RES1    0.0000
     86 H43        7.1177   12.7505    2.2002 H         1 RES1    0.0000
@<TRIPOS>BOND
     1    1   11 1
     2    2   18 1
     3    3   19 1
     4    4   26 1
     5    5   27 1
     6    6   33 1
     7    7    9 2
     8    8    9 2
     9    9   15 1
    10   10   11 1
    11   11   44 1
    12   12    1 1
    13   13   12 1
    14   14   13 ar
    15   15   14 ar
    16   16   15 ar
    17   17   16 ar
    18   18   13 ar
    19   19   17 1
    20   20    3 1
    21   21   20 1
    22   22   21 ar
    23   23   22 ar
    24   24   23 ar
    25   25   24 ar
    26   26   21 ar
    27   27   25 1
    28   28    5 1
    29   29   28 1
    30   30   29 ar
    31   31   30 ar
    32   32   10 ar
    33   33   10 ar
    34   34    4 1
    35   35    6 1
    36   36   23 1
    37   37   36 1
    38   38   36 1
    39   39   36 1
    40   40   31 1
    41   41   40 1
    42   42   40 1
    43   43   40 1
    44   45   11 1
    45   46   12 1
    46   47   12 1
    47   48   14 1
    48   49   16 1
    49   50    2 1
    50   51   19 1
    51   52   19 1
    52   53   20 1
    53   54   20 1
    54   55   22 1
    55   56   24 1
    56   57   27 1
    57   58   27 1
    58   59   28 1
    59   60   28 1
    60   61   30 1
    61   62   32 1
    62   63   35 1
    63   64   35 1
    64   65   35 1
    65   66   34 1
    66   67   34 1
    67   68   34 1
    68   69   39 1
    69   70   39 1
    70   71   39 1
    71   72   38 1
    72   73   38 1
    73   74   38 1
    74   75   37 1
    75   76   37 1
    76   77   37 1
    77   78   42 1
    78   79   42 1
    79   80   42 1
    80   81   41 1
    81   82   41 1
    82   83   41 1
    83   84   43 1
    84   85   43 1
    85   86   43 1
    86   17   18 ar
    87   25   26 ar
    88   29   33 ar
    89   31   32 ar
@<TRIPOS>SUBSTRUCTURE
     1 RES1 1

@<TRIPOS>CRYSIN
   9.6035   19.5800   17.7340  90.0000  95.7680  90.0000   9 1

