# MOL2 file generated by ConQuest
# Please check atom types

@<TRIPOS>MOLECULE
BAMQAJ
    50    51     1
SMALL
NO_CHARGES
****
Generated from CSD

@<TRIPOS>ATOM
      1 N1        -0.9148    8.8864    7.5636 N.pl3     1 RES1    0.0000
      2 O1        -0.5782    9.2760    6.4058 O.2       1 RES1    0.0000
      3 C1        -0.4620    9.5749    8.8195 C.3       1 RES1    0.0000
      4 N2        -1.9384    7.7788    9.1624 N.pl3     1 RES1    0.0000
      5 O2        -2.7295    6.9803    9.7387 O.2       1 RES1    0.0000
      6 C2        -1.2802   10.8647    8.8772 C.3       1 RES1    0.0000
      7 H1        -1.0429   11.3656    8.0888 H         1 RES1    0.0000
      8 H2        -0.8993   11.3895    9.6044 H         1 RES1    0.0000
      9 H3        -2.2842   10.6386    9.0495 H         1 RES1    0.0000
     10 C3         1.0141    9.8798    8.7454 C.3       1 RES1    0.0000
     11 H4         1.5145    9.0146    8.4899 H         1 RES1    0.0000
     12 H5         1.2114   10.5443    8.0368 H         1 RES1    0.0000
     13 H6         1.2465   10.2931    9.5743 H         1 RES1    0.0000
     14 C4        -0.8670    8.5370    9.8927 C.3       1 RES1    0.0000
     15 C5         0.2104    7.5221   10.2240 C.3       1 RES1    0.0000
     16 H7         0.8857    8.0072   10.7373 H         1 RES1    0.0000
     17 H8         0.5510    7.1474    9.3732 H         1 RES1    0.0000
     18 H9        -0.2219    6.7925   10.8332 H         1 RES1    0.0000
     19 C6        -1.4403    9.1056   11.1641 C.3       1 RES1    0.0000
     20 H10       -2.2670    9.6286   10.9650 H         1 RES1    0.0000
     21 H11       -1.6479    8.4365   11.7153 H         1 RES1    0.0000
     22 H12       -0.7538    9.7482   11.5662 H         1 RES1    0.0000
     23 C7        -1.8576    7.9787    7.8423 C.2       1 RES1    0.0000
     24 C8        -2.7162    7.3714    6.9136 C.1       1 RES1    0.0000
     25 C9        -3.5459    6.9068    6.1954 C.1       1 RES1    0.0000
     26 N1B       -7.1249    4.4036    3.9968 N.pl3     1 RES1    0.0000
     27 O1B       -7.4615    4.0140    5.1545 O.2       1 RES1    0.0000
     28 C1B       -7.5777    3.7151    2.7409 C.3       1 RES1    0.0000
     29 N2B       -6.1012    5.5112    2.3980 N.pl3     1 RES1    0.0000
     30 O2B       -5.3102    6.3097    1.8217 O.2       1 RES1    0.0000
     31 C2B       -6.7594    2.4253    2.6832 C.3       1 RES1    0.0000
     32 H1B       -6.9968    1.9244    3.4716 H         1 RES1    0.0000
     33 H2B       -7.1404    1.9005    1.9560 H         1 RES1    0.0000
     34 H3B       -5.7555    2.6514    2.5109 H         1 RES1    0.0000
     35 C3B       -9.0538    3.4102    2.8150 C.3       1 RES1    0.0000
     36 H4B       -9.5541    4.2754    3.0704 H         1 RES1    0.0000
     37 H5B       -9.2511    2.7457    3.5236 H         1 RES1    0.0000
     38 H6B       -9.2862    2.9969    1.9861 H         1 RES1    0.0000
     39 C4B       -7.1727    4.7530    1.6677 C.3       1 RES1    0.0000
     40 C5B       -8.2501    5.7679    1.3364 C.3       1 RES1    0.0000
     41 H7B       -8.9254    5.2828    0.8231 H         1 RES1    0.0000
     42 H8B       -8.5907    6.1426    2.1872 H         1 RES1    0.0000
     43 H9B       -7.8178    6.4975    0.7271 H         1 RES1    0.0000
     44 C6B       -6.5994    4.1844    0.3963 C.3       1 RES1    0.0000
     45 H10B      -5.7727    3.6614    0.5954 H         1 RES1    0.0000
     46 H11B      -6.3917    4.8535   -0.1549 H         1 RES1    0.0000
     47 H12B      -7.2858    3.5418   -0.0058 H         1 RES1    0.0000
     48 C7B       -6.1821    5.3113    3.7181 C.2       1 RES1    0.0000
     49 C8B       -5.3235    5.9186    4.6468 C.1       1 RES1    0.0000
     50 C9B       -4.4938    6.3832    5.3649 C.1       1 RES1    0.0000
@<TRIPOS>BOND
     1    1    2 1
     2    3    1 1
     3    4    5 1
     4    6    3 1
     5    7    6 1
     6    8    6 1
     7    9    6 1
     8   10    3 1
     9   11   10 1
    10   12   10 1
    11   13   10 1
    12   14    3 1
    13   15   14 1
    14   16   15 1
    15   17   15 1
    16   18   15 1
    17   19   14 1
    18   20   19 1
    19   21   19 1
    20   22   19 1
    21   23    1 1
    22   24   23 1
    23   25   24 3
    24   26   27 1
    25   28   26 1
    26   29   30 1
    27   31   28 1
    28   32   31 1
    29   33   31 1
    30   34   31 1
    31   35   28 1
    32   36   35 1
    33   37   35 1
    34   38   35 1
    35   39   28 1
    36   40   39 1
    37   41   40 1
    38   42   40 1
    39   43   40 1
    40   44   39 1
    41   45   44 1
    42   46   44 1
    43   47   44 1
    44   48   26 1
    45   49   48 1
    46   50   25 1
    47    4   14 1
    48    4   23 2
    49   29   39 1
    50   29   48 2
    51   49   50 3
@<TRIPOS>SUBSTRUCTURE
     1 RES1 1

@<TRIPOS>CRYSIN
   6.1700   13.2900   11.7106  90.0000  99.1870  90.0000 231 1

