# MOL2 file generated by ConQuest
# Please check atom types

@<TRIPOS>MOLECULE
BAMQAJ01
    50    51     1
SMALL
NO_CHARGES
****
Generated from CSD

@<TRIPOS>ATOM
      1 O1        -2.6329    0.3445    9.7071 O.2       1 RES1    0.0000
      2 N1        -1.8309    1.1430    9.1158 N.pl3     1 RES1    0.0000
      3 C1        -0.7345    1.8767    9.8335 C.3       1 RES1    0.0000
      4 O2        -0.4522    2.6100    6.3160 O.2       1 RES1    0.0000
      5 N2        -0.7831    2.2270    7.4980 N.pl3     1 RES1    0.0000
      6 C2         0.3660    0.8580   10.1082 C.3       1 RES1    0.0000
      7 H1        -0.0133    0.0857   10.6565 H         1 RES1    0.0000
      8 H2         1.1039    1.2915   10.6565 H         1 RES1    0.0000
      9 H3         0.7210    0.4876    9.2600 H         1 RES1    0.0000
     10 C3        -1.2665    2.4618   11.1349 C.3       1 RES1    0.0000
     11 H4        -1.4055    1.6869   11.7782 H         1 RES1    0.0000
     12 H5        -0.4920    3.0707   11.5035 H         1 RES1    0.0000
     13 H6        -2.0895    2.8994   10.9884 H         1 RES1    0.0000
     14 C4        -0.3434    2.9363    8.7438 C.3       1 RES1    0.0000
     15 C5         1.1297    3.2605    8.6797 C.3       1 RES1    0.0000
     16 H7         1.7093    2.3986    8.4931 H         1 RES1    0.0000
     17 H8         1.4053    3.6005    9.6034 H         1 RES1    0.0000
     18 H9         1.2449    3.9273    7.9551 H         1 RES1    0.0000
     19 C6        -1.1772    4.2107    8.8136 C.3       1 RES1    0.0000
     20 H10       -1.0246    4.7655    7.9437 H         1 RES1    0.0000
     21 H11       -0.8404    4.8011    9.6377 H         1 RES1    0.0000
     22 H12       -2.1943    4.0460    8.8937 H         1 RES1    0.0000
     23 C7        -1.7579    1.3139    7.7766 C.2       1 RES1    0.0000
     24 C8        -2.6166    0.7196    6.8563 C.1       1 RES1    0.0000
     25 C9        -3.4621    0.2596    6.1363 C.1       1 RES1    0.0000
     26 O1B       -5.2472   -0.3445    1.7391 O.2       1 RES1    0.0000
     27 N1B       -6.0492   -1.1430    2.3305 N.pl3     1 RES1    0.0000
     28 C1B       -7.1456   -1.8767    1.6128 C.3       1 RES1    0.0000
     29 O2B       -7.4279   -2.6100    5.1302 O.2       1 RES1    0.0000
     30 N2B       -7.0971   -2.2270    3.9483 N.pl3     1 RES1    0.0000
     31 C2B       -8.2461   -0.8580    1.3381 C.3       1 RES1    0.0000
     32 H1B       -7.8668   -0.0857    0.7898 H         1 RES1    0.0000
     33 H2B       -8.9840   -1.2915    0.7898 H         1 RES1    0.0000
     34 H3B       -8.6011   -0.4876    2.1862 H         1 RES1    0.0000
     35 C3B       -6.6136   -2.4618    0.3113 C.3       1 RES1    0.0000
     36 H4B       -6.4746   -1.6869   -0.3319 H         1 RES1    0.0000
     37 H5B       -7.3881   -3.0707   -0.0572 H         1 RES1    0.0000
     38 H6B       -5.7907   -2.8994    0.4578 H         1 RES1    0.0000
     39 C4B       -7.5367   -2.9363    2.7025 C.3       1 RES1    0.0000
     40 C5B       -9.0098   -3.2605    2.7666 C.3       1 RES1    0.0000
     41 H7B       -9.5894   -2.3986    2.9531 H         1 RES1    0.0000
     42 H8B       -9.2854   -3.6005    1.8428 H         1 RES1    0.0000
     43 H9B       -9.1250   -3.9273    3.4911 H         1 RES1    0.0000
     44 C6B       -6.7029   -4.2107    2.6326 C.3       1 RES1    0.0000
     45 H10B      -6.8555   -4.7655    3.5026 H         1 RES1    0.0000
     46 H11B      -7.0397   -4.8011    1.8085 H         1 RES1    0.0000
     47 H12B      -5.6858   -4.0460    2.5525 H         1 RES1    0.0000
     48 C7B       -6.1222   -1.3139    3.6697 C.2       1 RES1    0.0000
     49 C8B       -5.2636   -0.7196    4.5899 C.1       1 RES1    0.0000
     50 C9B       -4.4180   -0.2596    5.3099 C.1       1 RES1    0.0000
@<TRIPOS>BOND
     1    1    2 1
     2    2    3 1
     3    3    6 1
     4    4    5 1
     5    5   14 1
     6    6    7 1
     7    8    6 1
     8    9    6 1
     9   10    3 1
    10   11   10 1
    11   12   10 1
    12   13   10 1
    13   14    3 1
    14   15   14 1
    15   16   15 1
    16   17   15 1
    17   18   15 1
    18   19   14 1
    19   20   19 1
    20   21   19 1
    21   22   19 1
    22   23    2 2
    23   24   23 1
    24   25   24 3
    25   26   27 1
    26   27   28 1
    27   28   31 1
    28   29   30 1
    29   30   39 1
    30   31   32 1
    31   33   31 1
    32   34   31 1
    33   35   28 1
    34   36   35 1
    35   37   35 1
    36   38   35 1
    37   39   28 1
    38   40   39 1
    39   41   40 1
    40   42   40 1
    41   43   40 1
    42   44   39 1
    43   45   44 1
    44   46   44 1
    45   47   44 1
    46   48   27 2
    47   49   48 1
    48   50   25 1
    49    5   23 1
    50   30   48 1
    51   49   50 3
@<TRIPOS>SUBSTRUCTURE
     1 RES1 1

@<TRIPOS>CRYSIN
   6.1384   13.1790   11.5780  90.0000  98.6520  90.0000 231 1

