# MOL2 file generated by ConQuest
# Please check atom types

@<TRIPOS>MOLECULE
BANCAW
   105   108     3
SMALL
NO_CHARGES
****
Generated from CSD

@<TRIPOS>ATOM
      1 O1         2.7372    3.4020    1.8236 O.2       1 RES1    0.0000
      2 C1         1.9213    3.7167    0.9653 C.2       1 RES1    0.0000
      3 C2         0.9107    4.8583    1.0848 C.3       1 RES1    0.0000
      4 H1         1.4120    5.7235    1.0817 H         1 RES1    0.0000
      5 N1        -0.0250    6.1073   -0.9136 N.pl3     1 RES1    0.0000
      6 C3         0.0932    4.7712   -0.2062 C.3       1 RES1    0.0000
      7 H2        -0.8204    4.4227    0.0016 H         1 RES1    0.0000
      8 C4         0.8263    3.7701   -1.1524 C.3       1 RES1    0.0000
      9 H3         1.3285    4.2798   -1.8515 H         1 RES1    0.0000
     10 N2         1.7770    3.1182   -0.2475 N.am      1 RES1    0.0000
     11 C5         2.7234    2.1149   -0.7460 C.3       1 RES1    0.0000
     12 H4         2.2180    1.3568   -1.1342 H         1 RES1    0.0000
     13 H5         3.2570    1.7675    0.0115 H         1 RES1    0.0000
     14 C6         3.6716    2.6858   -1.8098 C.3       1 RES1    0.0000
     15 H6         4.2923    1.9718   -2.1042 H         1 RES1    0.0000
     16 H7         3.1401    2.9678   -2.5967 H         1 RES1    0.0000
     17 C7         4.4848    3.8741   -1.3098 C.3       1 RES1    0.0000
     18 H8         5.0383    3.5849   -0.5417 H         1 RES1    0.0000
     19 H9         3.8648    4.5772   -0.9898 H         1 RES1    0.0000
     20 C8         5.3971    4.4681   -2.3836 C.3       1 RES1    0.0000
     21 H10        6.0137    3.7777   -2.7066 H         1 RES1    0.0000
     22 H11        5.9097    5.2116   -2.0025 H         1 RES1    0.0000
     23 H12        4.8530    4.7957   -3.1301 H         1 RES1    0.0000
     24 C9         0.0805    4.7784    2.3918 C.3       1 RES1    0.0000
     25 H13        0.6992    4.7699    3.1646 H         1 RES1    0.0000
     26 H14       -0.4809    5.5910    2.4637 H         1 RES1    0.0000
     27 C10       -0.8135    3.5549    2.4667 C.ar      1 RES1    0.0000
     28 C11       -2.1837    3.6573    2.1889 C.ar      1 RES1    0.0000
     29 H15       -2.5527    4.5041    1.9664 H         1 RES1    0.0000
     30 C12       -3.0146    2.5368    2.2326 C.ar      1 RES1    0.0000
     31 H16       -3.9416    2.6222    2.0452 H         1 RES1    0.0000
     32 C13       -2.4760    1.2909    2.5542 C.ar      1 RES1    0.0000
     33 H17       -3.0352    0.5226    2.5786 H         1 RES1    0.0000
     34 C14       -1.1144    1.1729    2.8399 C.ar      1 RES1    0.0000
     35 H18       -0.7494    0.3244    3.0628 H         1 RES1    0.0000
     36 C15       -0.2891    2.2930    2.7994 C.ar      1 RES1    0.0000
     37 H19        0.6353    2.2041    2.9988 H         1 RES1    0.0000
     38 C16       -0.1118    2.7844   -1.8237 C.ar      1 RES1    0.0000
     39 C17       -0.2059    2.7562   -3.2173 C.ar      1 RES1    0.0000
     40 H20        0.3559    3.3173   -3.7391 H         1 RES1    0.0000
     41 C18       -1.1165    1.9119   -3.8489 C.ar      1 RES1    0.0000
     42 H21       -1.1892    1.8906   -4.7961 H         1 RES1    0.0000
     43 N3        -2.9357    0.2715   -3.7125 N.pl3     1 RES1    0.0000
     44 C19       -1.9147    1.1032   -3.0512 C.ar      1 RES1    0.0000
     45 O2        -3.2184    0.5282   -4.8892 O.2       1 RES1    0.0000
     46 C20       -1.8145    1.0667   -1.6645 C.ar      1 RES1    0.0000
     47 H22       -2.3529    0.4749   -1.1522 H         1 RES1    0.0000
     48 O3        -3.4727   -0.6160   -3.0633 O.2       1 RES1    0.0000
     49 C21       -0.9054    1.9182   -1.0479 C.ar      1 RES1    0.0000
     50 H23       -0.8193    1.9158   -0.1018 H         1 RES1    0.0000
     51 O4        -0.5908    6.1294   -2.0854 Du        3 SUP3    0.0000
     52 O5        -1.2795    6.5582   -0.6040 O.2       1 RES1    0.0000
     53 O6         0.8716    6.9035   -0.9055 O.2       1 RES1    0.0000
     54 O7        -3.3629    9.8277    6.4181 O.2       2 RES2    0.0000
     55 C22       -2.6288    9.5356    7.3549 C.2       2 RES2    0.0000
     56 C23       -1.1131    9.7161    7.3744 C.3       2 RES2    0.0000
     57 H24       -0.9134   10.6951    7.4207 H         2 RES2    0.0000
     58 N4         0.2757    9.9131    9.5172 N.pl3     2 RES2    0.0000
     59 C24       -0.6782    9.0735    8.6927 C.3       2 RES2    0.0000
     60 H25       -0.2381    8.1978    8.4909 H         2 RES2    0.0000
     61 C25       -1.9718    8.7993    9.5299 C.3       2 RES2    0.0000
     62 H26       -2.0494    9.4770   10.2619 H         2 RES2    0.0000
     63 N5        -3.0337    9.0118    8.5470 N.am      2 RES2    0.0000
     64 C26       -4.4451    8.9316    8.9417 C.3       2 RES2    0.0000
     65 H27       -4.6461    8.0102    9.2426 H         2 RES2    0.0000
     66 H28       -5.0143    9.1246    8.1544 H         2 RES2    0.0000
     67 C27       -4.7923    9.9162   10.0666 C.3       2 RES2    0.0000
     68 H29       -5.7596    9.8506   10.2668 H         2 RES2    0.0000
     69 H30       -4.2957    9.6599   10.8840 H         2 RES2    0.0000
     70 C28       -4.4542   11.3641    9.7116 C.3       2 RES2    0.0000
     71 H31       -4.8724   11.5931    8.8438 H         2 RES2    0.0000
     72 H32       -3.4737   11.4539    9.6103 H         2 RES2    0.0000
     73 C29       -4.9418   12.3464   10.7803 C.3       2 RES2    0.0000
     74 H33       -5.9117   12.2538   10.8922 H         2 RES2    0.0000
     75 H34       -4.7317   13.2628   10.5032 H         2 RES2    0.0000
     76 H35       -4.4955   12.1520   11.6308 H         2 RES2    0.0000
     77 C30       -0.4276    9.1368    6.1109 C.3       2 RES2    0.0000
     78 H36       -0.7997    9.5851    5.3099 H         2 RES2    0.0000
     79 H37        0.5404    9.3422    6.1486 H         2 RES2    0.0000
     80 C31       -0.6049    7.6382    5.9605 C.ar      2 RES2    0.0000
     81 C32        0.3733    6.7520    6.4395 C.ar      2 RES2    0.0000
     82 H38        1.1542    7.1005    6.8528 H         2 RES2    0.0000
     83 C33        0.2211    5.3683    6.3216 C.ar      2 RES2    0.0000
     84 H39        0.8936    4.7849    6.6525 H         2 RES2    0.0000
     85 C34       -0.9191    4.8476    5.7186 C.ar      2 RES2    0.0000
     86 H40       -1.0269    3.9069    5.6332 H         2 RES2    0.0000
     87 C35       -1.9048    5.7152    5.2399 C.ar      2 RES2    0.0000
     88 H41       -2.6863    5.3620    4.8322 H         2 RES2    0.0000
     89 C36       -1.7482    7.0976    5.3575 C.ar      2 RES2    0.0000
     90 H42       -2.4239    7.6773    5.0259 H         2 RES2    0.0000
     91 C37       -1.9914    7.3976   10.1235 C.ar      2 RES2    0.0000
     92 C38       -1.8200    7.2251   11.4992 C.ar      2 RES2    0.0000
     93 H43       -1.7738    7.9839   12.0691 H         2 RES2    0.0000
     94 C39       -1.7160    5.9399   12.0425 C.ar      2 RES2    0.0000
     95 H44       -1.6020    5.8126   12.9768 H         2 RES2    0.0000
     96 N6        -1.5471    3.5051   11.7270 N.pl3     2 RES2    0.0000
     97 C40       -1.7842    4.8584   11.1793 C.ar      2 RES2    0.0000
     98 O8        -1.4575    2.5660   10.9478 O.2       2 RES2    0.0000
     99 C41       -2.0127    4.9938    9.8140 C.ar      2 RES2    0.0000
    100 H45       -2.0921    4.2288    9.2557 H         2 RES2    0.0000
    101 O9        -1.3789    3.4002   12.9467 O.2       2 RES2    0.0000
    102 C42       -2.1227    6.2772    9.2850 C.ar      2 RES2    0.0000
    103 H46       -2.2869    6.3962    8.3563 H         2 RES2    0.0000
    104 O10        0.5603   11.0456    9.1591 O.2       2 RES2    0.0000
    105 O11        0.6941    9.3961   10.5487 O.2       2 RES2    0.0000
@<TRIPOS>BOND
     1    1    2 2
     2    2    3 1
     3    3    4 1
     4    5    6 1
     5    6    3 1
     6    7    6 1
     7    8    6 1
     8    9    8 1
     9   10    2 1
    10   11   10 1
    11   12   11 1
    12   13   11 1
    13   14   11 1
    14   15   14 1
    15   16   14 1
    16   17   14 1
    17   18   17 1
    18   19   17 1
    19   20   17 1
    20   21   20 1
    21   22   20 1
    22   23   20 1
    23   24    3 1
    24   25   24 1
    25   26   24 1
    26   27   24 1
    27   28   27 ar
    28   29   28 1
    29   30   28 ar
    30   31   30 1
    31   32   30 ar
    32   33   32 1
    33   34   32 ar
    34   35   34 1
    35   36   27 ar
    36   37   36 1
    37   38    8 1
    38   39   38 ar
    39   40   39 1
    40   41   39 ar
    41   42   41 1
    42   43   44 1
    43   44   41 ar
    44   45   43 2
    45   46   44 ar
    46   47   46 1
    47   48   43 2
    48   49   38 ar
    49   50   49 1
    50   52    5 2
    51   53    5 2
    52   54   55 2
    53   55   56 1
    54   56   57 1
    55   58   59 1
    56   59   56 1
    57   60   59 1
    58   61   59 1
    59   62   61 1
    60   63   55 1
    61   64   63 1
    62   65   64 1
    63   66   64 1
    64   67   64 1
    65   68   67 1
    66   69   67 1
    67   70   67 1
    68   71   70 1
    69   72   70 1
    70   73   70 1
    71   74   73 1
    72   75   73 1
    73   76   73 1
    74   77   56 1
    75   78   77 1
    76   79   77 1
    77   80   77 1
    78   81   80 ar
    79   82   81 1
    80   83   81 ar
    81   84   83 1
    82   85   83 ar
    83   86   85 1
    84   87   85 ar
    85   88   87 1
    86   89   80 ar
    87   90   89 1
    88   91   61 1
    89   92   91 ar
    90   93   92 1
    91   94   92 ar
    92   95   94 1
    93   96   97 1
    94   97   94 ar
    95   98   96 2
    96   99   97 ar
    97  100   99 1
    98  101   96 2
    99  102   91 ar
   100  103  102 1
   101  104   58 2
   102  105   58 2
   103    8   10 1
   104   34   36 ar
   105   46   49 ar
   106   61   63 1
   107   87   89 ar
   108   99  102 ar
@<TRIPOS>SUBSTRUCTURE
     1 RES1 1
     2 RES2 54
     3 SUP3 51

@<TRIPOS>CRYSIN
   9.1434   13.8520   16.9640  94.4410 102.1250 105.8990   2 1

