# MOL2 file generated by ConQuest
# Please check atom types

@<TRIPOS>MOLECULE
BANDEB
    58    60     1
SMALL
NO_CHARGES
****
Generated from CSD

@<TRIPOS>ATOM
      1 O1         2.6420    1.5462    8.7477 O.3       1 RES1    0.0000
      2 O2         0.5006    3.6433    4.8998 O.2       1 RES1    0.0000
      3 O3        -1.3637    4.7008    5.1479 O.2       1 RES1    0.0000
      4 O4        -1.6704    1.4808    8.8858 O.3       1 RES1    0.0000
      5 O5        -2.1512   -0.7082    8.7074 O.2       1 RES1    0.0000
      6 O6        -8.2841    3.1253    9.5487 O.2       1 RES1    0.0000
      7 O7        -8.8152    1.0339    9.4108 O.2       1 RES1    0.0000
      8 N1        -0.4969    3.9268    5.5445 N.pl3     1 RES1    0.0000
      9 N2        -7.9977    1.9433    9.4031 N.pl3     1 RES1    0.0000
     10 C1         4.7241    0.7220    7.9801 C.3       1 RES1    0.0000
     11 C2         4.0366    1.4783    9.1067 C.3       1 RES1    0.0000
     12 C3         4.1964    0.8436   10.4772 C.3       1 RES1    0.0000
     13 C4         3.3819    1.6039   11.5225 C.3       1 RES1    0.0000
     14 C5         1.9195    1.7314   11.0569 C.3       1 RES1    0.0000
     15 C6         1.8736    2.3504    9.6611 C.3       1 RES1    0.0000
     16 C7         0.4884    2.5191    9.0346 C.3       1 RES1    0.0000
     17 C8         0.6308    3.2578    7.6691 C.3       1 RES1    0.0000
     18 C9        -0.6886    3.2862    6.8909 C.3       1 RES1    0.0000
     19 C10        1.1842    4.6694    7.8284 C.ar      1 RES1    0.0000
     20 C11        0.3849    5.7190    8.2616 C.ar      1 RES1    0.0000
     21 C12        0.8745    7.0031    8.3991 C.ar      1 RES1    0.0000
     22 C13        2.1843    7.2611    8.1329 C.ar      1 RES1    0.0000
     23 C14        3.0181    6.2585    7.7125 C.ar      1 RES1    0.0000
     24 C15        2.5108    4.9372    7.5345 C.ar      1 RES1    0.0000
     25 C16       -0.2439    1.1870    8.8943 C.3       1 RES1    0.0000
     26 C17       -2.5108    0.4326    8.8479 C.2       1 RES1    0.0000
     27 C18       -3.9366    0.8632    8.9953 C.ar      1 RES1    0.0000
     28 C19       -4.2864    2.1797    9.2481 C.ar      1 RES1    0.0000
     29 C20       -5.6129    2.5485    9.3800 C.ar      1 RES1    0.0000
     30 C21       -6.5687    1.5803    9.2640 C.ar      1 RES1    0.0000
     31 C22       -6.2592    0.2590    9.0311 C.ar      1 RES1    0.0000
     32 C23       -4.9323   -0.0922    8.9047 C.ar      1 RES1    0.0000
     33 H1         4.5878    1.1938    7.1436 H         1 RES1    0.0000
     34 H2         4.3503   -0.1697    7.9129 H         1 RES1    0.0000
     35 H3         5.6748    0.6602    8.1651 H         1 RES1    0.0000
     36 H4         4.4003    2.3984    9.1390 H         1 RES1    0.0000
     37 H5         5.1420    0.8495   10.7322 H         1 RES1    0.0000
     38 H6         3.8969   -0.0893   10.4435 H         1 RES1    0.0000
     39 H7         3.7655    2.4956   11.6556 H         1 RES1    0.0000
     40 H8         3.4147    1.1261   12.3787 H         1 RES1    0.0000
     41 H9         1.4993    0.8466   11.0405 H         1 RES1    0.0000
     42 H10        1.4200    2.2945   11.6850 H         1 RES1    0.0000
     43 H11        2.2958    3.2440    9.7107 H         1 RES1    0.0000
     44 H12       -0.0470    3.0959    9.6350 H         1 RES1    0.0000
     45 H13        1.2821    2.7467    7.1254 H         1 RES1    0.0000
     46 H14       -1.0196    2.3710    6.7737 H         1 RES1    0.0000
     47 H15       -1.3586    3.7885    7.4000 H         1 RES1    0.0000
     48 H16       -0.5165    5.5503    8.4678 H         1 RES1    0.0000
     49 H17        0.3057    7.6976    8.6766 H         1 RES1    0.0000
     50 H18        2.5198    8.1331    8.2380 H         1 RES1    0.0000
     51 H19        3.9240    6.4410    7.5401 H         1 RES1    0.0000
     52 H20        3.0732    4.2525    7.2207 H         1 RES1    0.0000
     53 H21        0.0161    0.7416    8.0614 H         1 RES1    0.0000
     54 H22       -0.0218    0.5964    9.6448 H         1 RES1    0.0000
     55 H23       -3.6138    2.8311    9.3309 H         1 RES1    0.0000
     56 H24       -5.8505    3.4432    9.5439 H         1 RES1    0.0000
     57 H25       -6.9379   -0.3885    8.9610 H         1 RES1    0.0000
     58 H26       -4.7016   -0.9908    8.7550 H         1 RES1    0.0000
@<TRIPOS>BOND
     1    1   11 1
     2    2    8 2
     3    3    8 2
     4    4   25 1
     5    5   26 2
     6    6    9 2
     7    7    9 2
     8    8   18 1
     9    9   30 1
    10   10   11 1
    11   11   12 1
    12   12   13 1
    13   13   14 1
    14   14   15 1
    15   15    1 1
    16   16   15 1
    17   17   16 1
    18   18   17 1
    19   19   17 1
    20   20   19 ar
    21   21   20 ar
    22   22   21 ar
    23   23   22 ar
    24   24   19 ar
    25   25   16 1
    26   26    4 1
    27   27   26 1
    28   28   27 ar
    29   29   28 ar
    30   30   29 ar
    31   31   30 ar
    32   32   27 ar
    33   33   10 1
    34   34   10 1
    35   35   10 1
    36   36   11 1
    37   37   12 1
    38   38   12 1
    39   39   13 1
    40   40   13 1
    41   41   14 1
    42   42   14 1
    43   43   15 1
    44   44   16 1
    45   45   17 1
    46   46   18 1
    47   47   18 1
    48   48   20 1
    49   49   21 1
    50   50   22 1
    51   51   23 1
    52   52   24 1
    53   53   25 1
    54   54   25 1
    55   55   28 1
    56   56   29 1
    57   57   31 1
    58   58   32 1
    59   23   24 ar
    60   31   32 ar
@<TRIPOS>SUBSTRUCTURE
     1 RES1 1

@<TRIPOS>CRYSIN
  16.5820    9.8096   14.6740  90.0000 107.2690  90.0000  14 1

