# MOL2 file generated by ConQuest
# Please check atom types

@<TRIPOS>MOLECULE
BANFIG
    20    20     1
SMALL
NO_CHARGES
****
Generated from CSD

@<TRIPOS>ATOM
      1 O1         1.5925    0.3249    3.9574 O.2       1 RES1    0.0000
      2 O2         1.7897    0.8981    6.0143 O.2       1 RES1    0.0000
      3 N1         1.4218    1.1138    4.8681 N.pl3     1 RES1    0.0000
      4 C1        -0.3247    3.7788    2.9765 C.ar      1 RES1    0.0000
      5 C2        -0.3912    4.7802    3.9391 C.ar      1 RES1    0.0000
      6 C3         0.1466    4.5620    5.2108 C.ar      1 RES1    0.0000
      7 C4         0.7121    3.3472    5.5409 C.ar      1 RES1    0.0000
      8 C5         0.7661    2.3975    4.5638 C.ar      1 RES1    0.0000
      9 C6         0.2796    2.5656    3.2783 C.ar      1 RES1    0.0000
     10 C7        -0.9291    4.0801    1.6333 C.2       1 RES1    0.0000
     11 O3        -1.4689    5.1680    1.4050 O.2       1 RES1    0.0000
     12 N2        -0.8777    3.1071    0.7079 N.am      1 RES1    0.0000
     13 N3        -1.4992    3.2814   -0.5578 N.3       1 RES1    0.0000
     14 H1        -0.7836    5.7667    3.6070 H         1 RES1    0.0000
     15 H2        -0.0369    5.2179    5.9210 H         1 RES1    0.0000
     16 H3         1.1130    3.1788    6.5875 H         1 RES1    0.0000
     17 H4         0.3177    1.8107    2.5057 H         1 RES1    0.0000
     18 H5        -0.4441    2.1511    0.8753 H         1 RES1    0.0000
     19 H6        -0.8949    3.8633   -1.1613 H         1 RES1    0.0000
     20 H7        -2.4652    3.6242   -0.5378 H         1 RES1    0.0000
@<TRIPOS>BOND
     1    1    3 2
     2    2    3 2
     3    3    8 1
     4    4    5 ar
     5    5    6 ar
     6    6    7 ar
     7    7    8 ar
     8    8    9 ar
     9    9    4 ar
    10   10    4 1
    11   11   10 2
    12   12   10 1
    13   13   12 1
    14   14    5 1
    15   15    6 1
    16   16    7 1
    17   17    9 1
    18   18   12 1
    19   19   13 1
    20   20   13 1
@<TRIPOS>SUBSTRUCTURE
     1 RES1 1

@<TRIPOS>CRYSIN
   3.8890    7.1370   28.6040  90.0000  90.0000  90.0000  19 1

