# MOL2 file generated by ConQuest
# Please check atom types

@<TRIPOS>MOLECULE
BANFAY
    21    19     2
SMALL
NO_CHARGES
****
Generated from CSD

@<TRIPOS>ATOM
      1 O1         2.1427    5.7450   20.3929 O.2       1 RES1    0.0000
      2 O2         5.8522    5.8422   17.4479 O.2       1 RES1    0.0000
      3 O3         4.0445    7.9353   20.4736 O.3       1 RES1    0.0000
      4 H1         4.6960    8.7031   20.8055 H         1 RES1    0.0000
      5 N1         4.7878    7.3696   19.5107 N.2       1 RES1    0.0000
      6 O4         5.1022    8.1034   19.6470 Du        2 SUP2    0.0000
      7 H2         5.1912    9.1348   19.8645 Du        2 SUP2    0.0000
      8 N2         4.0673    7.1906   19.9691 Du        2 SUP2    0.0000
      9 C1         2.9239    4.2852   18.6306 C.ar      1 RES1    0.0000
     10 C2         4.0178    4.3142   17.7766 C.ar      1 RES1    0.0000
     11 C3         4.2170    3.3286   16.8246 C.ar      1 RES1    0.0000
     12 H3         4.9853    3.3498   16.2910 H         1 RES1    0.0000
     13 C4         3.2917    2.3178   16.7445 C.ar      1 RES1    0.0000
     14 H4         3.4052    1.6427   16.0819 H         1 RES1    0.0000
     15 C5         2.1900    2.2869   17.6008 C.ar      1 RES1    0.0000
     16 H5         1.5969    1.5654   17.5184 H         1 RES1    0.0000
     17 C6         1.9947    3.2654   18.5520 C.ar      1 RES1    0.0000
     18 H6         1.2575    3.3176   19.1347 H         1 RES1    0.0000
     19 C7         2.9528    5.4757   19.5222 C.2       1 RES1    0.0000
     20 C8         4.1730    6.2378   19.1416 C.2       1 RES1    0.0000
     21 C9         4.8418    5.5195   18.0393 C.2       1 RES1    0.0000
@<TRIPOS>BOND
     1    1   19 2
     2    2   21 2
     3    3    4 1
     4    5    3 1
     5    9   10 ar
     6   10   11 ar
     7   11   12 1
     8   13   11 ar
     9   14   13 1
    10   15   13 ar
    11   16   15 1
    12   17    9 ar
    13   18   17 1
    14   19    9 1
    15   20    5 2
    16   21   10 1
    17   15   17 ar
    18   19   20 1
    19   20   21 1
@<TRIPOS>SUBSTRUCTURE
     1 RES1 1
     2 SUP2 6

@<TRIPOS>CRYSIN
   5.5640    6.4420   20.9100  90.0000  90.0000  90.0000  19 1

