# MOL2 file generated by ConQuest
# Please check atom types

@<TRIPOS>MOLECULE
BANHON
    19    21     1
SMALL
NO_CHARGES
****
Generated from CSD

@<TRIPOS>ATOM
      1 C1        -0.5405   10.0325    4.4102 C.3       1 RES1    0.0000
      2 C2         0.6878   10.2484    5.3461 C.3       1 RES1    0.0000
      3 C3         0.0832   10.9387    6.6095 C.3       1 RES1    0.0000
      4 C4        -1.4130   11.0688    6.1910 C.3       1 RES1    0.0000
      5 C5        -1.9490    9.6556    6.1771 C.2       1 RES1    0.0000
      6 C6        -1.4406    9.0451    5.1246 C.2       1 RES1    0.0000
      7 C7        -1.2977   11.3718    4.6829 C.3       1 RES1    0.0000
      8 C8         1.4542    8.9860    5.6130 C.2       1 RES1    0.0000
      9 O1         1.8375    8.6253    6.7085 O.co2     1 RES1    0.0000
     10 O2         1.6988    8.3001    4.5232 O.co2     1 RES1    0.0000
     11 C9         0.8064   12.2218    6.9696 C.ar      1 RES1    0.0000
     12 C10        2.0933   12.1345    7.4684 C.ar      1 RES1    0.0000
     13 C11        2.8335   13.2580    7.7796 C.ar      1 RES1    0.0000
     14 C12        2.2477   14.4982    7.5850 C.ar      1 RES1    0.0000
     15 C13        0.9722   14.6283    7.1339 C.ar      1 RES1    0.0000
     16 C14        0.2512   13.4886    6.8181 C.ar      1 RES1    0.0000
     17 N1         3.0433   15.6955    7.8787 N.pl3     1 RES1    0.0000
     18 O3         4.2027   15.5551    8.2365 O.2       1 RES1    0.0000
     19 O4         2.5032   16.7924    7.7341 O.2       1 RES1    0.0000
@<TRIPOS>BOND
     1    1    2 1
     2    2    3 1
     3    3    4 1
     4    4    5 1
     5    5    6 2
     6    6    1 1
     7    7    1 1
     8    8    2 1
     9    9    8 2
    10   10    8 1
    11   11    3 1
    12   12   11 ar
    13   13   12 ar
    14   14   13 ar
    15   15   14 ar
    16   16   11 ar
    17   17   14 1
    18   18   17 2
    19   19   17 2
    20    4    7 1
    21   15   16 ar
@<TRIPOS>SUBSTRUCTURE
     1 RES1 1

@<TRIPOS>CRYSIN
   7.0750   14.7820   11.8310  90.0000  99.9000  90.0000  14 1

