# MOL2 file generated by ConQuest
# Please check atom types

@<TRIPOS>MOLECULE
BANHIH
    20    22     1
SMALL
NO_CHARGES
****
Generated from CSD

@<TRIPOS>ATOM
      1 C1        -3.5073   11.7777    1.9647 C.3       1 RES1    0.0000
      2 C2        -2.5117   10.5684    1.9426 C.3       1 RES1    0.0000
      3 C3        -1.2775   11.0957    2.7399 C.3       1 RES1    0.0000
      4 C4        -1.7061   12.5706    3.0305 C.3       1 RES1    0.0000
      5 C5        -2.8335   12.4734    4.0369 C.2       1 RES1    0.0000
      6 C6        -3.8921   11.9913    3.3999 C.2       1 RES1    0.0000
      7 C7        -2.4938   12.9171    1.7661 C.3       1 RES1    0.0000
      8 C8        -3.0728    9.2688    2.4578 C.2       1 RES1    0.0000
      9 O1        -2.5168    8.5251    3.2166 O.2       1 RES1    0.0000
     10 O2        -4.2449    9.0058    1.9081 O.3       1 RES1    0.0000
     11 C9         0.0056   10.9053    1.9801 C.ar      1 RES1    0.0000
     12 C10        0.7577   11.9407    1.4256 C.ar      1 RES1    0.0000
     13 C11        1.9153   11.7051    0.7224 C.ar      1 RES1    0.0000
     14 C12        2.3351   10.3986    0.5391 C.ar      1 RES1    0.0000
     15 C13        1.6311    9.3427    1.0773 C.ar      1 RES1    0.0000
     16 C14        0.4941    9.5975    1.7987 C.ar      1 RES1    0.0000
     17 N1         3.5278   10.1384   -0.2504 N.pl3     1 RES1    0.0000
     18 O3         4.2213   11.0875   -0.5986 O.2       1 RES1    0.0000
     19 O4         3.7978    8.9757   -0.5459 O.2       1 RES1    0.0000
     20 C15       -4.8457    7.7349    2.2506 C.3       1 RES1    0.0000
@<TRIPOS>BOND
     1    1    2 1
     2    2    3 1
     3    3    4 1
     4    4    5 1
     5    5    6 2
     6    6    1 1
     7    7    1 1
     8    8    2 1
     9    9    8 2
    10   10    8 1
    11   11    3 1
    12   12   11 ar
    13   13   12 ar
    14   14   13 ar
    15   15   14 ar
    16   16   11 ar
    17   17   14 1
    18   18   17 2
    19   19   17 2
    20   20   10 1
    21    4    7 1
    22   15   16 ar
@<TRIPOS>SUBSTRUCTURE
     1 RES1 1

@<TRIPOS>CRYSIN
  10.1650   13.6950    9.7930  90.0000 101.5900  90.0000  14 1

