# MOL2 file generated by ConQuest
# Please check atom types

@<TRIPOS>MOLECULE
BANHUT
    20    22     1
SMALL
NO_CHARGES
****
Generated from CSD

@<TRIPOS>ATOM
      1 C1         0.1692   12.5517    6.3699 C.3       1 RES1    0.0000
      2 C2         1.6607   12.4571    5.9469 C.3       1 RES1    0.0000
      3 C3         1.8845   10.9082    5.7457 C.3       1 RES1    0.0000
      4 C4         0.4584   10.3569    6.1141 C.3       1 RES1    0.0000
      5 C5         0.2148   10.6228    7.5775 C.2       1 RES1    0.0000
      6 C6         0.0436   11.9072    7.7322 C.2       1 RES1    0.0000
      7 C7        -0.4270   11.4415    5.5058 C.3       1 RES1    0.0000
      8 C8         2.6071   13.1601    6.8714 C.2       1 RES1    0.0000
      9 O1         2.3585   13.5628    7.9778 O.2       1 RES1    0.0000
     10 O2         3.8004   13.3404    6.2858 O.3       1 RES1    0.0000
     11 C9         3.0329   10.2201    6.4348 C.ar      1 RES1    0.0000
     12 C10        3.8592    9.3909    5.6888 C.ar      1 RES1    0.0000
     13 C11        4.8844    8.6788    6.2619 C.ar      1 RES1    0.0000
     14 C12        5.0991    8.8035    7.6196 C.ar      1 RES1    0.0000
     15 C13        4.3065    9.6147    8.4008 C.ar      1 RES1    0.0000
     16 C14        3.2945   10.3223    7.8083 C.ar      1 RES1    0.0000
     17 N1         6.2005    8.0568    8.2393 N.pl3     1 RES1    0.0000
     18 O3         6.3939    8.2101    9.4423 O.2       1 RES1    0.0000
     19 O4         6.8946    7.3417    7.5332 O.2       1 RES1    0.0000
     20 C15        4.7953   14.0135    7.0738 C.3       1 RES1    0.0000
@<TRIPOS>BOND
     1    1    2 1
     2    2    3 1
     3    3    4 1
     4    4    5 1
     5    5    6 2
     6    6    1 1
     7    7    1 1
     8    8    2 1
     9    9    8 2
    10   10    8 1
    11   11    3 1
    12   12   11 ar
    13   13   12 ar
    14   14   13 ar
    15   15   14 ar
    16   16   11 ar
    17   17   14 1
    18   18   17 2
    19   19   17 2
    20   20   10 1
    21    4    7 1
    22   15   16 ar
@<TRIPOS>SUBSTRUCTURE
     1 RES1 1

@<TRIPOS>CRYSIN
   7.9580   15.0230   11.4320  90.0000  95.9300  90.0000  14 1

