# MOL2 file generated by ConQuest
# Please check atom types

@<TRIPOS>MOLECULE
BANHOO01
    33    34     1
SMALL
NO_CHARGES
****
Generated from CSD

@<TRIPOS>ATOM
      1 O1         4.8000    1.0400    4.5261 O.2       1 RES1    0.0000
      2 O2         4.4163   -0.6519    3.2681 O.2       1 RES1    0.0000
      3 O3         1.5922    5.5661   -7.0297 O.3       1 RES1    0.0000
      4 N1         4.3671    0.5442    3.5006 N.pl3     1 RES1    0.0000
      5 N2         1.3319    6.2211    0.1633 N.1       1 RES1    0.0000
      6 C1         3.7793    1.4247    2.4854 C.ar      1 RES1    0.0000
      7 C2         3.7873    2.7899    2.6975 C.ar      1 RES1    0.0000
      8 C3         3.2744    3.6168    1.7174 C.ar      1 RES1    0.0000
      9 C4         2.7758    3.0838    0.5275 C.ar      1 RES1    0.0000
     10 C5         2.7427    1.6963    0.3743 C.ar      1 RES1    0.0000
     11 C6         3.2527    0.8672    1.3465 C.ar      1 RES1    0.0000
     12 C7         2.3250    3.9606   -0.5819 C.2       1 RES1    0.0000
     13 C8         1.7799    5.2356   -0.1974 C.1       1 RES1    0.0000
     14 C9         2.4747    3.5787   -1.8683 C.2       1 RES1    0.0000
     15 C10        2.1759    4.2000   -3.1456 C.ar      1 RES1    0.0000
     16 C11        1.6051    5.4617   -3.3532 C.ar      1 RES1    0.0000
     17 C12        1.3942    5.9604   -4.6259 C.ar      1 RES1    0.0000
     18 C13        1.7479    5.1932   -5.7319 C.ar      1 RES1    0.0000
     19 C14        2.3074    3.9367   -5.5425 C.ar      1 RES1    0.0000
     20 C15        2.5160    3.4616   -4.2856 C.ar      1 RES1    0.0000
     21 C16        1.0326    6.8511   -7.3098 C.3       1 RES1    0.0000
     22 H1         4.2194    3.1745    3.5165 H         1 RES1    0.0000
     23 H2         3.3193    4.5496    1.8604 H         1 RES1    0.0000
     24 H3         2.3112    1.3318   -0.3630 H         1 RES1    0.0000
     25 H4         3.2358   -0.0496    1.2251 H         1 RES1    0.0000
     26 H5         2.8883    2.7162   -1.9738 H         1 RES1    0.0000
     27 H6         1.3762    6.0208   -2.5750 H         1 RES1    0.0000
     28 H7         1.0225    6.8508   -4.7190 H         1 RES1    0.0000
     29 H8         2.5060    3.4192   -6.3071 H         1 RES1    0.0000
     30 H9         2.9552    2.5861   -4.1177 H         1 RES1    0.0000
     31 H10        0.9943    6.8539   -8.2468 H         1 RES1    0.0000
     32 H11        0.1152    6.9220   -6.9650 H         1 RES1    0.0000
     33 H12        1.6493    7.5662   -6.8742 H         1 RES1    0.0000
@<TRIPOS>BOND
     1    1    4 2
     2    2    4 2
     3    3   18 1
     4    4    6 1
     5    5   13 3
     6    6    7 ar
     7    7    8 ar
     8    8    9 ar
     9    9   10 ar
    10   10   11 ar
    11   11    6 ar
    12   12    9 1
    13   13   12 1
    14   14   12 2
    15   15   14 1
    16   16   15 ar
    17   17   16 ar
    18   18   17 ar
    19   19   18 ar
    20   20   15 ar
    21   21    3 1
    22   22    7 1
    23   23    8 1
    24   24   10 1
    25   25   11 1
    26   26   14 1
    27   27   16 1
    28   28   17 1
    29   29   19 1
    30   30   20 1
    31   31   21 1
    32   32   21 1
    33   33   21 1
    34   19   20 ar
@<TRIPOS>SUBSTRUCTURE
     1 RES1 1

@<TRIPOS>CRYSIN
   3.8590   30.9710   11.3460  90.0000  91.1700  90.0000   9 1

