# MOL2 file generated by ConQuest
# Please check atom types

@<TRIPOS>MOLECULE
BANMOS10
    42    43     1
SMALL
NO_CHARGES
****
Generated from CSD

@<TRIPOS>ATOM
      1 N1         3.0447    4.5747    9.2212 N.3       1 RES1    0.0000
      2 N2         1.9323    5.0462    8.7467 N.2       1 RES1    0.0000
      3 N3         0.4639    5.5800    7.0154 N.pl3     1 RES1    0.0000
      4 N4         2.5274    4.6999    6.3661 N.2       1 RES1    0.0000
      5 N5         3.7198    4.2381    6.6081 N.2       1 RES1    0.0000
      6 O1         0.0339    5.2442    5.9091 O.2       1 RES1    0.0000
      7 O2        -0.1301    6.3057    7.8058 O.2       1 RES1    0.0000
      8 C1         1.7973    5.0612    7.4079 C.2       1 RES1    0.0000
      9 C2         3.1491    4.5297   10.6380 C.ar      1 RES1    0.0000
     10 C3         2.0257    4.4472   11.4876 C.ar      1 RES1    0.0000
     11 C4         2.2604    4.4442   12.8560 C.ar      1 RES1    0.0000
     12 C5         3.5333    4.4862   13.3654 C.ar      1 RES1    0.0000
     13 C6         4.6320    4.5259   12.5293 C.ar      1 RES1    0.0000
     14 C7         4.4581    4.5297   11.1515 C.ar      1 RES1    0.0000
     15 C8         0.5981    4.2778   11.0023 C.3       1 RES1    0.0000
     16 C9         5.6560    4.5994   10.2576 C.3       1 RES1    0.0000
     17 C10        4.5002    3.8377    5.4709 C.ar      1 RES1    0.0000
     18 C11        3.9081    3.2747    4.3337 C.ar      1 RES1    0.0000
     19 C12        4.7858    2.8863    3.3040 C.ar      1 RES1    0.0000
     20 C13        6.1459    3.0655    3.3860 C.ar      1 RES1    0.0000
     21 C14        6.6905    3.6226    4.5232 C.ar      1 RES1    0.0000
     22 C15        5.8748    4.0281    5.5852 C.ar      1 RES1    0.0000
     23 C16        2.4503    2.9846    4.1751 C.3       1 RES1    0.0000
     24 C17        6.4823    4.6421    6.8111 C.3       1 RES1    0.0000
     25 H1         1.4296    4.4082   13.5361 H         1 RES1    0.0000
     26 H2         3.6846    4.4907   14.4367 H         1 RES1    0.0000
     27 H3         5.6236    4.5582   12.9447 H         1 RES1    0.0000
     28 H4         0.5672    3.6061   10.1622 H         1 RES1    0.0000
     29 H5         0.1995    5.2404   10.6999 H         1 RES1    0.0000
     30 H6        -0.0108    3.8759   11.8021 H         1 RES1    0.0000
     31 H7         5.5660    5.4053    9.5438 H         1 RES1    0.0000
     32 H8         5.9086    3.6735    9.7320 H         1 RES1    0.0000
     33 H9         4.3713    2.4440    2.4061 H         1 RES1    0.0000
     34 H10        6.7828    2.7589    2.5809 H         1 RES1    0.0000
     35 H11        7.7601    3.7560    4.5972 H         1 RES1    0.0000
     36 H12        2.0572    2.4965    5.0542 H         1 RES1    0.0000
     37 H13        2.3408    2.3316    3.3202 H         1 RES1    0.0000
     38 H14        1.9058    3.8984    3.9923 H         1 RES1    0.0000
     39 H15        7.5059    4.9330    6.6135 H         1 RES1    0.0000
     40 H16        6.4596    3.9134    7.6082 H         1 RES1    0.0000
     41 H17        5.9236    5.5103    7.1243 H         1 RES1    0.0000
     42 H18        3.8373    4.2358    8.5760 H         1 RES1    0.0000
@<TRIPOS>BOND
     1    1    2 1
     2    2    8 2
     3    3    6 2
     4    4    5 2
     5    5   17 1
     6    7    3 2
     7    8    3 1
     8    9    1 1
     9   10    9 ar
    10   11   10 ar
    11   12   11 ar
    12   13   12 ar
    13   14    9 ar
    14   15   10 1
    15   16   14 1
    16   17   18 ar
    17   18   19 ar
    18   19   20 ar
    19   20   21 ar
    20   21   22 ar
    21   22   17 ar
    22   23   18 1
    23   24   22 1
    24   25   11 1
    25   26   12 1
    26   27   13 1
    27   28   15 1
    28   29   15 1
    29   30   15 1
    30   31   16 1
    31   32   16 1
    32   33   19 1
    33   34   20 1
    34   35   21 1
    35   36   23 1
    36   37   23 1
    37   38   23 1
    38   39   24 1
    39   40   24 1
    40   41   24 1
    41   42    1 1
    42    4    8 1
    43   13   14 ar
@<TRIPOS>SUBSTRUCTURE
     1 RES1 1

@<TRIPOS>CRYSIN
  16.4190    7.4970   13.4430  90.0000  90.6900  90.0000 231 1

