# MOL2 file generated by ConQuest
# Please check atom types

@<TRIPOS>MOLECULE
BANMOS
    24    25     1
SMALL
NO_CHARGES
****
Generated from CSD

@<TRIPOS>ATOM
      1 N1         3.0447    4.5747    9.2212 N.2       1 RES1    0.0000
      2 N2         1.9323    5.0462    8.7467 N.2       1 RES1    0.0000
      3 N3         0.4639    5.5800    7.0154 N.pl3     1 RES1    0.0000
      4 N4         2.5274    4.6999    6.3661 N.2       1 RES1    0.0000
      5 N5         3.7198    4.2381    6.6081 N.pl3     1 RES1    0.0000
      6 O1         0.0339    5.2442    5.9091 O.2       1 RES1    0.0000
      7 O2        -0.1301    6.3057    7.8058 O.2       1 RES1    0.0000
      8 C1         1.7973    5.0612    7.4079 C.2       1 RES1    0.0000
      9 C2         3.1491    4.5297   10.6380 C.ar      1 RES1    0.0000
     10 C3         2.0257    4.4472   11.4876 C.ar      1 RES1    0.0000
     11 C4         2.2604    4.4442   12.8560 C.ar      1 RES1    0.0000
     12 C5         3.5333    4.4862   13.3654 C.ar      1 RES1    0.0000
     13 C6         4.6320    4.5259   12.5293 C.ar      1 RES1    0.0000
     14 C7         4.4581    4.5297   11.1515 C.ar      1 RES1    0.0000
     15 C8         0.5981    4.2778   11.0023 C.3       1 RES1    0.0000
     16 C9         5.6560    4.5994   10.2576 C.3       1 RES1    0.0000
     17 C10        4.5002    3.8377    5.4709 C.ar      1 RES1    0.0000
     18 C11        3.9081    3.2747    4.3337 C.ar      1 RES1    0.0000
     19 C12        4.7858    2.8863    3.3040 C.ar      1 RES1    0.0000
     20 C13        6.1459    3.0655    3.3860 C.ar      1 RES1    0.0000
     21 C14        6.6905    3.6226    4.5232 C.ar      1 RES1    0.0000
     22 C15        5.8748    4.0281    5.5852 C.ar      1 RES1    0.0000
     23 C16        2.4503    2.9846    4.1751 C.3       1 RES1    0.0000
     24 C17        6.4823    4.6421    6.8111 C.3       1 RES1    0.0000
@<TRIPOS>BOND
     1    1    2 2
     2    2    8 1
     3    3    6 2
     4    4    5 1
     5    5   17 1
     6    7    3 2
     7    8    3 1
     8    9    1 1
     9   10    9 ar
    10   11   10 ar
    11   12   11 ar
    12   13   12 ar
    13   14    9 ar
    14   15   10 1
    15   16   14 1
    16   17   18 ar
    17   18   19 ar
    18   19   20 ar
    19   20   21 ar
    20   21   22 ar
    21   22   17 ar
    22   23   18 1
    23   24   22 1
    24    4    8 2
    25   13   14 ar
@<TRIPOS>SUBSTRUCTURE
     1 RES1 1

@<TRIPOS>CRYSIN
  16.4190    7.4970   13.4430  90.0000  90.6900  90.0000 231 1

