# MOL2 file generated by ConQuest
# Please check atom types

@<TRIPOS>MOLECULE
BANTOA
    31    32     1
SMALL
NO_CHARGES
****
Generated from CSD

@<TRIPOS>ATOM
      1 N1         0.5121    0.7814    4.1071 N.am      1 RES1    0.0000
      2 O1         0.6104    2.8748    4.9219 O.2       1 RES1    0.0000
      3 O2        -0.0238   -1.3361    3.5667 O.2       1 RES1    0.0000
      4 O3         1.0427    1.1113    2.8450 O.3       1 RES1    0.0000
      5 O4         3.0689    0.9280    3.7610 O.2       1 RES1    0.0000
      6 O5         1.0527    3.0378    0.9984 O.3       1 RES1    0.0000
      7 O6         2.1635    4.3672    2.3707 O.2       1 RES1    0.0000
      8 C1         0.2781    1.7480    5.0454 C.2       1 RES1    0.0000
      9 C2        -0.4436    1.0679    6.1639 C.3       1 RES1    0.0000
     10 H1        -1.2959    1.5001    6.3327 H         1 RES1    0.0000
     11 H2         0.0845    1.0930    6.9780 H         1 RES1    0.0000
     12 C3        -0.6479   -0.3425    5.7112 C.3       1 RES1    0.0000
     13 H3        -1.5940   -0.5547    5.6784 H         1 RES1    0.0000
     14 H4        -0.2123   -0.9599    6.3193 H         1 RES1    0.0000
     15 C4        -0.0311   -0.4380    4.3199 C.2       1 RES1    0.0000
     16 C5         2.4140    1.1779    2.8238 C.2       1 RES1    0.0000
     17 C6         2.8916    1.5541    1.4709 C.ar      1 RES1    0.0000
     18 C7         4.0742    0.9898    1.0348 C.ar      1 RES1    0.0000
     19 H5         4.5429    0.4177    1.5988 H         1 RES1    0.0000
     20 C8         4.5740    1.2618   -0.2262 C.ar      1 RES1    0.0000
     21 H6         5.3693    0.8692   -0.5069 H         1 RES1    0.0000
     22 C9         3.9071    2.0953   -1.0450 C.ar      1 RES1    0.0000
     23 H7         4.2339    2.2690   -1.8980 H         1 RES1    0.0000
     24 C10        2.7419    2.6896   -0.6212 C.ar      1 RES1    0.0000
     25 H8         2.2897    3.2771   -1.1835 H         1 RES1    0.0000
     26 C11        2.2428    2.4185    0.6326 C.ar      1 RES1    0.0000
     27 C12        1.1381    4.0296    1.9014 C.2       1 RES1    0.0000
     28 C13       -0.2107    4.5833    2.1950 C.3       1 RES1    0.0000
     29 H9        -0.7726    3.8877    2.5433 H         1 RES1    0.0000
     30 H10       -0.5967    4.9315    1.3889 H         1 RES1    0.0000
     31 H11       -0.1332    5.2875    2.8426 H         1 RES1    0.0000
@<TRIPOS>BOND
     1    1    4 1
     2    2    8 2
     3    3   15 2
     4    4   16 1
     5    5   16 2
     6    6   26 1
     7    7   27 2
     8    8    1 1
     9    9    8 1
    10   10    9 1
    11   11    9 1
    12   12    9 1
    13   13   12 1
    14   14   12 1
    15   15    1 1
    16   16   17 1
    17   17   18 ar
    18   18   19 1
    19   20   18 ar
    20   21   20 1
    21   22   20 ar
    22   23   22 1
    23   24   22 ar
    24   25   24 1
    25   26   17 ar
    26   27    6 1
    27   28   27 1
    28   29   28 1
    29   30   28 1
    30   31   28 1
    31   12   15 1
    32   24   26 ar
@<TRIPOS>SUBSTRUCTURE
     1 RES1 1

@<TRIPOS>CRYSIN
   5.9300    9.6470   22.3310  90.0000  90.6400  90.0000 231 1

