# MOL2 file generated by ConQuest
# Please check atom types

@<TRIPOS>MOLECULE
BANTIU
    35    36     1
SMALL
NO_CHARGES
****
Generated from CSD

@<TRIPOS>ATOM
      1 C1         0.6396    0.8241    9.1794 C.3       1 RES1    0.0000
      2 H1         0.8574    1.7549    9.3276 H         1 RES1    0.0000
      3 C2        -0.4496    0.6870    8.1412 C.3       1 RES1    0.0000
      4 H2        -1.2518    1.2527    8.4204 H         1 RES1    0.0000
      5 H3        -0.7118   -0.2560    8.1263 H         1 RES1    0.0000
      6 C3         0.0766    1.0865    6.7743 C.3       1 RES1    0.0000
      7 H4        -0.6141    0.9246    6.1071 H         1 RES1    0.0000
      8 H5         0.2817    2.0408    6.7765 H         1 RES1    0.0000
      9 C4         2.3176    0.5122    7.3810 C.3       1 RES1    0.0000
     10 H6         2.5882    1.5105    7.4074 H         1 RES1    0.0000
     11 H7         3.1141   -0.0227    7.0857 H         1 RES1    0.0000
     12 C5         1.8720    0.0547    8.7662 C.3       1 RES1    0.0000
     13 H8         1.6573   -0.9234    8.7558 H         1 RES1    0.0000
     14 H9         2.6176    0.1463    9.4018 H         1 RES1    0.0000
     15 C6         1.6919    0.6723    5.0641 C.3       1 RES1    0.0000
     16 H10        0.9880    0.4535    4.4040 H         1 RES1    0.0000
     17 H11        2.4980    0.1576    4.8081 H         1 RES1    0.0000
     18 H12        1.9106    1.6592    4.9566 H         1 RES1    0.0000
     19 C7         0.6200    0.6641   11.5761 C.2       1 RES1    0.0000
     20 C8        -0.1271    0.1000   12.7428 C.ar      1 RES1    0.0000
     21 C9        -1.3546   -0.5448   12.5750 C.ar      1 RES1    0.0000
     22 H13       -1.7196   -0.6590   11.6753 H         1 RES1    0.0000
     23 C10       -2.0467   -1.0095   13.6720 C.ar      1 RES1    0.0000
     24 H14       -2.8721   -1.4344   13.5928 H         1 RES1    0.0000
     25 C11       -1.5018   -0.8309   14.9280 C.ar      1 RES1    0.0000
     26 C12       -0.2863   -0.2004   15.1266 C.ar      1 RES1    0.0000
     27 H15        0.0472   -0.0820   16.0244 H         1 RES1    0.0000
     28 C13        0.3979    0.2612   14.0211 C.ar      1 RES1    0.0000
     29 H16        1.1845    0.6944   14.1467 H         1 RES1    0.0000
     30 N1         1.2532    0.3061    6.4011 N.3       1 RES1    0.0000
     31 N2        -2.2515   -1.3254   16.0991 N.pl3     1 RES1    0.0000
     32 O1         0.0760    0.2858   10.4176 O.3       1 RES1    0.0000
     33 O2         1.5802    1.3938   11.6750 O.2       1 RES1    0.0000
     34 O3        -3.2155   -2.0546   15.9006 O.2       1 RES1    0.0000
     35 O4        -1.8731   -0.9952   17.2146 O.2       1 RES1    0.0000
@<TRIPOS>BOND
     1    1    2 1
     2    3    1 1
     3    4    3 1
     4    5    3 1
     5    6    3 1
     6    7    6 1
     7    8    6 1
     8    9   10 1
     9   11    9 1
    10   12    1 1
    11   13   12 1
    12   14   12 1
    13   15   16 1
    14   17   15 1
    15   18   15 1
    16   19   20 1
    17   20   21 ar
    18   21   22 1
    19   23   21 ar
    20   24   23 1
    21   25   23 ar
    22   26   25 ar
    23   27   26 1
    24   28   20 ar
    25   29   28 1
    26   30    6 1
    27   31   25 1
    28   32    1 1
    29   33   19 2
    30   34   31 2
    31   35   31 2
    32    9   30 1
    33    9   12 1
    34   15   30 1
    35   19   32 1
    36   26   28 ar
@<TRIPOS>SUBSTRUCTURE
     1 RES1 1

@<TRIPOS>CRYSIN
   6.3348    7.6970   13.9423  99.0300  92.1420  97.5280   2 1

