# MOL2 file generated by ConQuest
# Please check atom types

@<TRIPOS>MOLECULE
BANWUJ
    48    49     1
SMALL
USER_CHARGES
****
Generated from CSD

@<TRIPOS>ATOM
      1 O1         5.6880   10.5302   17.3951 O.2       1 RES1    0.0000
      2 O2         3.0692   13.4984   19.7596 O.2       1 RES1   -1.0000
      3 O3         4.4052    5.3132   20.2100 O.2       1 RES1    0.0000
      4 O4         3.7059    4.8973   22.2722 O.3       1 RES1    0.0000
      5 O5         5.4593    7.7286   21.1158 O.3       1 RES1    0.0000
      6 O6         1.5394   11.4250   19.8785 O.3       1 RES1    0.0000
      7 H1         1.9828   12.1593   19.7758 H         1 RES1    0.0000
      8 N1         5.1743   11.6151   17.8134 N.3       1 RES1    0.0000
      9 N2         3.9181   13.0208   18.9007 N.pl3     1 RES1    1.0000
     10 C1         4.2747   11.7360   18.8118 C.2       1 RES1    0.0000
     11 C2         5.3580   12.9023   17.0565 C.3       1 RES1    0.0000
     12 C3         4.7891   13.9242   18.0774 C.3       1 RES1    0.0000
     13 C4         3.8218   10.6302   19.6680 C.ar      1 RES1    0.0000
     14 C5         4.7657    9.6626   20.0129 C.ar      1 RES1    0.0000
     15 H2         5.6430    9.7354   19.6848 H         1 RES1    0.0000
     16 C6         4.4306    8.6048   20.8284 C.ar      1 RES1    0.0000
     17 C7         3.1275    8.4765   21.2809 C.ar      1 RES1    0.0000
     18 H3         2.8823    7.7397   21.8106 H         1 RES1    0.0000
     19 C8         2.1899    9.4367   20.9512 C.ar      1 RES1    0.0000
     20 H4         1.3113    9.3491   21.2741 H         1 RES1    0.0000
     21 C9         2.5136   10.5290   20.1532 C.ar      1 RES1    0.0000
     22 C10        5.2173    6.6721   22.0289 C.3       1 RES1    0.0000
     23 H5         4.7346    7.0177   22.8224 H         1 RES1    0.0000
     24 C11        4.4071    5.5761   21.3741 C.2       1 RES1    0.0000
     25 C12        6.5673    6.1587   22.4404 C.3       1 RES1    0.0000
     26 H6         6.4583    5.4490   23.0930 H         1 RES1    0.0000
     27 H7         7.0829    6.8807   22.8315 H         1 RES1    0.0000
     28 H8         7.0329    5.8131   21.6629 H         1 RES1    0.0000
     29 C13        2.9647    3.7655   21.7652 C.3       1 RES1    0.0000
     30 H9         2.4250    3.3866   22.4768 H         1 RES1    0.0000
     31 H10        3.5836    3.0941   21.4355 H         1 RES1    0.0000
     32 H11        2.3876    4.0543   21.0399 H         1 RES1    0.0000
     33 C14        4.5408   12.7555   15.7788 C.3       1 RES1    0.0000
     34 H12        4.6510   13.5478   15.2308 H         1 RES1    0.0000
     35 H13        3.6039   12.6456   16.0039 H         1 RES1    0.0000
     36 H14        4.8474   11.9779   15.2854 H         1 RES1    0.0000
     37 C15        6.8327   13.0961   16.7132 C.3       1 RES1    0.0000
     38 H15        6.9581   13.9650   16.3040 H         1 RES1    0.0000
     39 H16        7.1140   12.4025   16.0948 H         1 RES1    0.0000
     40 H17        7.3629   13.0406   17.5249 H         1 RES1    0.0000
     41 C16        3.9618   15.0585   17.4840 C.3       1 RES1    0.0000
     42 H18        4.5313   15.6200   16.9338 H         1 RES1    0.0000
     43 H19        3.5773   15.5879   18.2002 H         1 RES1    0.0000
     44 H20        3.2510   14.6870   16.9383 H         1 RES1    0.0000
     45 C17        5.8160   14.4846   19.0482 C.3       1 RES1    0.0000
     46 H21        6.3158   13.7539   19.4461 H         1 RES1    0.0000
     47 H22        5.3637   14.9844   19.7462 H         1 RES1    0.0000
     48 H23        6.4248   15.0708   18.5730 H         1 RES1    0.0000
@<TRIPOS>BOND
     1    1    8 1
     2    2    9 1
     3    3   24 2
     4    4   24 1
     5    5   16 1
     6    6    7 1
     7    8   10 1
     8    9   10 2
     9   10   13 1
    10   11    8 1
    11   12    9 1
    12   13   14 ar
    13   14   15 1
    14   16   14 ar
    15   17   16 ar
    16   18   17 1
    17   19   17 ar
    18   20   19 1
    19   21    6 1
    20   22    5 1
    21   23   22 1
    22   24   22 1
    23   25   22 1
    24   26   25 1
    25   27   25 1
    26   28   25 1
    27   29    4 1
    28   30   29 1
    29   31   29 1
    30   32   29 1
    31   33   11 1
    32   34   33 1
    33   35   33 1
    34   36   33 1
    35   37   11 1
    36   38   37 1
    37   39   37 1
    38   40   37 1
    39   41   12 1
    40   42   41 1
    41   43   41 1
    42   44   41 1
    43   45   12 1
    44   46   45 1
    45   47   45 1
    46   48   45 1
    47   11   12 1
    48   13   21 ar
    49   19   21 ar
@<TRIPOS>SUBSTRUCTURE
     1 RES1 1

@<TRIPOS>CRYSIN
   6.3348   12.3420   22.7360  90.0000  90.0000  90.0000  19 1

