# MOL2 file generated by ConQuest
# Please check atom types

@<TRIPOS>MOLECULE
BANYOF
   107   109     2
SMALL
NO_CHARGES
****
Generated from CSD

@<TRIPOS>ATOM
      1 C1        -2.1908    2.5065    7.7333 C.2       1 RES1    0.0000
      2 H1        -1.7969    2.1922    8.5151 H         1 RES1    0.0000
      3 C2        -3.0859    1.7076    7.0406 C.2       1 RES1    0.0000
      4 C3        -3.7417    2.1623    5.8837 C.2       1 RES1    0.0000
      5 C4        -1.8839    3.7650    7.2667 C.2       1 RES1    0.0000
      6 H2        -1.2841    4.3033    7.7318 H         1 RES1    0.0000
      7 C5        -3.3970    3.4307    5.4375 C.2       1 RES1    0.0000
      8 H3        -3.7987    3.7602    4.6660 H         1 RES1    0.0000
      9 C6        -4.7098    1.3055    5.1035 C.3       1 RES1    0.0000
     10 H4        -5.4324    1.8664    4.7820 H         1 RES1    0.0000
     11 H5        -5.0942    0.6454    5.7027 H         1 RES1    0.0000
     12 C7        -4.0831    0.5800    3.9102 C.3       1 RES1    0.0000
     13 C8        -2.4713    4.2239    6.1035 C.2       1 RES1    0.0000
     14 H6        -2.2469    5.0611    5.7668 H         1 RES1    0.0000
     15 C9        -5.0729   -0.3752    3.2756 C.3       1 RES1    0.0000
     16 H7        -5.8383    0.1149    2.9681 H         1 RES1    0.0000
     17 H8        -5.3490   -1.0274    3.9239 H         1 RES1    0.0000
     18 H9        -4.6581   -0.8190    2.5330 H         1 RES1    0.0000
     19 C10       -2.7804   -0.1331    4.2549 C.3       1 RES1    0.0000
     20 H10       -2.9450   -0.7878    4.9377 H         1 RES1    0.0000
     21 H11       -2.1397    0.5069    4.5728 H         1 RES1    0.0000
     22 H12       -2.4360   -0.5680    3.4705 H         1 RES1    0.0000
     23 N1        -3.7771    1.6452    2.8336 N.2       1 RES1    0.0000
     24 O1        -2.6374    1.7376    2.3985 O.2       1 RES1    0.0000
     25 O2        -4.6997    2.3535    2.4660 O.2       1 RES1    0.0000
     26 N2        -3.4333    0.4025    7.5568 N.2       1 RES1    0.0000
     27 O3        -4.6539    0.2145    7.8277 O.2       1 RES1    0.0000
     28 C11        3.1212   12.8527    0.3976 C.ar      2 RES2    0.0000
     29 C12        1.5449   14.0374   -0.9897 C.ar      2 RES2    0.0000
     30 H13        0.7354   14.0659   -1.4459 H         2 RES2    0.0000
     31 C13        1.8918   12.9053   -0.2754 C.ar      2 RES2    0.0000
     32 H14        1.3106   12.1796   -0.2412 H         2 RES2    0.0000
     33 C14        3.6128   15.0740   -0.3654 C.ar      2 RES2    0.0000
     34 H15        4.1843   15.8075   -0.4031 H         2 RES2    0.0000
     35 C15        2.3954   15.1264   -1.0303 C.ar      2 RES2    0.0000
     36 H16        2.1529   15.8911   -1.5009 H         2 RES2    0.0000
     37 C16        3.9966   13.9459    0.3568 C.ar      2 RES2    0.0000
     38 C17        5.3414   13.9397    1.0595 C.3       2 RES2    0.0000
     39 H17        5.9803   14.4367    0.5237 H         2 RES2    0.0000
     40 H18        5.6580   13.0260    1.1268 H         2 RES2    0.0000
     41 C18        5.2839   14.5603    2.4815 C.3       2 RES2    0.0000
     42 C19        4.9201   16.0318    2.4696 C.3       2 RES2    0.0000
     43 H19        4.0575   16.1446    2.0643 H         2 RES2    0.0000
     44 H20        5.5769   16.5191    1.9665 H         2 RES2    0.0000
     45 H21        4.8969   16.3630    3.3697 H         2 RES2    0.0000
     46 C20        4.4195   13.7605    3.4352 C.3       2 RES2    0.0000
     47 H22        4.7734   12.8725    3.5208 H         2 RES2    0.0000
     48 H23        3.5230   13.7151    3.0933 H         2 RES2    0.0000
     49 H24        4.4132   14.1870    4.2949 H         2 RES2    0.0000
     50 N3         6.7312   14.4291    3.0026 N.pl3     2 RES2    0.0000
     51 O4         7.4087   15.4134    3.1494 O.2       2 RES2    0.0000
     52 O5         7.1459   13.3160    3.2659 O.2       2 RES2    0.0000
     53 C21        3.3276    9.8538    2.4702 C.ar      2 RES2    0.0000
     54 C22        3.4242   10.0033    3.8509 C.ar      2 RES2    0.0000
     55 H25        3.1692   10.8001    4.2583 H         2 RES2    0.0000
     56 C23        3.9026    8.9547    4.6041 C.ar      2 RES2    0.0000
     57 H26        3.9792    9.0411    5.5271 H         2 RES2    0.0000
     58 C24        4.2684    7.7742    3.9879 C.ar      2 RES2    0.0000
     59 H27        4.5950    7.0673    4.4965 H         2 RES2    0.0000
     60 C25        4.1497    7.6396    2.6144 C.ar      2 RES2    0.0000
     61 H28        4.4016    6.8376    2.2154 H         2 RES2    0.0000
     62 C26        3.6616    8.6761    1.8076 C.ar      2 RES2    0.0000
     63 C27        3.5270    8.4419    0.3148 C.3       2 RES2    0.0000
     64 H29        4.2603    7.8750    0.0290 H         2 RES2    0.0000
     65 H30        3.6269    9.2945   -0.1374 H         2 RES2    0.0000
     66 C28        2.2060    7.7965   -0.1542 C.3       2 RES2    0.0000
     67 C29        1.0011    8.6508    0.1507 C.3       2 RES2    0.0000
     68 H31        1.0922    9.5005   -0.2870 H         2 RES2    0.0000
     69 H32        0.9358    8.7851    1.0993 H         2 RES2    0.0000
     70 H33        0.2079    8.2109   -0.1649 H         2 RES2    0.0000
     71 C30        2.2789    7.4358   -1.6366 C.3       2 RES2    0.0000
     72 H34        2.9983    6.8164   -1.7803 H         2 RES2    0.0000
     73 H35        2.4334    8.2308   -2.1528 H         2 RES2    0.0000
     74 H36        1.4509    7.0336   -1.9085 H         2 RES2    0.0000
     75 N4         3.6124   11.6637    1.0392 N.2       2 RES2    0.0000
     76 O6         2.9352    5.6179    0.3977 O.2       2 RES2    0.0000
     77 O7         1.1263    6.2907    1.3552 O.2       2 RES2    0.0000
     78 N5         2.7906   11.0359    1.7749 N.pl3     2 RES2    0.0000
     79 N6         2.0712    6.4613    0.5947 N.pl3     2 RES2    0.0000
     80 O8         1.6071   11.3600    2.0643 O.2       2 RES2    0.0000
     81 N2B       -2.4456   -0.4025    7.7113 N.2       1 RES1    0.0000
     82 C2B       -2.7930   -1.7076    8.2276 C.2       1 RES1    0.0000
     83 C1B       -3.6881   -2.5065    7.5348 C.2       1 RES1    0.0000
     84 H1B       -4.0821   -2.1922    6.7531 H         1 RES1    0.0000
     85 C4B       -3.9950   -3.7650    8.0014 C.2       1 RES1    0.0000
     86 H2B       -4.5949   -4.3033    7.5364 H         1 RES1    0.0000
     87 C8B       -3.4077   -4.2239    9.1647 C.2       1 RES1    0.0000
     88 C5B       -2.4819   -3.4307    9.8307 C.2       1 RES1    0.0000
     89 C3B       -2.1372   -2.1623    9.3844 C.2       1 RES1    0.0000
     90 C6B       -1.1691   -1.3055   10.1646 C.3       1 RES1    0.0000
     91 H4B       -0.4465   -1.8664   10.4862 H         1 RES1    0.0000
     92 H5B       -0.7848   -0.6454    9.5655 H         1 RES1    0.0000
     93 C7B       -1.7959   -0.5800   11.3580 C.3       1 RES1    0.0000
     94 C9B       -0.8060    0.3752   11.9925 C.3       1 RES1    0.0000
     95 H7B       -0.0406   -0.1149   12.3000 H         1 RES1    0.0000
     96 H8B       -0.5300    1.0274   11.3443 H         1 RES1    0.0000
     97 H9B       -1.2209    0.8190   12.7352 H         1 RES1    0.0000
     98 C10B      -3.0985    0.1331   11.0132 C.3       1 RES1    0.0000
     99 H10B      -2.9339    0.7878   10.3304 H         1 RES1    0.0000
    100 H11B      -3.7392   -0.5069   10.6954 H         1 RES1    0.0000
    101 H12B      -3.4430    0.5680   11.7977 H         1 RES1    0.0000
    102 N1B       -2.1018   -1.6452   12.4346 N.2       1 RES1    0.0000
    103 O1B       -3.2416   -1.7376   12.8697 O.2       1 RES1    0.0000
    104 O2B       -1.1793   -2.3535   12.8022 O.2       1 RES1    0.0000
    105 H3B       -2.0802   -3.7602   10.6022 H         1 RES1    0.0000
    106 H6B       -3.6321   -5.0611    9.5014 H         1 RES1    0.0000
    107 O3B       -1.2250   -0.2145    7.4405 O.2       1 RES1    0.0000
@<TRIPOS>BOND
     1    1    2 1
     2    3    1 1
     3    4    3 1
     4    5    1 1
     5    6    5 1
     6    7    4 1
     7    8    7 1
     8    9    4 1
     9   10    9 1
    10   11    9 1
    11   12    9 1
    12   13    5 1
    13   14   13 1
    14   15   12 1
    15   16   15 1
    16   17   15 1
    17   18   15 1
    18   19   12 1
    19   20   19 1
    20   21   19 1
    21   22   19 1
    22   23   12 1
    23   24   23 1
    24   25   23 1
    25   26    3 1
    26   27   26 1
    27   28   31 ar
    28   29   30 1
    29   31   29 ar
    30   32   31 1
    31   33   34 1
    32   35   29 ar
    33   36   35 1
    34   37   28 ar
    35   38   37 1
    36   39   38 1
    37   40   38 1
    38   41   38 1
    39   42   41 1
    40   43   42 1
    41   44   42 1
    42   45   42 1
    43   46   41 1
    44   47   46 1
    45   48   46 1
    46   49   46 1
    47   50   41 1
    48   51   50 2
    49   52   50 2
    50   53   54 ar
    51   54   55 1
    52   56   54 ar
    53   57   56 1
    54   58   56 ar
    55   59   58 1
    56   60   58 ar
    57   61   60 1
    58   62   53 ar
    59   63   62 1
    60   64   63 1
    61   65   63 1
    62   66   63 1
    63   67   66 1
    64   68   67 1
    65   69   67 1
    66   70   67 1
    67   71   66 1
    68   72   71 1
    69   73   71 1
    70   74   71 1
    71   75   28 1
    72   76   79 2
    73   77   79 2
    74   78   53 1
    75   79   66 1
    76   80   78 2
    77   81   26 1
    78   82   81 1
    79   83   82 1
    80   84   83 1
    81   85   83 1
    82   86   85 1
    83   87   85 1
    84   88   87 1
    85   89   82 1
    86   90   89 1
    87   91   90 1
    88   92   90 1
    89   93   90 1
    90   94   93 1
    91   95   94 1
    92   96   94 1
    93   97   94 1
    94   98   93 1
    95   99   98 1
    96  100   98 1
    97  101   98 1
    98  102   93 1
    99  103  102 1
   100  104  102 1
   101  105   88 1
   102  106   87 1
   103  107   81 1
   104    7   13 1
   105   33   35 ar
   106   33   37 ar
   107   60   62 ar
   108   75   78 2
   109   88   89 1
@<TRIPOS>SUBSTRUCTURE
     1 RES1 1
     2 RES2 28

@<TRIPOS>CRYSIN
  15.5325   12.4842   16.3609  90.0000 111.0590  90.0000 231 1

