# MOL2 file generated by ConQuest
# Please check atom types

@<TRIPOS>MOLECULE
BANYIA
    34    33     2
SMALL
NO_CHARGES
****
Generated from CSD

@<TRIPOS>ATOM
      1 C1         1.9122    3.6809   -1.0207 C.3       1 RES1    0.0000
      2 H1         2.3273    4.5657   -1.0997 H         1 RES1    0.0000
      3 C2         3.0270    2.6123   -1.0533 C.3       1 RES1    0.0000
      4 H2         3.4466    2.5418   -1.9354 H         1 RES1    0.0000
      5 C3         2.5091    1.2758   -0.5568 C.2       1 RES1    0.0000
      6 H3         2.5775    0.4988   -1.0620 H         1 RES1    0.0000
      7 C4         1.9495    1.2897    0.6520 C.2       1 RES1    0.0000
      8 C5         1.8997    2.6738    1.2886 C.3       1 RES1    0.0000
      9 H4         1.4561    2.6416    2.1617 H         1 RES1    0.0000
     10 C6         1.1433    3.6197    0.3157 C.3       1 RES1    0.0000
     11 H5         0.2446    3.2879    0.1644 H         1 RES1    0.0000
     12 H6         1.0798    4.5073    0.7015 H         1 RES1    0.0000
     13 C7         4.0133    3.0707    0.0189 C.2       1 RES1    0.0000
     14 C8         3.3569    3.1668    1.4271 C.3       1 RES1    0.0000
     15 C9         1.3715    0.1048    1.3780 C.3       1 RES1    0.0000
     16 H7         1.4432   -0.6760    0.8237 H         1 RES1    0.0000
     17 H8         0.4472    0.2717    1.5779 H         1 RES1    0.0000
     18 H9         1.8550   -0.0371    2.1949 H         1 RES1    0.0000
     19 C10        5.3389    2.6119    2.7081 C.3       1 RES1    0.0000
     20 H10        5.9141    2.0685    2.1647 H         1 RES1    0.0000
     21 H11        5.4980    2.4166    3.6340 H         1 RES1    0.0000
     22 H12        5.5214    3.5384    2.5404 H         1 RES1    0.0000
     23 C11        2.8913    4.9382    3.0000 C.3       1 RES1    0.0000
     24 H13        1.9380    4.9870    2.9009 H         1 RES1    0.0000
     25 H14        3.2312    5.8011    3.2509 H         1 RES1    0.0000
     26 H15        3.1112    4.2972    3.6793 H         1 RES1    0.0000
     27 N1         0.9677    3.4854   -2.1904 N.pl3     1 RES1    0.0000
     28 O1         3.4818    4.5362    1.7531 O.3       1 RES1    0.0000
     29 O2         3.9646    2.3268    2.3865 O.3       1 RES1    0.0000
     30 O3         5.1737    3.3211   -0.2076 O.2       1 RES1    0.0000
     31 O4         0.2478    4.4256   -2.4287 O.2       1 RES1    0.0000
     32 O5         0.9686    2.4665   -2.8345 O.2       1 RES1    0.0000
     33 O6         0.7444    4.3641   -2.9069 Du        2 SUP2    0.0000
     34 O7         0.5631    2.4304   -2.4559 Du        2 SUP2    0.0000
@<TRIPOS>BOND
     1    1    2 1
     2    3    1 1
     3    4    3 1
     4    5    3 1
     5    6    5 1
     6    7    5 2
     7    8    7 1
     8    9    8 1
     9   10    1 1
    10   11   10 1
    11   12   10 1
    12   13    3 1
    13   14    8 1
    14   15    7 1
    15   16   15 1
    16   17   15 1
    17   18   15 1
    18   19   20 1
    19   21   19 1
    20   22   19 1
    21   23   24 1
    22   25   23 1
    23   26   23 1
    24   27    1 1
    25   28   14 1
    26   29   14 1
    27   30   13 2
    28   31   27 2
    29   32   27 2
    30    8   10 1
    31   13   14 1
    32   19   29 1
    33   23   28 1
@<TRIPOS>SUBSTRUCTURE
     1 RES1 1
     2 SUP2 33

@<TRIPOS>CRYSIN
   7.4650   10.6130   15.0960  90.0000  92.1640  90.0000  14 1

