# MOL2 file generated by ConQuest
# Please check atom types

@<TRIPOS>MOLECULE
BANYOG
    36    37     1
SMALL
NO_CHARGES
****
Generated from CSD

@<TRIPOS>ATOM
      1 C1         6.7159    4.7022    6.9121 C.3       1 RES1    0.0000
      2 H1         7.2442    4.0209    6.4667 H         1 RES1    0.0000
      3 H2         5.7802    4.4554    6.8392 H         1 RES1    0.0000
      4 C2         7.1163    4.7817    8.3938 C.3       1 RES1    0.0000
      5 C3         7.2177    3.3972    9.0444 C.3       1 RES1    0.0000
      6 H3         8.1497    3.1704    9.1906 H         1 RES1    0.0000
      7 H4         6.8299    2.7284    8.4583 H         1 RES1    0.0000
      8 C4         6.4663    3.4102   10.3906 C.3       1 RES1    0.0000
      9 H5         6.5371    2.5427   10.8420 H         1 RES1    0.0000
     10 C5         5.0211    3.7514   10.0922 C.2       1 RES1    0.0000
     11 C6         4.8770    4.8981    9.4319 C.2       1 RES1    0.0000
     12 H6         4.0469    5.2006    9.1414 H         1 RES1    0.0000
     13 C7         6.1568    5.6814    9.1823 C.3       1 RES1    0.0000
     14 H7         5.9885    6.5339    8.7282 H         1 RES1    0.0000
     15 C8         6.6118    5.8736   10.6176 C.2       1 RES1    0.0000
     16 C9         3.9367    2.8141   10.4968 C.3       1 RES1    0.0000
     17 H8         3.0886    3.1679   10.2208 H         1 RES1    0.0000
     18 H9         3.9450    2.7074   11.4506 H         1 RES1    0.0000
     19 H10        4.0786    1.9609   10.0788 H         1 RES1    0.0000
     20 C10        7.0151    4.5386   11.2765 C.3       1 RES1    0.0000
     21 C11        6.6918    3.4468   13.3995 C.3       1 RES1    0.0000
     22 H11        6.0949    2.7309   13.1709 H         1 RES1    0.0000
     23 H12        6.5575    3.6940   14.3178 H         1 RES1    0.0000
     24 H13        7.5996    3.1592   13.2749 H         1 RES1    0.0000
     25 C12        9.1239    5.3975   12.0806 C.3       1 RES1    0.0000
     26 H14        9.0544    6.2479   11.6389 H         1 RES1    0.0000
     27 H15       10.0483    5.1449   12.1449 H         1 RES1    0.0000
     28 H16        8.7481    5.4631   12.9615 H         1 RES1    0.0000
     29 N1         8.5138    5.4056    8.3644 N.pl3     1 RES1    0.0000
     30 O1         8.4070    4.4052   11.3255 O.3       1 RES1    0.0000
     31 O2         6.4295    4.5729   12.5591 O.3       1 RES1    0.0000
     32 O3         6.5545    6.9153   11.2145 O.2       1 RES1    0.0000
     33 O4         9.3846    4.8091    7.7652 O.2       1 RES1    0.0000
     34 O5         8.7033    6.4718    8.9161 O.2       1 RES1    0.0000
     35 O6         6.9257    5.9430    6.2910 O.3       1 RES1    0.0000
     36 H17        6.2224    6.2058    5.9621 H         1 RES1    0.0000
@<TRIPOS>BOND
     1    1    2 1
     2    3    1 1
     3    4    1 1
     4    5    4 1
     5    6    5 1
     6    7    5 1
     7    8    5 1
     8    9    8 1
     9   10    8 1
    10   11   10 2
    11   12   11 1
    12   13    4 1
    13   14   13 1
    14   15   13 1
    15   16   10 1
    16   17   16 1
    17   18   16 1
    18   19   16 1
    19   20    8 1
    20   21   22 1
    21   23   21 1
    22   24   21 1
    23   25   26 1
    24   27   25 1
    25   28   25 1
    26   29    4 1
    27   30   20 1
    28   31   20 1
    29   32   15 2
    30   33   29 2
    31   34   29 2
    32   35    1 1
    33   36   35 1
    34   11   13 1
    35   15   20 1
    36   21   31 1
    37   25   30 1
@<TRIPOS>SUBSTRUCTURE
     1 RES1 1

@<TRIPOS>CRYSIN
   7.5460   12.3795   14.0550  90.0000  90.0000  90.0000  19 1

