# MOL2 file generated by ConQuest
# Please check atom types

@<TRIPOS>MOLECULE
BANZAT
    78    80     2
SMALL
NO_CHARGES
****
Generated from CSD

@<TRIPOS>ATOM
      1 C1        12.6489    1.3523   20.7516 C.2       1 RES1    0.0000
      2 C2        11.3431    1.2839   19.9451 C.3       1 RES1    0.0000
      3 C3        10.2711    1.9927   20.7753 C.3       1 RES1    0.0000
      4 H1         9.3868    1.8348   20.3840 H         1 RES1    0.0000
      5 C4        10.3204    1.4239   22.1840 C.3       1 RES1    0.0000
      6 H2        10.2645    0.4561   22.1467 H         1 RES1    0.0000
      7 H3         9.5626    1.7505   22.6925 H         1 RES1    0.0000
      8 C5        11.6330    1.8404   22.8824 C.3       1 RES1    0.0000
      9 H4        11.4194    2.5558   23.5168 H         1 RES1    0.0000
     10 C6        12.6012    2.4252   21.8165 C.3       1 RES1    0.0000
     11 H5        13.4911    2.5769   22.1996 H         1 RES1    0.0000
     12 C7        12.0094    3.7324   21.2695 C.3       1 RES1    0.0000
     13 C8        10.5587    3.4913   20.8184 C.3       1 RES1    0.0000
     14 H6         9.9480    3.9241   21.4366 H         1 RES1    0.0000
     15 H7        10.4220    3.8759   19.9385 H         1 RES1    0.0000
     16 C9        12.0848    4.9131   22.2528 C.3       1 RES1    0.0000
     17 H8        11.7111    5.7017   21.8293 H         1 RES1    0.0000
     18 H9        11.5444    4.7098   23.0323 H         1 RES1    0.0000
     19 C10       12.2645    0.7038   23.6647 C.3       1 RES1    0.0000
     20 H10       11.6577    0.4079   24.3466 H         1 RES1    0.0000
     21 H11       13.0796    1.0085   24.0709 H         1 RES1    0.0000
     22 H12       12.4572   -0.0256   23.0712 H         1 RES1    0.0000
     23 C11        9.8777   -0.3778   19.0100 C.3       1 RES1    0.0000
     24 H13        9.1290   -0.2484   19.5959 H         1 RES1    0.0000
     25 H14        9.8960   -1.2900   18.7104 H         1 RES1    0.0000
     26 H15        9.7970    0.2062   18.2537 H         1 RES1    0.0000
     27 C12       12.4806    1.5338   17.8329 C.3       1 RES1    0.0000
     28 H16       13.3517    1.7310   18.1841 H         1 RES1    0.0000
     29 H17       12.3726    1.9718   16.9867 H         1 RES1    0.0000
     30 H18       12.3895    0.5855   17.7190 H         1 RES1    0.0000
     31 C13       10.0798   11.0111   13.9786 C.2       2 RES2    0.0000
     32 C14       11.4202   10.7402   13.2683 C.3       2 RES2    0.0000
     33 C15       12.4761   11.5562   14.0018 C.3       2 RES2    0.0000
     34 H19       13.3713   11.3025   13.6924 H         2 RES2    0.0000
     35 C16       12.3400   11.2706   15.4896 C.3       2 RES2    0.0000
     36 H20       13.0965   11.6487   15.9647 H         2 RES2    0.0000
     37 H21       12.3374   10.3121   15.6389 H         2 RES2    0.0000
     38 C17       11.0327   11.8827   16.0251 C.3       2 RES2    0.0000
     39 H22       11.2606   12.7099   16.4993 H         2 RES2    0.0000
     40 C18       10.3113   10.9669   17.0053 C.3       2 RES2    0.0000
     41 H23       10.8816   10.7893   17.7552 H         2 RES2    0.0000
     42 H24       10.0900   10.1405   16.5690 H         2 RES2    0.0000
     43 H25        9.5066   11.3929   17.3097 H         2 RES2    0.0000
     44 C19       10.1266   12.2567   14.8185 C.3       2 RES2    0.0000
     45 H26        9.2280   12.5052   15.1209 H         2 RES2    0.0000
     46 C20       10.7846   13.4137   14.0541 C.3       2 RES2    0.0000
     47 C21       12.2421   13.0430   13.7612 C.3       2 RES2    0.0000
     48 H27       12.4520   13.2593   12.8403 H         2 RES2    0.0000
     49 H28       12.8296   13.5603   14.3329 H         2 RES2    0.0000
     50 C22       10.6655   14.7525   14.7862 C.3       2 RES2    0.0000
     51 H29       11.1616   14.7028   15.6166 H         2 RES2    0.0000
     52 H30       11.0665   15.4479   14.2410 H         2 RES2    0.0000
     53 C23       10.4363   10.5439   11.0739 C.3       2 RES2    0.0000
     54 H31        9.5548   10.8841   11.2446 H         2 RES2    0.0000
     55 H32       10.4533    9.6002   11.2418 H         2 RES2    0.0000
     56 H33       10.6720   10.7110   10.1586 H         2 RES2    0.0000
     57 C24       12.8387    8.8701   12.7472 C.3       2 RES2    0.0000
     58 H34       13.5666    9.0478   13.3471 H         2 RES2    0.0000
     59 H35       12.9937    9.3202   11.9129 H         2 RES2    0.0000
     60 H36       12.7736    7.9249   12.5924 H         2 RES2    0.0000
     61 N1        12.8377    4.1980   20.0743 N.pl3     1 RES1    0.0000
     62 N2        10.0301   13.6490   12.7411 N.pl3     2 RES2    0.0000
     63 O1        13.5521    0.5691   20.6068 O.2       1 RES1    0.0000
     64 O2        11.0929   -0.0828   19.7148 O.3       1 RES1    0.0000
     65 O3        11.4809    2.0033   18.7444 O.3       1 RES1    0.0000
     66 O4        12.4097    5.1108   19.3913 O.2       1 RES1    0.0000
     67 O5        13.9167    3.6617   19.9006 O.3       1 RES1    0.0000
     68 H37       14.0861    3.6426   19.0975 H         1 RES1    0.0000
     69 O6        13.3855    5.1929   22.6630 O.3       1 RES1    0.0000
     70 H38       13.6773    5.8266   22.2330 H         1 RES1    0.0000
     71 O7         9.1514   10.2498   13.9327 O.2       2 RES2    0.0000
     72 O8        10.5223   14.4203   11.9455 O.2       2 RES2    0.0000
     73 O9         8.9596   13.0894   12.5888 O.3       2 RES2    0.0000
     74 H39        8.4806   13.5423   12.1023 H         2 RES2    0.0000
     75 O10       11.6136    9.3470   13.3281 O.3       2 RES2    0.0000
     76 O11       11.3814   11.2026   11.9383 O.3       2 RES2    0.0000
     77 O12        9.3353   15.1048   15.0686 O.3       2 RES2    0.0000
     78 H40        8.9988   14.5372   15.5553 H         2 RES2    0.0000
@<TRIPOS>BOND
     1    1    2 1
     2    2    3 1
     3    3    4 1
     4    5    3 1
     5    6    5 1
     6    7    5 1
     7    8    5 1
     8    9    8 1
     9   10    1 1
    10   11   10 1
    11   12   10 1
    12   13    3 1
    13   14   13 1
    14   15   13 1
    15   16   12 1
    16   17   16 1
    17   18   16 1
    18   19    8 1
    19   20   19 1
    20   21   19 1
    21   22   19 1
    22   23   24 1
    23   25   23 1
    24   26   23 1
    25   27   28 1
    26   29   27 1
    27   30   27 1
    28   31   32 1
    29   32   33 1
    30   33   34 1
    31   35   33 1
    32   36   35 1
    33   37   35 1
    34   38   35 1
    35   39   38 1
    36   40   38 1
    37   41   40 1
    38   42   40 1
    39   43   40 1
    40   44   31 1
    41   45   44 1
    42   46   44 1
    43   47   33 1
    44   48   47 1
    45   49   47 1
    46   50   46 1
    47   51   50 1
    48   52   50 1
    49   53   54 1
    50   55   53 1
    51   56   53 1
    52   57   58 1
    53   59   57 1
    54   60   57 1
    55   61   12 1
    56   62   46 1
    57   63    1 2
    58   64    2 1
    59   65    2 1
    60   66   61 2
    61   67   61 1
    62   68   67 1
    63   69   16 1
    64   70   69 1
    65   71   31 2
    66   72   62 2
    67   73   62 1
    68   74   73 1
    69   75   32 1
    70   76   32 1
    71   77   50 1
    72   78   77 1
    73    8   10 1
    74   12   13 1
    75   23   64 1
    76   27   65 1
    77   38   44 1
    78   46   47 1
    79   53   76 1
    80   57   75 1
@<TRIPOS>SUBSTRUCTURE
     1 RES1 1
     2 RES2 31

@<TRIPOS>CRYSIN
  13.0210   15.0520   27.8470  90.0000  90.0000  90.0000  61 1

