# MOL2 file generated by ConQuest
# Please check atom types

@<TRIPOS>MOLECULE
BAPNAH
    44    46     1
SMALL
USER_CHARGES
****
Generated from CSD

@<TRIPOS>ATOM
      1 N1        10.2943   -2.2350   -3.9661 N.pl3     1 RES1    1.0000
      2 C1         9.8242   -3.3199   -4.7346 C.ar      1 RES1    0.0000
      3 C2         9.8896   -3.4898   -6.0837 C.ar      1 RES1    0.0000
      4 C3         9.3710   -4.6676   -6.5739 C.ar      1 RES1    0.0000
      5 C4         8.8036   -5.6096   -5.7391 C.ar      1 RES1    0.0000
      6 C5         8.7229   -5.4015   -4.3771 C.ar      1 RES1    0.0000
      7 C6         9.2553   -4.2378   -3.8756 C.ar      1 RES1    0.0000
      8 C7         9.3452   -3.7258   -2.4638 C.3       1 RES1    0.0000
      9 C8        10.0634   -2.4179   -2.6735 C.2       1 RES1    0.0000
     10 C9        10.4469   -1.4658   -1.7119 C.2       1 RES1    0.0000
     11 C10       10.2887   -1.6432   -0.3839 C.2       1 RES1    0.0000
     12 C11       10.6911   -0.7547    0.6531 C.ar      1 RES1    0.0000
     13 C12       10.4944   -1.2513    2.0068 C.ar      1 RES1    0.0000
     14 C13       10.9590   -0.3710    3.0362 C.ar      1 RES1    0.0000
     15 C14       11.4825    0.8499    2.7926 C.ar      1 RES1    0.0000
     16 C15       11.5999    1.2914    1.4819 C.ar      1 RES1    0.0000
     17 C16       11.2119    0.4963    0.4336 C.ar      1 RES1    0.0000
     18 C17       10.9455   -1.1018   -4.5988 C.3       1 RES1    0.0000
     19 C18        7.9345   -3.4827   -1.9261 C.3       1 RES1    0.0000
     20 C19       10.1246   -4.7068   -1.5784 C.3       1 RES1    0.0000
     21 O1        10.0310   -2.3886    2.2368 O.2       1 RES1   -1.0000
     22 N2        10.8950   -0.8071    4.4133 N.pl3     1 RES1    0.0000
     23 O2         9.9486   -1.4284    4.7964 O.2       1 RES1    0.0000
     24 O3        11.8153   -0.5069    5.1478 O.2       1 RES1    0.0000
     25 N3        12.0854    2.6175    1.2398 N.pl3     1 RES1    0.0000
     26 O4        12.3840    3.3166    2.2021 O.2       1 RES1    0.0000
     27 O5        12.2229    2.9932    0.0943 O.2       1 RES1    0.0000
     28 H1        10.2846   -2.8382   -6.6674 H         1 RES1    0.0000
     29 H2         9.4011   -4.8273   -7.5204 H         1 RES1    0.0000
     30 H3         8.4402   -6.4212   -6.1011 H         1 RES1    0.0000
     31 H4         8.3282   -6.0540   -3.7934 H         1 RES1    0.0000
     32 H5        10.8612   -0.6471   -1.9955 H         1 RES1    0.0000
     33 H6         9.8378   -2.4501   -0.1237 H         1 RES1    0.0000
     34 H7        11.7759    1.3671    3.5151 H         1 RES1    0.0000
     35 H8        11.3261    0.8098   -0.4661 H         1 RES1    0.0000
     36 H9        11.8414   -1.0354   -4.2617 H         1 RES1    0.0000
     37 H10       10.4599   -0.3035   -4.3778 H         1 RES1    0.0000
     38 H11       10.9693   -1.2082   -5.5521 H         1 RES1    0.0000
     39 H12        7.4532   -2.9534   -2.5656 H         1 RES1    0.0000
     40 H13        7.4762   -4.3148   -1.7888 H         1 RES1    0.0000
     41 H14        7.9904   -3.0076   -1.0935 H         1 RES1    0.0000
     42 H15       10.9761   -4.9088   -1.9736 H         1 RES1    0.0000
     43 H16        9.6181   -5.5166   -1.4804 H         1 RES1    0.0000
     44 H17       10.2599   -4.3081   -0.7157 H         1 RES1    0.0000
@<TRIPOS>BOND
     1    1    2 1
     2    2    3 ar
     3    3    4 ar
     4    4    5 ar
     5    5    6 ar
     6    6    7 ar
     7    7    2 ar
     8    8    7 1
     9    9    1 2
    10   10    9 1
    11   11   10 2
    12   12   11 1
    13   13   12 ar
    14   14   13 ar
    15   15   14 ar
    16   16   15 ar
    17   17   12 ar
    18   18    1 1
    19   19    8 1
    20   20    8 1
    21   21   13 1
    22   22   14 1
    23   23   22 2
    24   24   22 2
    25   25   16 1
    26   26   25 2
    27   27   25 2
    28   28    3 1
    29   29    4 1
    30   30    5 1
    31   31    6 1
    32   32   10 1
    33   33   11 1
    34   34   15 1
    35   35   17 1
    36   36   18 1
    37   37   18 1
    38   38   18 1
    39   39   19 1
    40   40   19 1
    41   41   19 1
    42   42   20 1
    43   43   20 1
    44   44   20 1
    45    8    9 1
    46   16   17 ar
@<TRIPOS>SUBSTRUCTURE
     1 RES1 1

@<TRIPOS>CRYSIN
  12.8120    9.4490    8.1990 111.5500  74.8400 111.2100   2 1

