# MOL2 file generated by ConQuest
# Please check atom types

@<TRIPOS>MOLECULE
BAPSUJ
    66    68     2
SMALL
NO_CHARGES
****
Generated from CSD

@<TRIPOS>ATOM
      1 N1         7.2182    7.9996    1.7928 N.pl3     1 RES1    0.0000
      2 N2         8.7223    6.3832    2.0808 N.2       1 RES1    0.0000
      3 N3         8.7225    6.6824    4.9082 N.pl3     1 RES1    0.0000
      4 H1         9.3744    6.1965    4.6282 H         1 RES1    0.0000
      5 O1         6.3603    8.8796    2.1172 O.2       1 RES1    0.0000
      6 O2         9.9714    5.4450    7.1704 O.2       1 RES1    0.0000
      7 C1         7.4970    8.6479   -0.5786 C.3       1 RES1    0.0000
      8 H2         8.2792    9.1714   -0.3892 H         1 RES1    0.0000
      9 H3         6.7149    9.1995   -0.4972 H         1 RES1    0.0000
     10 H4         7.5523    8.3026   -1.4716 H         1 RES1    0.0000
     11 C2         6.1610    6.6496    0.0839 C.3       1 RES1    0.0000
     12 H5         6.0910    5.9291    0.7157 H         1 RES1    0.0000
     13 H6         6.2379    6.2912   -0.8036 H         1 RES1    0.0000
     14 H7         5.3768    7.2012    0.1406 H         1 RES1    0.0000
     15 C3         7.4082    7.4949    0.4053 C.3       1 RES1    0.0000
     16 C4         9.9724    7.4423    0.2978 C.3       1 RES1    0.0000
     17 H8         9.9556    8.2773    0.7710 H         1 RES1    0.0000
     18 H9        10.0227    7.6112   -0.6454 H         1 RES1    0.0000
     19 H10       10.7371    6.9329    0.5726 H         1 RES1    0.0000
     20 C5         8.7073    5.3371   -0.1409 C.3       1 RES1    0.0000
     21 H11        7.9112    4.8371    0.0552 H         1 RES1    0.0000
     22 H12        9.4774    4.8305    0.1281 H         1 RES1    0.0000
     23 H13        8.7513    5.5116   -1.0849 H         1 RES1    0.0000
     24 C6         8.6783    6.6440    0.6115 C.3       1 RES1    0.0000
     25 C7         7.9603    7.2228    2.6755 C.2       1 RES1    0.0000
     26 C8         7.8522    7.3607    4.1164 C.2       1 RES1    0.0000
     27 C9         6.9630    8.0287    4.9351 C.2       1 RES1    0.0000
     28 H14        6.2606    8.5719    4.6609 H         1 RES1    0.0000
     29 C10        7.3150    7.7360    6.2472 C.2       1 RES1    0.0000
     30 H15        6.8881    8.0559    7.0089 H         1 RES1    0.0000
     31 C11        8.3971    6.8945    6.2281 C.2       1 RES1    0.0000
     32 C12        9.1146    6.2518    7.3022 C.2       1 RES1    0.0000
     33 H16        8.8848    6.4911    8.1716 H         1 RES1    0.0000
     34 N4        13.1855    4.4665    3.8201 N.pl3     2 RES2    0.0000
     35 N5        11.4298    5.8203    3.9462 N.2       2 RES2    0.0000
     36 N6         9.6493    3.7798    3.0808 N.pl3     2 RES2    0.0000
     37 H17        9.3212    4.5660    2.9633 H         2 RES2    0.0000
     38 O3        13.8171    3.3839    3.6114 O.2       2 RES2    0.0000
     39 O4         6.8955    3.5631    2.3812 O.2       2 RES2    0.0000
     40 C13       14.4657    5.5961    5.5524 C.3       2 RES2    0.0000
     41 H18       15.2221    5.0069    5.4946 H         2 RES2    0.0000
     42 H19       13.8164    5.2255    6.1551 H         2 RES2    0.0000
     43 H20       14.7512    6.4526    5.8763 H         2 RES2    0.0000
     44 C14       14.9078    6.0070    3.1591 C.3       2 RES2    0.0000
     45 H21       14.5163    6.1252    2.2903 H         2 RES2    0.0000
     46 H22       15.5073    5.2583    3.1416 H         2 RES2    0.0000
     47 H23       15.3928    6.7997    3.4027 H         2 RES2    0.0000
     48 C15       13.8361    5.7593    4.1554 C.3       2 RES2    0.0000
     49 C16       12.3941    7.4255    5.4519 C.3       2 RES2    0.0000
     50 H24       12.3986    6.8044    6.1852 H         2 RES2    0.0000
     51 H25       11.5441    7.8730    5.4193 H         2 RES2    0.0000
     52 H26       13.0919    8.0728    5.5775 H         2 RES2    0.0000
     53 C17       12.6290    7.6994    3.0436 C.3       2 RES2    0.0000
     54 H27       11.8525    8.2604    3.1114 H         2 RES2    0.0000
     55 H28       12.6201    7.2388    2.2024 H         2 RES2    0.0000
     56 H29       13.4198    8.2398    3.1064 H         2 RES2    0.0000
     57 C18       12.6207    6.6890    4.1734 C.3       2 RES2    0.0000
     58 C19       11.8165    4.6195    3.7402 C.2       2 RES2    0.0000
     59 C20       10.9278    3.5077    3.4484 C.2       2 RES2    0.0000
     60 C21       11.0771    2.1437    3.5283 C.2       2 RES2    0.0000
     61 H30       11.8512    1.6812    3.7568 H         2 RES2    0.0000
     62 C22        9.8511    1.5949    3.2026 C.2       2 RES2    0.0000
     63 H31        9.6555    0.6867    3.1767 H         2 RES2    0.0000
     64 C23        8.9706    2.6081    2.9253 C.2       2 RES2    0.0000
     65 C24        7.5759    2.5827    2.5436 C.2       2 RES2    0.0000
     66 H32        7.1767    1.7525    2.4158 H         2 RES2    0.0000
@<TRIPOS>BOND
     1    1    5 1
     2    2   24 1
     3    3    4 1
     4    6   32 2
     5    7    8 1
     6    9    7 1
     7   10    7 1
     8   11   12 1
     9   13   11 1
    10   14   11 1
    11   15    1 1
    12   16   17 1
    13   18   16 1
    14   19   16 1
    15   20   21 1
    16   22   20 1
    17   23   20 1
    18   24   15 1
    19   25    1 1
    20   26    3 1
    21   27   26 2
    22   28   27 1
    23   29   27 1
    24   30   29 1
    25   31    3 1
    26   32   31 1
    27   33   32 1
    28   34   38 1
    29   35   57 1
    30   36   37 1
    31   39   65 2
    32   40   41 1
    33   42   40 1
    34   43   40 1
    35   44   45 1
    36   46   44 1
    37   47   44 1
    38   48   34 1
    39   49   50 1
    40   51   49 1
    41   52   49 1
    42   53   54 1
    43   55   53 1
    44   56   53 1
    45   57   48 1
    46   58   34 1
    47   59   36 1
    48   60   59 2
    49   61   60 1
    50   62   60 1
    51   63   62 1
    52   64   36 1
    53   65   64 1
    54   66   65 1
    55    2   25 2
    56    7   15 1
    57   11   15 1
    58   16   24 1
    59   20   24 1
    60   25   26 1
    61   29   31 2
    62   35   58 2
    63   40   48 1
    64   44   48 1
    65   49   57 1
    66   53   57 1
    67   58   59 1
    68   62   64 2
@<TRIPOS>SUBSTRUCTURE
     1 RES1 1
     2 RES2 34

@<TRIPOS>CRYSIN
  10.7652    9.3815   25.5110  90.0000 100.1410  90.0000 231 1

