# MOL2 file generated by ConQuest
# Please check atom types

@<TRIPOS>MOLECULE
BAPSOD
    34    35     1
SMALL
NO_CHARGES
****
Generated from CSD

@<TRIPOS>ATOM
      1 N1         1.9502    1.1370    2.7006 N.pl3     1 RES1    0.0000
      2 O1         0.8111    0.5679    2.8554 O.2       1 RES1    0.0000
      3 N2         3.9388    1.5976    1.9150 N.pl3     1 RES1    0.0000
      4 O2         5.0057    1.5387    1.2119 O.2       1 RES1    0.0000
      5 N3         1.5608   -0.9319    0.6899 N.pl3     1 RES1    0.0000
      6 H1         0.8223   -0.7410    1.1349 H         1 RES1    0.0000
      7 O3        -0.5381   -2.6165   -0.2359 O.2       1 RES1    0.0000
      8 C1         3.3557    3.9468    1.9724 C.3       1 RES1    0.0000
      9 H2         4.1515    4.2260    1.5150 H         1 RES1    0.0000
     10 H3         3.0312    4.6658    2.5192 H         1 RES1    0.0000
     11 H4         2.6851    3.7058    1.3296 H         1 RES1    0.0000
     12 C2         4.9163    3.0045    3.6799 C.3       1 RES1    0.0000
     13 H5         5.6135    3.3386    3.1100 H         1 RES1    0.0000
     14 H6         5.2057    2.1874    4.0929 H         1 RES1    0.0000
     15 H7         4.7184    3.6542    4.3583 H         1 RES1    0.0000
     16 C3         3.6727    2.7396    2.8549 C.3       1 RES1    0.0000
     17 C4         1.3418    3.1762    3.9301 C.3       1 RES1    0.0000
     18 H8         0.6428    2.7415    4.4237 H         1 RES1    0.0000
     19 H9         0.9890    3.5053    3.0994 H         1 RES1    0.0000
     20 H10        1.6875    3.9096    4.4437 H         1 RES1    0.0000
     21 C5         2.8324    1.4515    4.9297 C.3       1 RES1    0.0000
     22 H11        2.0373    1.1394    5.3679 H         1 RES1    0.0000
     23 H12        3.3072    2.0479    5.5133 H         1 RES1    0.0000
     24 H13        3.3934    0.7029    4.7131 H         1 RES1    0.0000
     25 C6         2.4520    2.1882    3.6506 C.3       1 RES1    0.0000
     26 C7         2.8810    0.7813    1.8049 C.2       1 RES1    0.0000
     27 C8         2.7576   -0.3055    0.8745 C.2       1 RES1    0.0000
     28 C9         3.6835   -0.8906    0.0317 C.2       1 RES1    0.0000
     29 H14        4.6267   -0.6412   -0.0480 H         1 RES1    0.0000
     30 C10        3.0149   -1.8910   -0.6662 C.2       1 RES1    0.0000
     31 H15        3.3606   -2.5038   -1.3096 H         1 RES1    0.0000
     32 C11        1.6987   -1.9016   -0.2549 C.2       1 RES1    0.0000
     33 C12        0.5822   -2.7093   -0.6863 C.2       1 RES1    0.0000
     34 H16        0.8527   -3.3835   -1.4057 H         1 RES1    0.0000
@<TRIPOS>BOND
     1    1    2 1
     2    3    4 1
     3    5    6 1
     4    7   33 2
     5    8    9 1
     6   10    8 1
     7   11    8 1
     8   12   13 1
     9   14   12 1
    10   15   12 1
    11   16    3 1
    12   17   18 1
    13   19   17 1
    14   20   17 1
    15   21   22 1
    16   23   21 1
    17   24   21 1
    18   25    1 1
    19   26    1 2
    20   27    5 1
    21   28   27 2
    22   29   28 1
    23   30   28 1
    24   31   30 1
    25   32    5 1
    26   33   32 1
    27   34   33 1
    28    3   26 1
    29    8   16 1
    30   12   16 1
    31   16   25 1
    32   17   25 1
    33   21   25 1
    34   26   27 1
    35   30   32 2
@<TRIPOS>SUBSTRUCTURE
     1 RES1 1

@<TRIPOS>CRYSIN
  11.5148    8.4587   13.3980  90.0000  95.4980  90.0000  14 1

