# MOL2 file generated by ConQuest
# Please check atom types

@<TRIPOS>MOLECULE
BAPWUM
    55    58     1
SMALL
NO_CHARGES
****
Generated from CSD

@<TRIPOS>ATOM
      1 C1         2.8686    3.7790    5.9240 C.ar      1 RES1    0.0000
      2 H1         3.1095    3.7870    6.8225 H         1 RES1    0.0000
      3 C2         2.1469    3.8311    3.2581 C.ar      1 RES1    0.0000
      4 H2         1.8920    3.8695    2.3656 H         1 RES1    0.0000
      5 C3         1.0172    0.0685    4.9581 C.3       1 RES1    0.0000
      6 H3         1.9189    0.3488    4.7867 H         1 RES1    0.0000
      7 H4         0.6819   -0.4122    4.1980 H         1 RES1    0.0000
      8 H5         1.0014   -0.5027    5.7301 H         1 RES1    0.0000
      9 C4         3.2573    4.5201    3.6601 C.ar      1 RES1    0.0000
     10 H6         3.7663    4.9991    3.0453 H         1 RES1    0.0000
     11 C5         0.1757    2.2138    3.9639 C.3       1 RES1    0.0000
     12 H7         0.2508    1.6846    3.1541 H         1 RES1    0.0000
     13 H8        -0.6260    2.7572    3.9095 H         1 RES1    0.0000
     14 O1        -1.3656    0.0308    6.6558 O.3       1 RES1    0.0000
     15 O2         1.3256    1.4535    7.3415 O.3       1 RES1    0.0000
     16 C6         1.4911    2.0377    8.5520 C.2       1 RES1    0.0000
     17 C7         1.8513    1.5595   10.9259 C.ar      1 RES1    0.0000
     18 H9         1.8307    2.4759   11.0819 H         1 RES1    0.0000
     19 C8         1.7290    1.0840    9.6349 C.ar      1 RES1    0.0000
     20 C9         2.0075   -0.6412   11.7451 C.ar      1 RES1    0.0000
     21 C10       -1.5057    0.0314   10.2532 C.ar      1 RES1    0.0000
     22 H10       -1.5320    0.9468   10.4152 H         1 RES1    0.0000
     23 C11        1.7939   -0.2938    9.4032 C.ar      1 RES1    0.0000
     24 H11        1.7441   -0.6094    8.5296 H         1 RES1    0.0000
     25 C12       -1.6190    0.5873    7.8782 C.2       1 RES1    0.0000
     26 C13       -1.3907   -2.1756   11.0713 C.ar      1 RES1    0.0000
     27 C14       -1.4379   -0.8060   11.3184 C.ar      1 RES1    0.0000
     28 H12       -1.4227   -0.4754   12.1873 H         1 RES1    0.0000
     29 C15       -1.4352   -1.8221    8.7483 C.ar      1 RES1    0.0000
     30 H13       -1.3866   -2.1453    7.8782 H         1 RES1    0.0000
     31 C16        1.9319   -1.1954   10.4400 C.ar      1 RES1    0.0000
     32 H14        1.9719   -2.1124   10.2922 H         1 RES1    0.0000
     33 C17       -1.5373   -0.3811    8.9930 C.ar      1 RES1    0.0000
     34 C18        2.0034    0.6881   11.9839 C.ar      1 RES1    0.0000
     35 H15        2.1012    1.0113   12.8505 H         1 RES1    0.0000
     36 C19        0.7767    2.2692    6.2385 C.3       1 RES1    0.0000
     37 H16        0.0860    2.8671    6.5931 H         1 RES1    0.0000
     38 C20       -1.2863    0.9109    5.5280 C.3       1 RES1    0.0000
     39 H17       -1.8033    1.7111    5.7100 H         1 RES1    0.0000
     40 H18       -1.6759    0.4739    4.7548 H         1 RES1    0.0000
     41 C21        0.1367    1.3002    5.2147 C.3       1 RES1    0.0000
     42 C22        1.7699    3.0618    5.4984 C.ar      1 RES1    0.0000
     43 C23       -1.4106   -2.6816    9.7957 C.ar      1 RES1    0.0000
     44 H19       -1.4080   -3.6007    9.6515 H         1 RES1    0.0000
     45 N1        -1.3113   -3.1057   12.2192 N.pl3     1 RES1    0.0000
     46 N2         2.1474   -1.5635   12.8718 N.pl3     1 RES1    0.0000
     47 O3        -1.8422    1.7510    8.0520 O.2       1 RES1    0.0000
     48 O4         1.3020    3.2411    8.7116 O.2       1 RES1    0.0000
     49 O5         2.2735   -1.1230   13.9724 O.2       1 RES1    0.0000
     50 O6         2.1499   -2.7605   12.6093 O.2       1 RES1    0.0000
     51 O7        -1.2260   -2.6282   13.2997 O.2       1 RES1    0.0000
     52 O8        -1.3130   -4.2686   12.0017 O.2       1 RES1    0.0000
     53 C24        3.6070    4.4904    4.9865 C.ar      1 RES1    0.0000
     54 H20        4.3630    4.9589    5.2655 H         1 RES1    0.0000
     55 C25        1.3862    3.0726    4.1472 C.ar      1 RES1    0.0000
@<TRIPOS>BOND
     1    1    2 1
     2    3    4 1
     3    5    6 1
     4    7    5 1
     5    8    5 1
     6    9    3 ar
     7   10    9 1
     8   11   12 1
     9   13   11 1
    10   14   25 1
    11   15   16 1
    12   16   19 1
    13   17   18 1
    14   19   17 ar
    15   20   31 ar
    16   21   22 1
    17   23   19 ar
    18   24   23 1
    19   25   33 1
    20   26   27 ar
    21   27   21 ar
    22   28   27 1
    23   29   30 1
    24   31   23 ar
    25   32   31 1
    26   33   21 ar
    27   34   17 ar
    28   35   34 1
    29   36   15 1
    30   37   36 1
    31   38   14 1
    32   39   38 1
    33   40   38 1
    34   41    5 1
    35   42    1 ar
    36   43   26 ar
    37   44   43 1
    38   45   26 1
    39   46   20 1
    40   47   25 2
    41   48   16 2
    42   49   46 2
    43   50   46 2
    44   51   45 2
    45   52   45 2
    46   53    1 ar
    47   54   53 1
    48   55    3 ar
    49    9   53 ar
    50   11   41 1
    51   11   55 1
    52   20   34 ar
    53   29   33 ar
    54   29   43 ar
    55   36   41 1
    56   36   42 1
    57   38   41 1
    58   42   55 ar
@<TRIPOS>SUBSTRUCTURE
     1 RES1 1

@<TRIPOS>CRYSIN
   6.7170    7.1760   12.1470  99.0240  99.3640  91.8720   1 1

