# MOL2 file generated by ConQuest
# Please check atom types

@<TRIPOS>MOLECULE
BAPYAU
    94    96     2
SMALL
NO_CHARGES
****
Generated from CSD

@<TRIPOS>ATOM
      1 O1         5.6869   11.7779    8.1502 O.3       1 RES1    0.0000
      2 H1         6.4487   12.0981    8.3023 H         1 RES1    0.0000
      3 O2         4.2001   15.0709    7.3037 O.2       1 RES1    0.0000
      4 O3         4.2747   13.5191    5.7151 O.3       1 RES1    0.0000
      5 O4         0.1840   12.4950    8.6701 O.2       1 RES1    0.0000
      6 O5         1.1013   13.6611    6.9832 O.3       1 RES1    0.0000
      7 O6         2.7760   14.3013   11.4571 O.2       1 RES1    0.0000
      8 O7         2.1842   12.3308   12.3422 O.3       1 RES1    0.0000
      9 O8         7.3224   11.5335   14.5466 O.3       1 RES1    0.0000
     10 N1         4.6937   12.5577    8.8367 N.3       1 RES1    0.0000
     11 C1         4.9723   11.6453   11.1093 C.ar      1 RES1    0.0000
     12 C2         4.8093   10.6171   12.0214 C.ar      1 RES1    0.0000
     13 H2         4.1597    9.9457   11.8498 H         1 RES1    0.0000
     14 C3         5.5711   10.5407   13.1828 C.ar      1 RES1    0.0000
     15 H3         5.4419    9.8253   13.7946 H         1 RES1    0.0000
     16 C4         6.5127   11.5087   13.4386 C.ar      1 RES1    0.0000
     17 C5         6.7052   12.5372   12.5262 C.ar      1 RES1    0.0000
     18 H4         7.3654   13.1997   12.6923 H         1 RES1    0.0000
     19 C6         5.9393   12.6005   11.3784 C.ar      1 RES1    0.0000
     20 H5         6.0781   13.3110   10.7636 H         1 RES1    0.0000
     21 C7         4.0967   11.7089    9.8801 C.3       1 RES1    0.0000
     22 H6         3.9917   10.7838    9.5160 H         1 RES1    0.0000
     23 C8         2.6750   12.3368   10.0586 C.3       1 RES1    0.0000
     24 H7         1.9924   11.6066   10.0583 H         1 RES1    0.0000
     25 C9         2.4768   13.2103    8.8107 C.3       1 RES1    0.0000
     26 H8         2.6014   14.1673    9.0738 H         1 RES1    0.0000
     27 C10        3.6233   12.8152    7.8752 C.3       1 RES1    0.0000
     28 H9         3.3979   11.9905    7.3565 H         1 RES1    0.0000
     29 C11        4.0502   13.9410    6.9540 C.2       1 RES1    0.0000
     30 C12        1.1181   13.0676    8.1745 C.2       1 RES1    0.0000
     31 C13        2.5537   13.1275   11.3396 C.2       1 RES1    0.0000
     32 C14        2.2035   12.9137   13.6641 C.3       1 RES1    0.0000
     33 H10        1.9160   12.2457   14.3208 H         1 RES1    0.0000
     34 H11        1.5943   13.6807   13.6913 H         1 RES1    0.0000
     35 H12        3.1130   13.2111   13.8770 H         1 RES1    0.0000
     36 C15       -0.1821   13.7370    6.3148 C.3       1 RES1    0.0000
     37 H13       -0.0755   14.1915    5.4536 H         1 RES1    0.0000
     38 H14       -0.8118   14.2391    6.8723 H         1 RES1    0.0000
     39 H15       -0.5266   12.8319    6.1654 H         1 RES1    0.0000
     40 C16        4.7367   14.5465    4.8122 C.3       1 RES1    0.0000
     41 H16        4.8785   14.1603    3.9236 H         1 RES1    0.0000
     42 H17        5.5798   14.9193    5.1453 H         1 RES1    0.0000
     43 H18        4.0653   15.2587    4.7564 H         1 RES1    0.0000
     44 C17        7.1801   10.4872   15.4900 C.3       1 RES1    0.0000
     45 H19        7.8112   10.6234   16.2269 H         1 RES1    0.0000
     46 H20        7.3660    9.6287   15.0552 H         1 RES1    0.0000
     47 H21        6.2651   10.4845   15.8395 H         1 RES1    0.0000
     48 O9         8.1920    7.0772   15.5116 O.3       2 RES2    0.0000
     49 H22        7.5934    6.4904   15.4635 H         2 RES2    0.0000
     50 O10        9.8685    3.9383   16.4601 O.2       2 RES2    0.0000
     51 O11        9.3494    5.3197   18.1412 O.3       2 RES2    0.0000
     52 O12       13.6135    7.3521   16.4156 O.2       2 RES2    0.0000
     53 O13       12.6808    5.7194   17.6328 O.3       2 RES2    0.0000
     54 O14       12.2951    5.3864   12.9454 O.2       2 RES2    0.0000
     55 O15       12.5671    7.5039   12.2980 O.3       2 RES2    0.0000
     56 O16        7.8365    7.9480    9.1178 O.3       2 RES2    0.0000
     57 N2         9.4396    6.5285   15.0560 N.3       2 RES2    0.0000
     58 C18        9.5291    7.7386   12.9116 C.ar      2 RES2    0.0000
     59 C19        9.3611    6.6208   12.0977 C.ar      2 RES2    0.0000
     60 H23        9.6344    5.7679   12.4131 H         2 RES2    0.0000
     61 C20        8.8066    6.7321   10.8464 C.ar      2 RES2    0.0000
     62 H24        8.7022    5.9576   10.3052 H         2 RES2    0.0000
     63 C21        8.3958    7.9718   10.3640 C.ar      2 RES2    0.0000
     64 C22        8.5562    9.0952   11.1498 C.ar      2 RES2    0.0000
     65 H25        8.2851    9.9474   10.8298 H         2 RES2    0.0000
     66 C23        9.1209    8.9639   12.4176 C.ar      2 RES2    0.0000
     67 H26        9.2283    9.7376   12.9570 H         2 RES2    0.0000
     68 C24       10.1152    7.5971   14.2913 C.3       2 RES2    0.0000
     69 H27        9.9901    8.4611   14.7775 H         2 RES2    0.0000
     70 C25       11.6154    7.1779   14.4089 C.3       2 RES2    0.0000
     71 H28       12.1540    7.9868   14.6404 H         2 RES2    0.0000
     72 C26       11.6683    6.2014   15.5913 C.3       2 RES2    0.0000
     73 H29       11.7973    5.2738   15.2424 H         2 RES2    0.0000
     74 C27       10.2819    6.3050   16.2322 C.3       2 RES2    0.0000
     75 H30       10.2378    7.0882   16.8515 H         2 RES2    0.0000
     76 C28        9.8324    5.0399   16.9370 C.2       2 RES2    0.0000
     77 C29       12.7719    6.5161   16.5673 C.2       2 RES2    0.0000
     78 C30       12.1902    6.5615   13.1529 C.2       2 RES2    0.0000
     79 C31       13.0630    7.0368   11.0223 C.3       2 RES2    0.0000
     80 H31       13.3149    7.8047   10.4682 H         2 RES2    0.0000
     81 H32       12.3623    6.5223   10.5683 H         2 RES2    0.0000
     82 H33       13.8467    6.4665   11.1655 H         2 RES2    0.0000
     83 C32       13.7436    5.8541   18.6054 C.3       2 RES2    0.0000
     84 H34       13.5879    5.2339   19.3483 H         2 RES2    0.0000
     85 H35       13.7606    6.7731   18.9448 H         2 RES2    0.0000
     86 H36       14.6023    5.6463   18.1814 H         2 RES2    0.0000
     87 C33        8.8194    4.1908   18.8730 C.3       2 RES2    0.0000
     88 H37        8.4870    4.4928   19.7437 H         2 RES2    0.0000
     89 H38        9.5276    3.5260   19.0062 H         2 RES2    0.0000
     90 H39        8.0843    3.7876   18.3654 H         2 RES2    0.0000
     91 C34        7.3462    9.1821    8.5986 C.3       2 RES2    0.0000
     92 H40        6.9724    9.0353    7.7051 H         2 RES2    0.0000
     93 H41        8.0809    9.8280    8.5428 H         2 RES2    0.0000
     94 H42        6.6477    9.5314    9.1916 H         2 RES2    0.0000
@<TRIPOS>BOND
     1    1    2 1
     2    3   29 2
     3    4   29 1
     4    5   30 2
     5    6   30 1
     6    7   31 2
     7    8   31 1
     8    9   16 1
     9   10    1 1
    10   11   12 ar
    11   12   13 1
    12   14   12 ar
    13   15   14 1
    14   16   14 ar
    15   17   16 ar
    16   18   17 1
    17   19   11 ar
    18   20   19 1
    19   21   10 1
    20   22   21 1
    21   23   21 1
    22   24   23 1
    23   25   23 1
    24   26   25 1
    25   27   10 1
    26   28   27 1
    27   29   27 1
    28   30   25 1
    29   31   23 1
    30   32    8 1
    31   33   32 1
    32   34   32 1
    33   35   32 1
    34   36    6 1
    35   37   36 1
    36   38   36 1
    37   39   36 1
    38   40    4 1
    39   41   40 1
    40   42   40 1
    41   43   40 1
    42   44    9 1
    43   45   44 1
    44   46   44 1
    45   47   44 1
    46   48   49 1
    47   50   76 2
    48   51   76 1
    49   52   77 2
    50   53   77 1
    51   54   78 2
    52   55   78 1
    53   56   63 1
    54   57   48 1
    55   58   59 ar
    56   59   60 1
    57   61   59 ar
    58   62   61 1
    59   63   61 ar
    60   64   63 ar
    61   65   64 1
    62   66   58 ar
    63   67   66 1
    64   68   57 1
    65   69   68 1
    66   70   68 1
    67   71   70 1
    68   72   70 1
    69   73   72 1
    70   74   57 1
    71   75   74 1
    72   76   74 1
    73   77   72 1
    74   78   70 1
    75   79   55 1
    76   80   79 1
    77   81   79 1
    78   82   79 1
    79   83   53 1
    80   84   83 1
    81   85   83 1
    82   86   83 1
    83   87   51 1
    84   88   87 1
    85   89   87 1
    86   90   87 1
    87   91   56 1
    88   92   91 1
    89   93   91 1
    90   94   91 1
    91   11   21 1
    92   17   19 ar
    93   25   27 1
    94   58   68 1
    95   64   66 ar
    96   72   74 1
@<TRIPOS>SUBSTRUCTURE
     1 RES1 1
     2 RES2 48

@<TRIPOS>CRYSIN
   8.1401   13.3726   16.6620  75.7270  89.6350  81.5060   2 1

