# MOL2 file generated by ConQuest
# Please check atom types

@<TRIPOS>MOLECULE
BAPYEY
    43    44     1
SMALL
NO_CHARGES
****
Generated from CSD

@<TRIPOS>ATOM
      1 N1         0.2239    5.2235   -0.6931 N.3       1 RES1    0.0000
      2 O1         0.6408    3.8665   -0.4262 O.3       1 RES1    0.0000
      3 H1         0.0886    3.5004    0.0908 H         1 RES1    0.0000
      4 O2        -2.0527    4.9112   -2.2632 O.2       1 RES1    0.0000
      5 O3        -0.7502    4.5638   -4.0451 O.3       1 RES1    0.0000
      6 O4        -1.1974    7.3859   -3.7691 O.2       1 RES1    0.0000
      7 O5         0.0473    9.0672   -2.9609 O.3       1 RES1    0.0000
      8 O6        -1.4004    7.9609   -0.5630 O.2       1 RES1    0.0000
      9 O7         0.1480    9.0515    0.6333 O.3       1 RES1    0.0000
     10 C1         0.3003    5.4167   -2.1464 C.3       1 RES1    0.0000
     11 H2         1.0505    4.8619   -2.5043 H         1 RES1    0.0000
     12 C2         0.6738    6.9177   -2.2987 C.3       1 RES1    0.0000
     13 H3         1.5494    6.9545   -2.7787 H         1 RES1    0.0000
     14 C3         0.9268    7.4270   -0.8553 C.3       1 RES1    0.0000
     15 H4         1.7320    8.0191   -0.8355 H         1 RES1    0.0000
     16 C4         1.2122    6.1194   -0.0875 C.3       1 RES1    0.0000
     17 H5         2.1341    5.7975   -0.3032 H         1 RES1    0.0000
     18 C5         1.0489    6.2231    1.4067 C.ar      1 RES1    0.0000
     19 C6        -0.0814    5.7816    2.0569 C.ar      1 RES1    0.0000
     20 H6        -0.7744    5.3591    1.5637 H         1 RES1    0.0000
     21 C7        -0.2151    5.9502    3.4283 C.ar      1 RES1    0.0000
     22 H7        -1.0010    5.6463    3.8679 H         1 RES1    0.0000
     23 C8         0.7832    6.5538    4.1526 C.ar      1 RES1    0.0000
     24 H8         0.6859    6.6660    5.0912 H         1 RES1    0.0000
     25 C9         1.9091    6.9914    3.5321 C.ar      1 RES1    0.0000
     26 H9         2.5955    7.4140    4.0350 H         1 RES1    0.0000
     27 C10        2.0560    6.8187    2.1565 C.ar      1 RES1    0.0000
     28 H10        2.8519    7.1114    1.7287 H         1 RES1    0.0000
     29 C11       -0.9851    4.9650   -2.7884 C.2       1 RES1    0.0000
     30 C12       -0.2959    7.7576   -3.0848 C.2       1 RES1    0.0000
     31 C13       -0.2591    8.1479   -0.2793 C.2       1 RES1    0.0000
     32 C14       -0.8987    9.7247    1.3512 C.3       1 RES1    0.0000
     33 H11       -0.5038   10.3583    1.9866 H         1 RES1    0.0000
     34 H12       -1.4367    9.0654    1.8380 H         1 RES1    0.0000
     35 H13       -1.4691   10.2098    0.7179 H         1 RES1    0.0000
     36 C15       -0.8399    9.9767   -3.6394 C.3       1 RES1    0.0000
     37 H14       -0.5390   10.8975   -3.4925 H         1 RES1    0.0000
     38 H15       -1.7485    9.8694   -3.2882 H         1 RES1    0.0000
     39 H16       -0.8355    9.7812   -4.6002 H         1 RES1    0.0000
     40 C16       -1.9399    4.2509   -4.8045 C.3       1 RES1    0.0000
     41 H17       -1.6858    3.9696   -5.7080 H         1 RES1    0.0000
     42 H18       -2.5114    5.0454   -4.8581 H         1 RES1    0.0000
     43 H19       -2.4283    3.5256   -4.3609 H         1 RES1    0.0000
@<TRIPOS>BOND
     1    1    2 1
     2    2    3 1
     3    4   29 2
     4    5   29 1
     5    6   30 2
     6    7   30 1
     7    8   31 2
     8    9   31 1
     9   10    1 1
    10   11   10 1
    11   12   10 1
    12   13   12 1
    13   14   12 1
    14   15   14 1
    15   16    1 1
    16   17   16 1
    17   18   16 1
    18   19   18 ar
    19   20   19 1
    20   21   19 ar
    21   22   21 1
    22   23   21 ar
    23   24   23 1
    24   25   23 ar
    25   26   25 1
    26   27   18 ar
    27   28   27 1
    28   29   10 1
    29   30   12 1
    30   31   14 1
    31   32    9 1
    32   33   32 1
    33   34   32 1
    34   35   32 1
    35   36    7 1
    36   37   36 1
    37   38   36 1
    38   39   36 1
    39   40    5 1
    40   41   40 1
    41   42   40 1
    42   43   40 1
    43   14   16 1
    44   25   27 ar
@<TRIPOS>SUBSTRUCTURE
     1 RES1 1

@<TRIPOS>CRYSIN
   5.5002   14.0071   20.6289  90.0000  90.0000  90.0000  19 1

