# MOL2 file generated by ConQuest
# Please check atom types

@<TRIPOS>MOLECULE
BAPYAV
    56    58     2
SMALL
NO_CHARGES
****
Generated from CSD

@<TRIPOS>ATOM
      1 O1         1.3374    9.0050    5.6646 O.3       1 RES1    0.0000
      2 H1         1.1493    9.7511    5.3057 H         1 RES1    0.0000
      3 O2        -1.3188   10.6364    5.2664 O.2       1 RES1    0.0000
      4 O3        -1.2730    9.3235    3.6406 O.2       1 RES1    0.0000
      5 O4         1.3808    7.9441    8.4436 O.3       1 RES1    0.0000
      6 O5         2.8764    5.3345   12.1483 O.3       1 RES1    0.0000
      7 N1        -1.2160    9.5542    4.7979 N.pl3     1 RES1    0.0000
      8 C1         0.2571    8.7166    6.5251 C.3       1 RES1    0.0000
      9 H2         0.0801    9.5141    7.0670 H         1 RES1    0.0000
     10 C2        -0.9718    8.4194    5.7215 C.3       1 RES1    0.0000
     11 H3        -0.8470    7.6017    5.2157 H         1 RES1    0.0000
     12 H4        -1.7327    8.3027    6.3110 H         1 RES1    0.0000
     13 C3         3.6846    6.3641   12.6458 C.3       1 RES1    0.0000
     14 H5         4.3391    6.6048   11.9859 H         1 RES1    0.0000
     15 H6         4.1284    6.0656   13.4432 H         1 RES1    0.0000
     16 H7         3.1405    7.1290   12.8495 H         1 RES1    0.0000
     17 C4         0.5470    7.6118    7.4269 C.2       1 RES1    0.0000
     18 C5         0.1664    6.3402    7.5086 C.2       1 RES1    0.0000
     19 H8        -0.3918    5.8850    6.9202 H         1 RES1    0.0000
     20 C6         0.7871    5.8198    8.6794 C.ar      1 RES1    0.0000
     21 C7         0.8086    4.6122    9.3403 C.ar      1 RES1    0.0000
     22 H9         0.3370    3.8824    9.0083 H         1 RES1    0.0000
     23 C8         1.5273    4.5031   10.4842 C.ar      1 RES1    0.0000
     24 H10        1.5457    3.6905   10.9361 H         1 RES1    0.0000
     25 C9         2.2256    5.5653   10.9868 C.ar      1 RES1    0.0000
     26 C10        2.2438    6.7678   10.3518 C.ar      1 RES1    0.0000
     27 H11        2.7264    7.4939   10.6776 H         1 RES1    0.0000
     28 C11        1.5082    6.8393    9.2048 C.ar      1 RES1    0.0000
     29 O6         1.3187    7.1152    3.6457 O.3       2 RES2    0.0000
     30 H12        1.2066    7.5992    2.9683 H         2 RES2    0.0000
     31 O7         3.8997    6.5810    6.4041 O.2       2 RES2    0.0000
     32 O8         4.0431    7.6958    4.6262 O.2       2 RES2    0.0000
     33 O9         1.0269    5.3983    1.4810 O.3       2 RES2    0.0000
     34 O10       -1.4361    2.7851   -1.6610 O.3       2 RES2    0.0000
     35 N2         3.6890    6.7428    5.2478 N.pl3     2 RES2    0.0000
     36 C12        2.2808    6.1321    3.3323 C.3       2 RES2    0.0000
     37 H13        2.9807    6.5333    2.7759 H         2 RES2    0.0000
     38 C13        2.8719    5.6769    4.6024 C.3       2 RES2    0.0000
     39 H14        3.4317    4.9031    4.4349 H         2 RES2    0.0000
     40 H15        2.1629    5.4085    5.2064 H         2 RES2    0.0000
     41 C14       -1.7498    3.9150   -2.4543 C.3       2 RES2    0.0000
     42 H16       -2.3338    3.6516   -3.1689 H         2 RES2    0.0000
     43 H17       -0.9420    4.2824   -2.8204 H         2 RES2    0.0000
     44 H18       -2.1852    4.5758   -1.9113 H         2 RES2    0.0000
     45 C15        1.6679    5.0135    2.6042 C.2       2 RES2    0.0000
     46 C16        1.5823    3.7143    2.8059 C.2       2 RES2    0.0000
     47 H19        1.9549    3.2316    3.5082 H         2 RES2    0.0000
     48 C17        0.8007    3.2002    1.7282 C.ar      2 RES2    0.0000
     49 C18        0.3300    1.9700    1.3321 C.ar      2 RES2    0.0000
     50 H20        0.5368    1.2038    1.8172 H         2 RES2    0.0000
     51 C19       -0.4426    1.8948    0.2182 C.ar      2 RES2    0.0000
     52 H21       -0.8047    1.0747   -0.0290 H         2 RES2    0.0000
     53 C20       -0.7014    3.0046   -0.5564 C.ar      2 RES2    0.0000
     54 C21       -0.2368    4.2310   -0.1934 C.ar      2 RES2    0.0000
     55 H22       -0.4108    4.9947   -0.6960 H         2 RES2    0.0000
     56 C22        0.4974    4.2724    0.9525 C.ar      2 RES2    0.0000
@<TRIPOS>BOND
     1    1    2 1
     2    3    7 2
     3    4    7 2
     4    5   17 1
     5    6   13 1
     6    7   10 1
     7    8    1 1
     8    9    8 1
     9   10    8 1
    10   11   10 1
    11   12   10 1
    12   13   14 1
    13   15   13 1
    14   16   13 1
    15   17    8 1
    16   18   17 2
    17   19   18 1
    18   20   18 1
    19   21   20 ar
    20   22   21 1
    21   23   21 ar
    22   24   23 1
    23   25    6 1
    24   26   25 ar
    25   27   26 1
    26   28    5 1
    27   29   30 1
    28   31   35 2
    29   32   35 2
    30   33   45 1
    31   34   41 1
    32   35   38 1
    33   36   29 1
    34   37   36 1
    35   38   36 1
    36   39   38 1
    37   40   38 1
    38   41   42 1
    39   43   41 1
    40   44   41 1
    41   45   36 1
    42   46   45 2
    43   47   46 1
    44   48   46 1
    45   49   48 ar
    46   50   49 1
    47   51   49 ar
    48   52   51 1
    49   53   34 1
    50   54   53 ar
    51   55   54 1
    52   56   33 1
    53   20   28 ar
    54   23   25 ar
    55   26   28 ar
    56   48   56 ar
    57   51   53 ar
    58   54   56 ar
@<TRIPOS>SUBSTRUCTURE
     1 RES1 1
     2 RES2 29

@<TRIPOS>CRYSIN
   7.9930   12.5400   10.6040  90.0000 102.7510  90.0000   4 1

