# MOL2 file generated by ConQuest
# Please check atom types

@<TRIPOS>MOLECULE
BAQDAA
    55    58     1
SMALL
USER_CHARGES
****
Generated from CSD

@<TRIPOS>ATOM
      1 O1         5.1640    2.9031    0.5526 O.2       1 RES1   -1.0000
      2 O2         7.9208    5.4810    2.4252 O.2       1 RES1    0.0000
      3 N1         6.5517    2.7919    0.4876 N.4       1 RES1    1.0000
      4 N2         5.7389    4.8066    2.3426 N.am      1 RES1    0.0000
      5 H1         5.1335    4.4426    1.8178 H         1 RES1    0.0000
      6 C1         6.9204    2.1238   -0.8023 C.3       1 RES1    0.0000
      7 H2         6.3995    1.2867   -0.8928 H         1 RES1    0.0000
      8 H3         7.8806    1.8821   -0.7776 H         1 RES1    0.0000
      9 C2         6.6638    2.9934   -1.9982 C.ar      1 RES1    0.0000
     10 C3         6.5413    2.3763   -3.2491 C.ar      1 RES1    0.0000
     11 H4         6.5644    1.4283   -3.3125 H         1 RES1    0.0000
     12 C4         6.3851    3.1410   -4.3974 C.ar      1 RES1    0.0000
     13 H5         6.3185    2.7182   -5.2455 H         1 RES1    0.0000
     14 C5         6.3282    4.5214   -4.3069 C.ar      1 RES1    0.0000
     15 H6         6.2183    5.0465   -5.0920 H         1 RES1    0.0000
     16 C6         6.4301    5.1349   -3.0693 C.ar      1 RES1    0.0000
     17 H7         6.3783    6.0818   -3.0095 H         1 RES1    0.0000
     18 C7         6.6071    4.3824   -1.9095 C.ar      1 RES1    0.0000
     19 C8         6.6654    5.0460   -0.5603 C.3       1 RES1    0.0000
     20 H8         5.7525    5.3341   -0.3090 H         1 RES1    0.0000
     21 H9         7.2268    5.8582   -0.6302 H         1 RES1    0.0000
     22 C9         7.2182    4.1674    0.5464 C.3       1 RES1    0.0000
     23 H10        8.2007    4.0517    0.3999 H         1 RES1    0.0000
     24 C10        7.0042    4.8643    1.8994 C.2       1 RES1    0.0000
     25 C11        5.3091    5.3110    3.6395 C.3       1 RES1    0.0000
     26 H11        5.9280    6.0478    3.9124 H         1 RES1    0.0000
     27 C12        5.4160    4.1849    4.6698 C.3       1 RES1    0.0000
     28 H12        6.3388    3.8547    4.6981 H         1 RES1    0.0000
     29 H13        4.8153    3.4531    4.4173 H         1 RES1    0.0000
     30 H14        5.1644    4.5246    5.5545 H         1 RES1    0.0000
     31 C13        3.8969    5.8813    3.5401 C.ar      1 RES1    0.0000
     32 C14        3.3208    6.2134    2.3163 C.ar      1 RES1    0.0000
     33 H15        3.8251    6.1085    1.5189 H         1 RES1    0.0000
     34 C15        2.0210    6.6943    2.2450 C.ar      1 RES1    0.0000
     35 H16        1.6411    6.9052    1.3997 H         1 RES1    0.0000
     36 C16        1.2776    6.8679    3.3959 C.ar      1 RES1    0.0000
     37 H17        0.3847    7.1874    3.3468 H         1 RES1    0.0000
     38 C17        1.8465    6.5729    4.6222 C.ar      1 RES1    0.0000
     39 H18        1.3470    6.7060    5.4192 H         1 RES1    0.0000
     40 C18        3.1424    6.0850    4.6931 C.ar      1 RES1    0.0000
     41 H19        3.5223    5.8859    5.5404 H         1 RES1    0.0000
     42 C19        7.0938    1.9711    1.6494 C.3       1 RES1    0.0000
     43 H20        8.0802    2.0567    1.6623 H         1 RES1    0.0000
     44 H21        6.7495    2.3550    2.4945 H         1 RES1    0.0000
     45 C20        6.7404    0.5093    1.6090 C.ar      1 RES1    0.0000
     46 C21        5.4291    0.0604    1.7405 C.ar      1 RES1    0.0000
     47 H22        4.7189    0.6870    1.8178 H         1 RES1    0.0000
     48 C22        5.1557   -1.3026    1.7597 C.ar      1 RES1    0.0000
     49 H23        4.2580   -1.6019    1.8401 H         1 RES1    0.0000
     50 C23        6.1749   -2.2186    1.6627 C.ar      1 RES1    0.0000
     51 H24        5.9811   -3.1485    1.6744 H         1 RES1    0.0000
     52 C24        7.4785   -1.7862    1.5494 C.ar      1 RES1    0.0000
     53 H25        8.1853   -2.4178    1.4906 H         1 RES1    0.0000
     54 C25        7.7591   -0.4271    1.5217 C.ar      1 RES1    0.0000
     55 H26        8.6597   -0.1353    1.4422 H         1 RES1    0.0000
@<TRIPOS>BOND
     1    1    3 1
     2    2   24 2
     3    3    6 1
     4    4    5 1
     5    6    7 1
     6    8    6 1
     7    9    6 1
     8   10    9 ar
     9   11   10 1
    10   12   10 ar
    11   13   12 1
    12   14   12 ar
    13   15   14 1
    14   16   14 ar
    15   17   16 1
    16   18    9 ar
    17   19   18 1
    18   20   19 1
    19   21   19 1
    20   22    3 1
    21   23   22 1
    22   24    4 1
    23   25    4 1
    24   26   25 1
    25   27   25 1
    26   28   27 1
    27   29   27 1
    28   30   27 1
    29   31   25 1
    30   32   31 ar
    31   33   32 1
    32   34   32 ar
    33   35   34 1
    34   36   34 ar
    35   37   36 1
    36   38   36 ar
    37   39   38 1
    38   40   31 ar
    39   41   40 1
    40   42    3 1
    41   43   42 1
    42   44   42 1
    43   45   42 1
    44   46   45 ar
    45   47   46 1
    46   48   46 ar
    47   49   48 1
    48   50   48 ar
    49   51   50 1
    50   52   50 ar
    51   53   52 1
    52   54   45 ar
    53   55   54 1
    54   16   18 ar
    55   19   22 1
    56   22   24 1
    57   38   40 ar
    58   52   54 ar
@<TRIPOS>SUBSTRUCTURE
     1 RES1 1

@<TRIPOS>CRYSIN
   9.6422   10.6512   20.1982  90.0000  90.0000  90.0000  19 1

