# MOL2 file generated by ConQuest
# Please check atom types

@<TRIPOS>MOLECULE
BAQGIL
    52    56     1
SMALL
NO_CHARGES
****
Generated from CSD

@<TRIPOS>ATOM
      1 C1         3.8620   10.6061    8.9899 C.ar      1 RES1    0.0000
      2 C2         3.6803    9.2599    8.6797 C.ar      1 RES1    0.0000
      3 C3         7.2406    5.4920    7.2352 C.ar      1 RES1    0.0000
      4 C4         3.6837    7.5922   12.1777 C.ar      1 RES1    0.0000
      5 C5         4.1779    5.5884   13.4551 C.ar      1 RES1    0.0000
      6 C6         3.9384    6.1978   12.2248 C.ar      1 RES1    0.0000
      7 C7         5.7753    5.0502    9.1878 C.ar      1 RES1    0.0000
      8 C8         6.3217    3.7648    9.3319 C.ar      1 RES1    0.0000
      9 C9         3.8744    7.6675   14.6040 C.ar      1 RES1    0.0000
     10 C10        7.6605    6.4138    6.1334 C.3       1 RES1    0.0000
     11 C11        6.2597    5.8858    8.1629 C.ar      1 RES1    0.0000
     12 C12        4.1469    6.3079   14.6377 C.ar      1 RES1    0.0000
     13 C13        4.6885    7.0340    9.3042 C.2       1 RES1    0.0000
     14 C14        3.2062    8.9188    7.4003 C.ar      1 RES1    0.0000
     15 C15        3.0553   11.2477    6.8265 C.ar      1 RES1    0.0000
     16 C16        3.8696    5.3138   10.9944 C.3       1 RES1    0.0000
     17 C17        7.7459    4.2102    7.3999 C.ar      1 RES1    0.0000
     18 C18        4.7683    5.7929    9.8839 C.2       1 RES1    0.0000
     19 C19        3.6325    8.2927   13.3947 C.ar      1 RES1    0.0000
     20 C20        3.9233    8.2063    9.7022 C.2       1 RES1    0.0000
     21 C21        3.5422   11.6154    8.0792 C.ar      1 RES1    0.0000
     22 C22        3.7187   13.0541    8.4602 C.3       1 RES1    0.0000
     23 C23        7.2999    3.3703    8.4367 C.ar      1 RES1    0.0000
     24 C24        3.4794    8.3916   10.9699 C.2       1 RES1    0.0000
     25 C25        2.4276    5.2104   10.4594 C.3       1 RES1    0.0000
     26 C26        2.8885    9.9154    6.4887 C.ar      1 RES1    0.0000
     27 N1         5.5807    7.0755    8.2368 N.pl3     1 RES1    0.0000
     28 N2         1.5296    4.6563   11.5258 N.pl3     1 RES1    0.0000
     29 O1         1.7263    3.5039   11.8775 O.2       1 RES1    0.0000
     30 O2         0.6752    5.3889   12.0031 O.2       1 RES1    0.0000
     31 H1         7.6858    2.5124    8.4959 H         1 RES1    0.0000
     32 H2         4.3746    4.6586   13.4847 H         1 RES1    0.0000
     33 H3         3.4611    9.2286   13.3610 H         1 RES1    0.0000
     34 H4         4.1961   10.8371    9.8274 H         1 RES1    0.0000
     35 H5         4.3175    5.8687   15.4832 H         1 RES1    0.0000
     36 H6         3.8679    8.1716   15.4565 H         1 RES1    0.0000
     37 H7         2.0553    6.0990   10.2251 H         1 RES1    0.0000
     38 H8         4.1391    4.4111   11.2486 H         1 RES1    0.0000
     39 H9         6.0088    3.1802   10.0359 H         1 RES1    0.0000
     40 H10        2.3764    4.5596    9.7328 H         1 RES1    0.0000
     41 H11        3.0900    7.9539    7.1595 H         1 RES1    0.0000
     42 H12        6.9222    6.6206    5.5443 H         1 RES1    0.0000
     43 H13        5.7092    7.7420    7.7489 H         1 RES1    0.0000
     44 H14        7.9855    7.2723    6.4853 H         1 RES1    0.0000
     45 H15        8.4208    3.9159    6.7836 H         1 RES1    0.0000
     46 H16        8.3209    6.0115    5.5952 H         1 RES1    0.0000
     47 H17        2.9972    9.2009   11.1419 H         1 RES1    0.0000
     48 H18        2.8117   11.9482    6.1700 H         1 RES1    0.0000
     49 H19        3.1757   13.6557    7.9089 H         1 RES1    0.0000
     50 H20        3.5396   13.1836    9.3156 H         1 RES1    0.0000
     51 H21        4.6386   13.3679    8.3309 H         1 RES1    0.0000
     52 H22        2.5619    9.6718    5.6170 H         1 RES1    0.0000
@<TRIPOS>BOND
     1    1    2 ar
     2    2   14 ar
     3    3   10 1
     4    4    6 ar
     5    5    6 ar
     6    6   16 1
     7    7    8 ar
     8    8   23 ar
     9    9   12 ar
    10   10   42 1
    11   11    3 ar
    12   12    5 ar
    13   13   18 2
    14   14   26 ar
    15   15   21 ar
    16   16   18 1
    17   17    3 ar
    18   18    7 1
    19   19    4 ar
    20   20    2 1
    21   21    1 ar
    22   22   21 1
    23   23   17 ar
    24   24    4 1
    25   25   16 1
    26   26   15 ar
    27   27   11 1
    28   28   25 1
    29   29   28 2
    30   30   28 2
    31   31   23 1
    32   32    5 1
    33   33   19 1
    34   34    1 1
    35   35   12 1
    36   36    9 1
    37   37   25 1
    38   38   16 1
    39   39    8 1
    40   40   25 1
    41   41   14 1
    42   43   27 1
    43   44   10 1
    44   45   17 1
    45   46   10 1
    46   47   24 1
    47   48   15 1
    48   49   22 1
    49   50   22 1
    50   51   22 1
    51   52   26 1
    52    7   11 ar
    53    9   19 ar
    54   13   20 1
    55   13   27 1
    56   20   24 2
@<TRIPOS>SUBSTRUCTURE
     1 RES1 1

@<TRIPOS>CRYSIN
   7.1363   11.5141   24.2531  90.0000  90.0000  90.0000  19 1

