# MOL2 file generated by ConQuest
# Please check atom types

@<TRIPOS>MOLECULE
BAQHUW
    39    39     2
SMALL
NO_CHARGES
****
Generated from CSD

@<TRIPOS>ATOM
      1 O1         1.5231    1.9151    7.5907 O.2       1 RES1    0.0000
      2 O2        -1.6887    4.0594   10.0922 O.2       1 RES1    0.0000
      3 O3        -0.5053    3.8510   11.8426 O.2       1 RES1    0.0000
      4 O4         4.7978    1.8656    9.4689 O.2       1 RES1    0.0000
      5 O5         3.1224    2.9178   10.2242 O.2       1 RES1    0.0000
      6 N1        -0.8486    3.4694   10.7391 N.pl3     1 RES1    0.0000
      7 N2         3.6644    1.8880    9.8994 N.pl3     1 RES1    0.0000
      8 C1         0.8411    3.3576    5.8640 C.3       1 RES1    0.0000
      9 H1         0.4497    4.2262    5.9840 H         1 RES1    0.0000
     10 H2         0.4255    2.9202    5.1176 H         1 RES1    0.0000
     11 H3         1.7821    3.4511    5.6963 H         1 RES1    0.0000
     12 C2         0.6319    2.5402    7.1021 C.2       1 RES1    0.0000
     13 C3        -0.7578    2.5107    7.6648 C.3       1 RES1    0.0000
     14 H4        -1.3550    2.1482    6.9920 H         1 RES1    0.0000
     15 H5        -1.0384    3.4215    7.8457 H         1 RES1    0.0000
     16 C4        -0.9110    1.6900    8.9473 C.3       1 RES1    0.0000
     17 H6        -0.4774    0.8286    8.7725 H         1 RES1    0.0000
     18 C5        -2.3489    1.3827    9.2188 C.2       1 RES1    0.0000
     19 O6        -2.6239    1.0458   10.5388 O.3       1 RES1    0.0000
     20 O7        -2.5536    0.6386   10.3592 Du        2 SUP2    0.0000
     21 C6        -3.5001    1.5240    8.5627 C.2       1 RES1    0.0000
     22 H7        -3.6130    1.8856    7.7121 H         1 RES1    0.0000
     23 C7        -4.5203    1.0154    9.4116 C.2       1 RES1    0.0000
     24 H8        -5.4299    0.9763    9.2240 H         1 RES1    0.0000
     25 C8        -3.9386    0.6203   10.4911 C.2       1 RES1    0.0000
     26 H9        -4.3485    0.1118   11.1525 H         1 RES1    0.0000
     27 C9        -0.2348    2.2576   10.1619 C.2       1 RES1    0.0000
     28 C10        0.8522    1.8201   10.7806 C.2       1 RES1    0.0000
     29 H10        1.1620    2.3135   11.5054 H         1 RES1    0.0000
     30 C11        1.6075    0.6131   10.4100 C.ar      1 RES1    0.0000
     31 C12        2.9424    0.6219   10.0061 C.ar      1 RES1    0.0000
     32 C13        3.6214   -0.5229    9.6596 C.ar      1 RES1    0.0000
     33 H11        4.5089   -0.4726    9.3846 H         1 RES1    0.0000
     34 C14        2.9966   -1.7267    9.7201 C.ar      1 RES1    0.0000
     35 H12        3.4482   -2.5035    9.4784 H         1 RES1    0.0000
     36 C15        1.6914   -1.7866   10.1429 C.ar      1 RES1    0.0000
     37 H13        1.2670   -2.6112   10.2050 H         1 RES1    0.0000
     38 C16        1.0000   -0.6378   10.4790 C.ar      1 RES1    0.0000
     39 H14        0.1135   -0.7017   10.7550 H         1 RES1    0.0000
@<TRIPOS>BOND
     1    1   12 2
     2    2    6 2
     3    3    6 2
     4    4    7 2
     5    5    7 2
     6    6   27 1
     7    7   31 1
     8    8    9 1
     9   10    8 1
    10   11    8 1
    11   12    8 1
    12   13   12 1
    13   14   13 1
    14   15   13 1
    15   16   13 1
    16   17   16 1
    17   18   16 1
    18   19   18 1
    19   21   18 2
    20   22   21 1
    21   23   21 1
    22   24   23 1
    23   25   19 1
    24   26   25 1
    25   27   16 1
    26   28   27 2
    27   29   28 1
    28   30   28 1
    29   31   30 ar
    30   32   31 ar
    31   33   32 1
    32   34   32 ar
    33   35   34 1
    34   36   34 ar
    35   37   36 1
    36   38   30 ar
    37   39   38 1
    38   23   25 2
    39   36   38 ar
@<TRIPOS>SUBSTRUCTURE
     1 RES1 1
     2 SUP2 20

@<TRIPOS>CRYSIN
  12.7090    7.9830   16.6280  90.0000 107.0400  90.0000  14 1

