# MOL2 file generated by ConQuest
# Please check atom types

@<TRIPOS>MOLECULE
BAQJIM
    43    43     2
SMALL
NO_CHARGES
****
Generated from CSD

@<TRIPOS>ATOM
      1 O1         3.6968    8.4677    0.6553 O.3       1 RES1    0.0000
      2 O2         3.7386    9.8775   -3.5445 O.2       1 RES1    0.0000
      3 O3         3.0273    7.8531   -3.5443 O.2       1 RES1    0.0000
      4 O4         5.3412    5.9649   -1.9205 O.2       1 RES1    0.0000
      5 O5         6.2191    6.7069   -3.7577 O.2       1 RES1    0.0000
      6 N1         3.2371    8.9191   -2.9957 N.pl3     1 RES1    0.0000
      7 N2         5.9050    6.8216   -2.5957 N.pl3     1 RES1    0.0000
      8 C1         3.9331    8.2303   -0.7338 C.3       1 RES1    0.0000
      9 H1         3.8484    7.2746   -0.9323 H         1 RES1    0.0000
     10 C2         5.3380    8.7004   -1.0324 C.ar      1 RES1    0.0000
     11 C3         6.2174    8.1029   -1.9295 C.ar      1 RES1    0.0000
     12 C4         7.4330    8.6720   -2.2727 C.ar      1 RES1    0.0000
     13 H2         7.9942    8.2529   -2.8839 H         1 RES1    0.0000
     14 C5         7.7991    9.8686   -1.6954 C.ar      1 RES1    0.0000
     15 H3         8.6165   10.2571   -1.9077 H         1 RES1    0.0000
     16 C6         6.9603   10.4828   -0.8107 C.ar      1 RES1    0.0000
     17 H4         7.2078   11.2915   -0.4245 H         1 RES1    0.0000
     18 C7         5.7550    9.9160   -0.4877 C.ar      1 RES1    0.0000
     19 H5         5.1976   10.3550    0.1135 H         1 RES1    0.0000
     20 C8         2.8989    9.0345   -1.5434 C.3       1 RES1    0.0000
     21 H6         2.9625    9.9775   -1.2819 H         1 RES1    0.0000
     22 C9         1.4782    8.5487   -1.2645 C.3       1 RES1    0.0000
     23 H7         1.3821    7.6420   -1.6240 H         1 RES1    0.0000
     24 C10        0.4514    9.4444   -1.9342 C.ar      1 RES1    0.0000
     25 C11        0.2241   10.7328   -1.4841 C.ar      1 RES1    0.0000
     26 H8         0.6814   11.0437   -0.7365 H         1 RES1    0.0000
     27 C12       -0.6710   11.5641   -2.1273 C.ar      1 RES1    0.0000
     28 H9        -0.8028   12.4312   -1.8180 H         1 RES1    0.0000
     29 C13       -1.3653   11.1158   -3.2161 C.ar      1 RES1    0.0000
     30 H10       -1.9735   11.6748   -3.6452 H         1 RES1    0.0000
     31 C14       -1.1617    9.8421   -3.6708 C.ar      1 RES1    0.0000
     32 H11       -1.6360    9.5338   -4.4092 H         1 RES1    0.0000
     33 C15       -0.2559    9.0106   -3.0395 C.ar      1 RES1    0.0000
     34 H12       -0.1208    8.1492   -3.3625 H         1 RES1    0.0000
     35 C16        1.3568    8.4826    0.2333 C.2       1 RES1    0.0000
     36 H13        0.5016    8.4489    0.5975 H         1 RES1    0.0000
     37 C17        2.3793    8.4680    1.0659 C.2       1 RES1    0.0000
     38 C18        2.3167    8.5079    2.5555 C.3       1 RES1    0.0000
     39 H14        1.3995    8.5079    2.8373 H         1 RES1    0.0000
     40 H15        2.7498    9.3047    2.8720 H         1 RES1    0.0000
     41 H16        2.7622    7.7371    2.9150 H         1 RES1    0.0000
     42 O6         5.1535    6.0009   -2.1410 Du        2 SUP2    0.0000
     43 O7         6.5419    6.5412   -3.5958 Du        2 SUP2    0.0000
@<TRIPOS>BOND
     1    1    8 1
     2    2    6 2
     3    3    6 2
     4    4    7 2
     5    5    7 2
     6    6   20 1
     7    7   11 1
     8    8    9 1
     9   10    8 1
    10   11   10 ar
    11   12   11 ar
    12   13   12 1
    13   14   12 ar
    14   15   14 1
    15   16   14 ar
    16   17   16 1
    17   18   10 ar
    18   19   18 1
    19   20    8 1
    20   21   20 1
    21   22   20 1
    22   23   22 1
    23   24   22 1
    24   25   24 ar
    25   26   25 1
    26   27   25 ar
    27   28   27 1
    28   29   27 ar
    29   30   29 1
    30   31   29 ar
    31   32   31 1
    32   33   24 ar
    33   34   33 1
    34   35   22 1
    35   36   35 1
    36   37    1 1
    37   38   37 1
    38   39   38 1
    39   40   38 1
    40   41   38 1
    41   16   18 ar
    42   31   33 ar
    43   35   37 2
@<TRIPOS>SUBSTRUCTURE
     1 RES1 1
     2 SUP2 42

@<TRIPOS>CRYSIN
  12.6840   14.4080    9.4790  90.0000 105.1500  90.0000  14 1

