# MOL2 file generated by ConQuest
# Please check atom types

@<TRIPOS>MOLECULE
BAQLUA
    69    70     1
SMALL
NO_CHARGES
****
Generated from CSD

@<TRIPOS>ATOM
      1 O1         4.4482    0.9836    1.1851 O.3       1 RES1    0.0000
      2 O2         8.0427   -0.2215   -0.3231 O.2       1 RES1    0.0000
      3 O3         3.8971    2.8623    4.2386 O.3       1 RES1    0.0000
      4 O4         2.7335    1.6208    5.7103 O.2       1 RES1    0.0000
      5 O5         1.2712    2.7904    3.0819 O.3       1 RES1    0.0000
      6 O6         0.6971    4.6699    2.0152 O.2       1 RES1    0.0000
      7 O7         1.5808    0.6603    1.2853 O.3       1 RES1    0.0000
      8 O8        -0.4400    1.5742    0.9071 O.2       1 RES1    0.0000
      9 O9         4.6239    0.9305   -1.6568 O.3       1 RES1    0.0000
     10 O10        4.1678   -0.8394   -2.9168 O.2       1 RES1    0.0000
     11 O11        5.5074    0.3219    5.1563 O.2       1 RES1    0.0000
     12 O12        5.0857   -0.9563    3.4575 O.2       1 RES1    0.0000
     13 N1         5.4696    0.0880    3.9671 N.pl3     1 RES1    0.0000
     14 C1         8.8678    1.8713   -1.0504 C.3       1 RES1    0.0000
     15 H1         9.1933    1.3714   -1.8020 H         1 RES1    0.0000
     16 H2         9.6050    2.2905   -0.6007 H         1 RES1    0.0000
     17 H3         8.2556    2.5451   -1.3557 H         1 RES1    0.0000
     18 C2         8.1638    0.9491   -0.1033 C.2       1 RES1    0.0000
     19 C3         7.5870    1.5711    1.1314 C.3       1 RES1    0.0000
     20 H4         6.8700    2.1694    0.8716 H         1 RES1    0.0000
     21 H5         8.2733    2.1052    1.5611 H         1 RES1    0.0000
     22 C4         7.0467    0.5682    2.1429 C.3       1 RES1    0.0000
     23 H6         6.6324   -0.1635    1.6388 H         1 RES1    0.0000
     24 C5         5.9607    1.1778    3.0445 C.3       1 RES1    0.0000
     25 H7         6.3750    1.8785    3.5907 H         1 RES1    0.0000
     26 C6         4.7711    1.7947    2.2983 C.3       1 RES1    0.0000
     27 H8         5.0532    2.6693    1.9586 H         1 RES1    0.0000
     28 C7         3.5237    2.0110    3.1522 C.3       1 RES1    0.0000
     29 H9         3.1862    1.1551    3.4875 H         1 RES1    0.0000
     30 C8         2.4730    2.6993    2.2917 C.3       1 RES1    0.0000
     31 H10        2.7811    3.6018    2.0674 H         1 RES1    0.0000
     32 C9         2.2144    1.9261    1.0071 C.3       1 RES1    0.0000
     33 H11        1.6388    2.4571    0.4175 H         1 RES1    0.0000
     34 C10        3.5324    1.6363    0.3031 C.3       1 RES1    0.0000
     35 H12        3.9271    2.4871    0.0200 H         1 RES1    0.0000
     36 C11        3.4030    0.7452   -0.9016 C.3       1 RES1    0.0000
     37 H13        3.3054   -0.1811   -0.6318 H         1 RES1    0.0000
     38 H14        2.6318    0.9988   -1.4323 H         1 RES1    0.0000
     39 C12        3.4825    2.5182    5.4916 C.2       1 RES1    0.0000
     40 C13        4.1390    3.4031    6.5009 C.3       1 RES1    0.0000
     41 H15        3.8446    3.1588    7.3813 H         1 RES1    0.0000
     42 H16        3.9028    4.3180    6.3277 H         1 RES1    0.0000
     43 H17        5.0921    3.3017    6.4431 H         1 RES1    0.0000
     44 C14        0.4684    3.8440    2.8424 C.2       1 RES1    0.0000
     45 C15       -0.7519    3.7953    3.6996 C.3       1 RES1    0.0000
     46 H18       -1.3101    4.5519    3.5041 H         1 RES1    0.0000
     47 H19       -0.4946    3.8181    4.6244 H         1 RES1    0.0000
     48 H20       -1.2365    2.9860    3.5219 H         1 RES1    0.0000
     49 C16        0.2312    0.6179    1.1792 C.2       1 RES1    0.0000
     50 C17       -0.2736   -0.7483    1.4478 C.3       1 RES1    0.0000
     51 H21       -1.2293   -0.7587    1.3635 H         1 RES1    0.0000
     52 H22       -0.0286   -1.0112    2.3383 H         1 RES1    0.0000
     53 H23        0.1098   -1.3610    0.8172 H         1 RES1    0.0000
     54 C18        4.8765    0.0880   -2.6570 C.2       1 RES1    0.0000
     55 C19        6.1212    0.4595   -3.3909 C.3       1 RES1    0.0000
     56 H24        6.2727   -0.1666   -4.1026 H         1 RES1    0.0000
     57 H25        6.8662    0.4440   -2.7858 H         1 RES1    0.0000
     58 H26        6.0249    1.3424   -3.7573 H         1 RES1    0.0000
     59 C20        8.1314   -0.0383    3.0212 C.ar      1 RES1    0.0000
     60 C21        8.2645   -1.4107    3.1078 C.ar      1 RES1    0.0000
     61 H27        7.7201   -1.9530    2.5837 H         1 RES1    0.0000
     62 C22        9.1864   -1.9955    3.9527 C.ar      1 RES1    0.0000
     63 H28        9.2707   -2.9208    3.9893 H         1 RES1    0.0000
     64 C23        9.9845   -1.1902    4.7421 C.ar      1 RES1    0.0000
     65 H29       10.6000   -1.5711    5.3262 H         1 RES1    0.0000
     66 C24        9.8647    0.1615    4.6622 C.ar      1 RES1    0.0000
     67 H30       10.4138    0.7017    5.1818 H         1 RES1    0.0000
     68 C25        8.9418    0.7411    3.8217 C.ar      1 RES1    0.0000
     69 H31        8.8648    1.6674    3.7917 H         1 RES1    0.0000
@<TRIPOS>BOND
     1    1   26 1
     2    2   18 2
     3    3   28 1
     4    4   39 2
     5    5   30 1
     6    6   44 2
     7    7   32 1
     8    8   49 2
     9    9   36 1
    10   10   54 2
    11   11   13 2
    12   12   13 2
    13   13   24 1
    14   14   15 1
    15   16   14 1
    16   17   14 1
    17   18   14 1
    18   19   18 1
    19   20   19 1
    20   21   19 1
    21   22   19 1
    22   23   22 1
    23   24   22 1
    24   25   24 1
    25   26   24 1
    26   27   26 1
    27   28   26 1
    28   29   28 1
    29   30   28 1
    30   31   30 1
    31   32   30 1
    32   33   32 1
    33   34    1 1
    34   35   34 1
    35   36   34 1
    36   37   36 1
    37   38   36 1
    38   39    3 1
    39   40   39 1
    40   41   40 1
    41   42   40 1
    42   43   40 1
    43   44    5 1
    44   45   44 1
    45   46   45 1
    46   47   45 1
    47   48   45 1
    48   49    7 1
    49   50   49 1
    50   51   50 1
    51   52   50 1
    52   53   50 1
    53   54    9 1
    54   55   54 1
    55   56   55 1
    56   57   55 1
    57   58   55 1
    58   59   22 1
    59   60   59 ar
    60   61   60 1
    61   62   60 ar
    62   63   62 1
    63   64   62 ar
    64   65   64 1
    65   66   64 ar
    66   67   66 1
    67   68   59 ar
    68   69   68 1
    69   32   34 1
    70   66   68 ar
@<TRIPOS>SUBSTRUCTURE
     1 RES1 1

@<TRIPOS>CRYSIN
  11.9930   10.3500   12.4780  90.0000 117.1500  90.0000   4 1

