# MOL2 file generated by ConQuest
# Please check atom types

@<TRIPOS>MOLECULE
BAQLIO
    69    70     1
SMALL
NO_CHARGES
****
Generated from CSD

@<TRIPOS>ATOM
      1 O1        -1.4940   -3.0797   11.9980 O.3       1 RES1    0.0000
      2 O2         1.7595   -2.7229   16.5203 O.2       1 RES1    0.0000
      3 O3        -2.7336   -5.5338   13.2148 O.2       1 RES1    0.0000
      4 O4        -1.3870   -7.0191   12.4379 O.2       1 RES1    0.0000
      5 O5         0.5744   -5.6025   10.4152 O.3       1 RES1    0.0000
      6 O6        -0.6615   -7.1462    9.3764 O.2       1 RES1    0.0000
      7 O7        -0.8199   -4.2608    8.1407 O.3       1 RES1    0.0000
      8 O8         1.3356   -4.6536    7.6664 O.2       1 RES1    0.0000
      9 O9        -1.2910   -1.5387    8.6721 O.3       1 RES1    0.0000
     10 O10       -3.4971   -1.2433    8.3937 O.2       1 RES1    0.0000
     11 O11       -2.2264   -0.5434   12.7253 O.3       1 RES1    0.0000
     12 O12       -4.3930   -0.1768   13.0291 O.2       1 RES1    0.0000
     13 N1        -1.6258   -5.9143   12.8905 N.pl3     1 RES1    0.0000
     14 C1        -0.4473   -1.9297   16.4771 C.3       1 RES1    0.0000
     15 H1        -0.2311   -1.5967   17.3518 H         1 RES1    0.0000
     16 H2        -1.1900   -2.5350   16.5407 H         1 RES1    0.0000
     17 H3        -0.6793   -1.1960   15.9037 H         1 RES1    0.0000
     18 C2         0.7316   -2.6468   15.9139 C.2       1 RES1    0.0000
     19 C3         0.5942   -3.2467   14.5344 C.3       1 RES1    0.0000
     20 H4         1.4326   -3.6687   14.2903 H         1 RES1    0.0000
     21 H5         0.4259   -2.5340   13.8975 H         1 RES1    0.0000
     22 C4        -0.5370   -4.2863   14.4289 C.3       1 RES1    0.0000
     23 H6        -1.3956   -3.8181   14.4899 H         1 RES1    0.0000
     24 C5        -0.4544   -4.9658   13.0609 C.3       1 RES1    0.0000
     25 H7         0.3682   -5.4986   13.0393 H         1 RES1    0.0000
     26 C6        -0.4277   -4.0204   11.8633 C.3       1 RES1    0.0000
     27 H8         0.4187   -3.5269   11.8836 H         1 RES1    0.0000
     28 C7        -0.5487   -4.7054   10.5003 C.3       1 RES1    0.0000
     29 H9        -1.3896   -5.2048   10.4419 H         1 RES1    0.0000
     30 C8        -0.4788   -3.6561    9.4031 C.3       1 RES1    0.0000
     31 H10        0.4155   -3.2572    9.3625 H         1 RES1    0.0000
     32 C9        -1.5283   -2.5870    9.6498 C.3       1 RES1    0.0000
     33 H11       -2.4263   -2.9624    9.5328 H         1 RES1    0.0000
     34 C10       -1.3813   -2.0015   11.0547 C.3       1 RES1    0.0000
     35 H12       -0.5129   -1.5577   11.1488 H         1 RES1    0.0000
     36 C11       -2.5011   -1.0422   11.4018 C.3       1 RES1    0.0000
     37 H13       -2.5300   -0.3125   10.7648 H         1 RES1    0.0000
     38 H14       -3.3555   -1.5011   11.3852 H         1 RES1    0.0000
     39 C12       -0.4644   -5.3138   15.5592 C.ar      1 RES1    0.0000
     40 C13       -1.4432   -5.3735   16.5203 C.ar      1 RES1    0.0000
     41 H15       -2.1872   -4.8189   16.4555 H         1 RES1    0.0000
     42 C14       -1.3295   -6.2600   17.5921 C.ar      1 RES1    0.0000
     43 H16       -1.9903   -6.2787   18.2469 H         1 RES1    0.0000
     44 C15       -0.2667   -7.0917   17.6900 C.ar      1 RES1    0.0000
     45 H17       -0.1967   -7.6843   18.4045 H         1 RES1    0.0000
     46 C16        0.7025   -7.0524   16.7250 C.ar      1 RES1    0.0000
     47 H18        1.4350   -7.6220   16.7810 H         1 RES1    0.0000
     48 C17        0.5980   -6.1771   15.6774 C.ar      1 RES1    0.0000
     49 H19        1.2644   -6.1657   15.0277 H         1 RES1    0.0000
     50 C18        0.3646   -6.8309    9.8672 C.2       1 RES1    0.0000
     51 C19        1.6072   -7.6534    9.9460 C.3       1 RES1    0.0000
     52 H20        1.4466   -8.5147    9.5532 H         1 RES1    0.0000
     53 H21        1.8608   -7.7632   10.8652 H         1 RES1    0.0000
     54 H22        2.3140   -7.2109    9.4693 H         1 RES1    0.0000
     55 C20        0.2014   -4.7392    7.3791 C.2       1 RES1    0.0000
     56 C21       -0.3977   -5.4329    6.1751 C.3       1 RES1    0.0000
     57 H23        0.3062   -5.7743    5.6195 H         1 RES1    0.0000
     58 H24       -0.9253   -4.8063    5.6742 H         1 RES1    0.0000
     59 H25       -0.9547   -6.1579    6.4675 H         1 RES1    0.0000
     60 C22       -2.3694   -0.9892    8.0644 C.2       1 RES1    0.0000
     61 C23       -1.9888   -0.0327    7.0257 C.3       1 RES1    0.0000
     62 H26       -2.7794    0.3360    6.6239 H         1 RES1    0.0000
     63 H27       -1.4681   -0.4794    6.3544 H         1 RES1    0.0000
     64 H28       -1.4692    0.6744    7.4160 H         1 RES1    0.0000
     65 C24       -3.2820   -0.1193   13.4156 C.2       1 RES1    0.0000
     66 C25       -2.8754    0.4387   14.7430 C.3       1 RES1    0.0000
     67 H29       -3.6550    0.7415   15.2146 H         1 RES1    0.0000
     68 H30       -2.2761    1.1767   14.6095 H         1 RES1    0.0000
     69 H31       -2.4350   -0.2420   15.2553 H         1 RES1    0.0000
@<TRIPOS>BOND
     1    1   26 1
     2    2   18 2
     3    3   13 2
     4    4   13 2
     5    5   28 1
     6    6   50 2
     7    7   30 1
     8    8   55 2
     9    9   32 1
    10   10   60 2
    11   11   36 1
    12   12   65 2
    13   13   24 1
    14   14   15 1
    15   16   14 1
    16   17   14 1
    17   18   14 1
    18   19   18 1
    19   20   19 1
    20   21   19 1
    21   22   19 1
    22   23   22 1
    23   24   22 1
    24   25   24 1
    25   26   24 1
    26   27   26 1
    27   28   26 1
    28   29   28 1
    29   30   28 1
    30   31   30 1
    31   32   30 1
    32   33   32 1
    33   34    1 1
    34   35   34 1
    35   36   34 1
    36   37   36 1
    37   38   36 1
    38   39   22 1
    39   40   39 ar
    40   41   40 1
    41   42   40 ar
    42   43   42 1
    43   44   42 ar
    44   45   44 1
    45   46   44 ar
    46   47   46 1
    47   48   39 ar
    48   49   48 1
    49   50    5 1
    50   51   50 1
    51   52   51 1
    52   53   51 1
    53   54   51 1
    54   55    7 1
    55   56   55 1
    56   57   56 1
    57   58   56 1
    58   59   56 1
    59   60    9 1
    60   61   60 1
    61   62   61 1
    62   63   61 1
    63   64   61 1
    64   65   11 1
    65   66   65 1
    66   67   66 1
    67   68   66 1
    68   69   66 1
    69   32   34 1
    70   46   48 ar
@<TRIPOS>SUBSTRUCTURE
     1 RES1 1

@<TRIPOS>CRYSIN
   5.6520    9.4880   13.6590 107.5900 100.4700  94.4200   1 1

