# MOL2 file generated by ConQuest
# Please check atom types

@<TRIPOS>MOLECULE
BAQMUB
    74    76     2
SMALL
NO_CHARGES
****
Generated from CSD

@<TRIPOS>ATOM
      1 O1         1.5422    1.3668   11.7336 O.2       1 RES1    0.0000
      2 O2         4.9451    0.2857   15.0182 O.3       1 RES1    0.0000
      3 O3         5.8171   -0.0744   11.5643 O.2       1 RES1    0.0000
      4 O4         5.2212   -1.6062   10.2019 O.2       1 RES1    0.0000
      5 O5         0.6171   -1.3286    9.4677 O.3       1 RES1    0.0000
      6 N1         4.9892   -0.8530   11.1368 N.pl3     1 RES1    0.0000
      7 C1         2.5589    3.5039   11.7858 C.3       1 RES1    0.0000
      8 H1         1.7772    3.7690   11.2965 H         1 RES1    0.0000
      9 H2         3.3435    3.6930   11.2643 H         1 RES1    0.0000
     10 H3         2.5993    3.9894   12.6126 H         1 RES1    0.0000
     11 C2         2.4937    2.0460   12.0704 C.2       1 RES1    0.0000
     12 C3         3.6380    1.4511   12.8315 C.3       1 RES1    0.0000
     13 H4         3.6935    1.8831   13.6982 H         1 RES1    0.0000
     14 H5         4.4618    1.6417   12.3550 H         1 RES1    0.0000
     15 C4         3.5320   -0.0701   13.0440 C.3       1 RES1    0.0000
     16 H6         2.6224   -0.2298   13.3711 H         1 RES1    0.0000
     17 C5         3.6635   -0.8919   11.7833 C.2       1 RES1    0.0000
     18 C6         2.7310   -1.6038   11.1690 C.2       1 RES1    0.0000
     19 H7         2.9677   -1.9969   10.3590 H         1 RES1    0.0000
     20 C7         4.4426   -0.5857   14.1103 C.2       1 RES1    0.0000
     21 C8         4.7703   -1.8212   14.4104 C.2       1 RES1    0.0000
     22 H8         4.5051   -2.5985   13.9738 H         1 RES1    0.0000
     23 C9         5.6379   -1.7105   15.5732 C.2       1 RES1    0.0000
     24 H9         6.0827   -2.4058   16.0021 H         1 RES1    0.0000
     25 C10        5.6703   -0.4866   15.8875 C.2       1 RES1    0.0000
     26 H10        6.1309   -0.1502   16.6228 H         1 RES1    0.0000
     27 C11        1.3618   -1.8313   11.6403 C.ar      1 RES1    0.0000
     28 C12        0.3031   -1.6732   10.7453 C.ar      1 RES1    0.0000
     29 C13       -1.0050   -1.8334   11.1703 C.ar      1 RES1    0.0000
     30 H11       -1.7069   -1.6864   10.5779 H         1 RES1    0.0000
     31 C14       -1.2656   -2.2053   12.4555 C.ar      1 RES1    0.0000
     32 H12       -2.1461   -2.3042   12.7375 H         1 RES1    0.0000
     33 C15       -0.2339   -2.4368   13.3428 C.ar      1 RES1    0.0000
     34 H13       -0.4159   -2.7268   14.2082 H         1 RES1    0.0000
     35 C16        1.0679   -2.2381   12.9384 C.ar      1 RES1    0.0000
     36 H14        1.7611   -2.3764   13.5424 H         1 RES1    0.0000
     37 O6        -1.5937   -1.0391    7.7831 O.2       2 RES2    0.0000
     38 O7        -4.6428    2.2442    5.3289 O.3       2 RES2    0.0000
     39 O8        -5.8936    0.2768    8.0152 O.2       2 RES2    0.0000
     40 O9        -5.3466    1.7946    9.4099 O.2       2 RES2    0.0000
     41 O10       -0.6880    1.5533   10.1178 O.3       2 RES2    0.0000
     42 N2        -5.0890    1.0722    8.4595 N.pl3     2 RES2    0.0000
     43 C17       -2.6158   -3.1717    7.7048 C.3       2 RES2    0.0000
     44 H15       -1.8406   -3.4417    8.2032 H         2 RES2    0.0000
     45 H16       -2.6476   -3.6552    6.8755 H         2 RES2    0.0000
     46 H17       -3.4067   -3.3602    8.2161 H         2 RES2    0.0000
     47 C18       -2.5422   -1.7141    7.4254 C.2       2 RES2    0.0000
     48 C19       -3.6719   -1.1174    6.6540 C.3       2 RES2    0.0000
     49 H18       -4.5059   -1.3602    7.0867 H         2 RES2    0.0000
     50 H19       -3.6796   -1.5047    5.7654 H         2 RES2    0.0000
     51 C20       -3.6179    0.4105    6.5227 C.3       2 RES2    0.0000
     52 H20       -2.7192    0.6182    6.1917 H         2 RES2    0.0000
     53 C21       -3.7603    1.1625    7.8220 C.2       2 RES2    0.0000
     54 C22       -2.8412    1.8559    8.4634 C.2       2 RES2    0.0000
     55 H21       -3.0762    2.1927    9.2978 H         2 RES2    0.0000
     56 C23       -4.5611    0.9074    5.4757 C.2       2 RES2    0.0000
     57 C24       -5.3166    0.2698    4.6103 C.2       2 RES2    0.0000
     58 H22       -5.4008   -0.6510    4.5073 H         2 RES2    0.0000
     59 C25       -5.9848    1.2925    3.8556 C.2       2 RES2    0.0000
     60 H23       -6.6104    1.1647    3.1796 H         2 RES2    0.0000
     61 C26       -5.5464    2.4227    4.2999 C.2       2 RES2    0.0000
     62 H24       -5.8065    3.2519    3.9690 H         2 RES2    0.0000
     63 C27       -1.4813    2.1489    7.9894 C.ar      2 RES2    0.0000
     64 C28       -0.3999    1.9660    8.8536 C.ar      2 RES2    0.0000
     65 C29        0.8989    2.1626    8.4106 C.ar      2 RES2    0.0000
     66 H25        1.6164    1.9962    8.9785 H         2 RES2    0.0000
     67 C30        1.1230    2.6042    7.1292 C.ar      2 RES2    0.0000
     68 H26        1.9948    2.7306    6.8304 H         2 RES2    0.0000
     69 C31        0.0635    2.8606    6.2805 C.ar      2 RES2    0.0000
     70 H27        0.2203    3.1897    5.4255 H         2 RES2    0.0000
     71 C32       -1.2201    2.6300    6.7042 C.ar      2 RES2    0.0000
     72 H28       -1.9299    2.7957    6.1260 H         2 RES2    0.0000
     73 H29       -0.0933   -1.1556    9.0145 H         1 RES1    0.0000
     74 H30        0.0230    1.4688   10.5341 H         2 RES2    0.0000
@<TRIPOS>BOND
     1    1   11 2
     2    2   20 1
     3    3    6 2
     4    4    6 2
     5    5   28 1
     6    6   17 1
     7    7    8 1
     8    9    7 1
     9   10    7 1
    10   11    7 1
    11   12   11 1
    12   13   12 1
    13   14   12 1
    14   15   12 1
    15   16   15 1
    16   17   15 1
    17   18   17 2
    18   19   18 1
    19   20   15 1
    20   21   20 2
    21   22   21 1
    22   23   21 1
    23   24   23 1
    24   25    2 1
    25   26   25 1
    26   27   18 1
    27   28   27 ar
    28   29   28 ar
    29   30   29 1
    30   31   29 ar
    31   32   31 1
    32   33   31 ar
    33   34   33 1
    34   35   27 ar
    35   36   35 1
    36   37   47 2
    37   38   56 1
    38   39   42 2
    39   40   42 2
    40   41   64 1
    41   42   53 1
    42   43   44 1
    43   45   43 1
    44   46   43 1
    45   47   43 1
    46   48   47 1
    47   49   48 1
    48   50   48 1
    49   51   48 1
    50   52   51 1
    51   53   51 1
    52   54   53 2
    53   55   54 1
    54   56   51 1
    55   57   56 2
    56   58   57 1
    57   59   57 1
    58   60   59 1
    59   61   38 1
    60   62   61 1
    61   63   54 1
    62   64   63 ar
    63   65   64 ar
    64   66   65 1
    65   67   65 ar
    66   68   67 1
    67   69   67 ar
    68   70   69 1
    69   71   63 ar
    70   72   71 1
    71   73    5 1
    72   74   41 1
    73   23   25 2
    74   33   35 ar
    75   59   61 2
    76   69   71 ar
@<TRIPOS>SUBSTRUCTURE
     1 RES1 1
     2 RES2 37

@<TRIPOS>CRYSIN
   9.6540   12.6350   13.5570 102.1500  98.8300 108.2500   2 1

