# MOL2 file generated by ConQuest
# Please check atom types

@<TRIPOS>MOLECULE
BAQMIP
    63    64     1
SMALL
NO_CHARGES
****
Generated from CSD

@<TRIPOS>ATOM
      1 O1         2.3757    5.7608    8.2780 O.3       1 RES1    0.0000
      2 O2         2.6397    6.0945   12.3846 O.2       1 RES1    0.0000
      3 O3         2.7255    3.9329   12.4517 O.2       1 RES1    0.0000
      4 O4         5.0878    5.2701   10.6603 O.3       1 RES1    0.0000
      5 O5         5.7127    3.1512   10.6106 O.2       1 RES1    0.0000
      6 O6         6.4690    5.3774    8.1166 O.3       1 RES1    0.0000
      7 O7         7.3210    7.3381    7.4529 O.2       1 RES1    0.0000
      8 O8         4.3527    4.8705    6.4140 O.3       1 RES1    0.0000
      9 O9         5.8274    5.5449    4.8636 O.2       1 RES1    0.0000
     10 O10        0.8576    7.2134    6.3509 O.3       1 RES1    0.0000
     11 O11        1.6707    9.2307    5.9049 O.2       1 RES1    0.0000
     12 O12       -1.5226    8.1418    9.9340 O.2       1 RES1    0.0000
     13 N1         2.5461    4.9952   11.8673 N.pl3     1 RES1    0.0000
     14 C1         2.0917    4.9213   10.4248 C.3       1 RES1    0.0000
     15 H1         2.1697    3.9883   10.1364 H         1 RES1    0.0000
     16 C2         3.0184    5.7585    9.5380 C.3       1 RES1    0.0000
     17 H2         3.0685    6.6730    9.8838 H         1 RES1    0.0000
     18 C3         4.4374    5.1904    9.3672 C.3       1 RES1    0.0000
     19 H3         4.3951    4.2585    9.0664 H         1 RES1    0.0000
     20 C4         5.1981    6.0241    8.3667 C.3       1 RES1    0.0000
     21 H4         5.3596    6.9132    8.7464 H         1 RES1    0.0000
     22 C5         4.4106    6.1742    7.0635 C.3       1 RES1    0.0000
     23 H5         4.8606    6.8173    6.4774 H         1 RES1    0.0000
     24 C6         3.0039    6.6291    7.3353 C.3       1 RES1    0.0000
     25 H6         3.0318    7.5344    7.7093 H         1 RES1    0.0000
     26 C7         2.1318    6.6418    6.0899 C.3       1 RES1    0.0000
     27 H7         2.5751    7.1511    5.3921 H         1 RES1    0.0000
     28 H8         2.0171    5.7342    5.7680 H         1 RES1    0.0000
     29 C8         0.6170    5.3116   10.3369 C.3       1 RES1    0.0000
     30 H9         0.3230    5.0668    9.4347 H         1 RES1    0.0000
     31 C9         0.3419    6.8127   10.4834 C.3       1 RES1    0.0000
     32 H10        0.7184    7.1280   11.3200 H         1 RES1    0.0000
     33 H11        0.7763    7.2919    9.7605 H         1 RES1    0.0000
     34 C10       -1.1361    7.1072   10.4602 C.2       1 RES1    0.0000
     35 C11       -2.0438    6.2181   11.1928 C.3       1 RES1    0.0000
     36 H12       -2.9505    6.3774   10.8882 H         1 RES1    0.0000
     37 H13       -2.0071    6.4455   12.1355 H         1 RES1    0.0000
     38 C12       -1.7230    4.7193   11.0328 C.3       1 RES1    0.0000
     39 H14       -2.2499    4.1996   11.6593 H         1 RES1    0.0000
     40 H15       -1.9469    4.4283   10.1344 H         1 RES1    0.0000
     41 C13       -0.2294    4.4929   11.2969 C.3       1 RES1    0.0000
     42 H16       -0.0200    4.7458   12.2088 H         1 RES1    0.0000
     43 H17       -0.0200    3.5519   11.1890 H         1 RES1    0.0000
     44 C14        5.6314    4.1662   11.1870 C.2       1 RES1    0.0000
     45 C15        6.1047    4.3913   12.5924 C.3       1 RES1    0.0000
     46 H18        5.9299    5.3001   12.8469 H         1 RES1    0.0000
     47 H19        7.0481    4.2204   12.6444 H         1 RES1    0.0000
     48 H20        5.6392    3.7967   13.1862 H         1 RES1    0.0000
     49 C16        7.4458    6.1476    7.5763 C.2       1 RES1    0.0000
     50 C17        8.6152    5.3312    7.1733 C.3       1 RES1    0.0000
     51 H21        8.4504    4.4098    7.3873 H         1 RES1    0.0000
     52 H22        9.3949    5.6349    7.6418 H         1 RES1    0.0000
     53 H23        8.7556    5.4190    6.2268 H         1 RES1    0.0000
     54 C18        5.1346    4.6835    5.3304 C.2       1 RES1    0.0000
     55 C19        4.9876    3.3232    4.7848 C.3       1 RES1    0.0000
     56 H24        4.3795    2.8232    5.3342 H         1 RES1    0.0000
     57 H25        5.8430    2.8879    4.7752 H         1 RES1    0.0000
     58 H26        4.6445    3.3729    3.8903 H         1 RES1    0.0000
     59 C20        0.7596    8.5436    6.2114 C.2       1 RES1    0.0000
     60 C21       -0.6371    9.0263    6.4948 C.3       1 RES1    0.0000
     61 H27       -1.1940    8.2780    6.7242 H         1 RES1    0.0000
     62 H28       -0.9902    9.4616    5.7159 H         1 RES1    0.0000
     63 H29       -0.6193    9.6475    7.2273 H         1 RES1    0.0000
@<TRIPOS>BOND
     1    1   16 1
     2    2   13 2
     3    3   13 2
     4    4   18 1
     5    5   44 2
     6    6   20 1
     7    7   49 2
     8    8   22 1
     9    9   54 2
    10   10   26 1
    11   11   59 2
    12   12   34 2
    13   13   14 1
    14   14   15 1
    15   16   14 1
    16   17   16 1
    17   18   16 1
    18   19   18 1
    19   20   18 1
    20   21   20 1
    21   22   20 1
    22   23   22 1
    23   24    1 1
    24   25   24 1
    25   26   24 1
    26   27   26 1
    27   28   26 1
    28   29   14 1
    29   30   29 1
    30   31   29 1
    31   32   31 1
    32   33   31 1
    33   34   31 1
    34   35   34 1
    35   36   35 1
    36   37   35 1
    37   38   35 1
    38   39   38 1
    39   40   38 1
    40   41   29 1
    41   42   41 1
    42   43   41 1
    43   44    4 1
    44   45   44 1
    45   46   45 1
    46   47   45 1
    47   48   45 1
    48   49    6 1
    49   50   49 1
    50   51   50 1
    51   52   50 1
    52   53   50 1
    53   54    8 1
    54   55   54 1
    55   56   55 1
    56   57   55 1
    57   58   55 1
    58   59   10 1
    59   60   59 1
    60   61   60 1
    61   62   60 1
    62   63   60 1
    63   22   24 1
    64   38   41 1
@<TRIPOS>SUBSTRUCTURE
     1 RES1 1

@<TRIPOS>CRYSIN
  11.1380   11.5470   19.2780  90.0000  90.0000  90.0000  19 1

