# MOL2 file generated by ConQuest
# Please check atom types

@<TRIPOS>MOLECULE
BAQMEL
    48    48     2
SMALL
NO_CHARGES
****
Generated from CSD

@<TRIPOS>ATOM
      1 O1         0.2070   16.6291    2.1252 O.3       1 RES1    0.0000
      2 O2        -0.5685   20.2603    4.1634 O.2       1 RES1    0.0000
      3 O3         4.3262   17.1090    1.3237 O.2       1 RES1    0.0000
      4 O4         4.5099   15.7035    2.9329 O.2       1 RES1    0.0000
      5 O5         3.6004   15.6607   -1.8825 O.2       1 RES1    0.0000
      6 O6         1.9294   16.8455   -1.2695 O.2       1 RES1    0.0000
      7 O7         2.8164   15.4175   -2.2978 Du        2 SUP2    0.0000
      8 O8         2.7257   17.0063   -0.9619 Du        2 SUP2    0.0000
      9 N1         3.8887   16.5302    2.3031 N.pl3     1 RES1    0.0000
     10 N2         2.6145   15.8527   -1.1916 N.pl3     1 RES1    0.0000
     11 C1         1.5269   16.5277    1.5787 C.3       1 RES1    0.0000
     12 H1         1.6402   17.1831    0.8603 H         1 RES1    0.0000
     13 C2         1.6735   15.1241    1.0214 C.ar      1 RES1    0.0000
     14 C3         2.2301   14.8149   -0.2137 C.ar      1 RES1    0.0000
     15 C4         2.4299   13.5138   -0.6305 C.ar      1 RES1    0.0000
     16 H2         2.8267   13.3398   -1.4535 H         1 RES1    0.0000
     17 C5         2.0385   12.4907    0.1779 C.ar      1 RES1    0.0000
     18 H3         2.1490   11.6101   -0.1038 H         1 RES1    0.0000
     19 C6         1.4893   12.7449    1.3939 C.ar      1 RES1    0.0000
     20 H4         1.2263   12.0384    1.9397 H         1 RES1    0.0000
     21 C7         1.3193   14.0496    1.8214 C.ar      1 RES1    0.0000
     22 H5         0.9600   14.2101    2.6642 H         1 RES1    0.0000
     23 C8         2.4874   16.8416    2.7245 C.3       1 RES1    0.0000
     24 H6         2.2537   16.2934    3.5031 H         1 RES1    0.0000
     25 C9         2.3596   18.3226    3.0879 C.3       1 RES1    0.0000
     26 H7         2.7622   18.8492    2.3665 H         1 RES1    0.0000
     27 C10        3.1172   18.6182    4.3718 C.ar      1 RES1    0.0000
     28 C11        4.3947   19.1559    4.3215 C.ar      1 RES1    0.0000
     29 H8         4.7819   19.3382    3.4955 H         1 RES1    0.0000
     30 C12        5.0994   19.4239    5.4787 C.ar      1 RES1    0.0000
     31 H9         5.9635   19.7637    5.4299 H         1 RES1    0.0000
     32 C13        4.5221   19.1882    6.7032 C.ar      1 RES1    0.0000
     33 H10        4.9903   19.3824    7.4834 H         1 RES1    0.0000
     34 C14        3.2502   18.6649    6.7742 C.ar      1 RES1    0.0000
     35 H11        2.8589   18.5038    7.6032 H         1 RES1    0.0000
     36 C15        2.5565   18.3784    5.6184 C.ar      1 RES1    0.0000
     37 H12        1.7013   18.0203    5.6742 H         1 RES1    0.0000
     38 C16        0.8839   18.6721    3.1611 C.2       1 RES1    0.0000
     39 C17        0.5183   20.0240    3.6680 C.2       1 RES1    0.0000
     40 C18        1.5078   21.1292    3.5344 C.3       1 RES1    0.0000
     41 H13        1.1388   21.9355    3.9008 H         1 RES1    0.0000
     42 H14        1.7140   21.2640    2.6062 H         1 RES1    0.0000
     43 H15        2.3103   20.8993    4.0092 H         1 RES1    0.0000
     44 C19       -0.0786   17.8075    2.7794 C.2       1 RES1    0.0000
     45 C20       -1.5459   17.9349    2.9398 C.3       1 RES1    0.0000
     46 H16       -1.9770   17.1610    2.5688 H         1 RES1    0.0000
     47 H17       -1.8515   18.7221    2.4817 H         1 RES1    0.0000
     48 H18       -1.7616   18.0037    3.8734 H         1 RES1    0.0000
@<TRIPOS>BOND
     1    1   11 1
     2    2   39 2
     3    3    9 2
     4    4    9 2
     5    5   10 2
     6    6   10 2
     7    9   23 1
     8   10   14 1
     9   11   12 1
    10   13   11 1
    11   14   13 ar
    12   15   14 ar
    13   16   15 1
    14   17   15 ar
    15   18   17 1
    16   19   17 ar
    17   20   19 1
    18   21   13 ar
    19   22   21 1
    20   23   11 1
    21   24   23 1
    22   25   23 1
    23   26   25 1
    24   27   25 1
    25   28   27 ar
    26   29   28 1
    27   30   28 ar
    28   31   30 1
    29   32   30 ar
    30   33   32 1
    31   34   32 ar
    32   35   34 1
    33   36   27 ar
    34   37   36 1
    35   38   25 1
    36   39   38 1
    37   40   39 1
    38   41   40 1
    39   42   40 1
    40   43   40 1
    41   44    1 1
    42   45   44 1
    43   46   45 1
    44   47   45 1
    45   48   45 1
    46   19   21 ar
    47   34   36 ar
    48   38   44 2
@<TRIPOS>SUBSTRUCTURE
     1 RES1 1
     2 SUP2 7

@<TRIPOS>CRYSIN
   9.0530   27.6300    8.3210  90.0000 113.4500  90.0000  14 1

