# MOL2 file generated by ConQuest
# Please check atom types

@<TRIPOS>MOLECULE
BAQNAI
    32    32     1
SMALL
NO_CHARGES
****
Generated from CSD

@<TRIPOS>ATOM
      1 O1         3.7115    3.1162    1.8616 O.3       1 RES1    0.0000
      2 O2         4.2426    1.1872    2.8654 O.2       1 RES1    0.0000
      3 O3         0.5796    2.9276    1.7586 O.2       1 RES1    0.0000
      4 O4         2.2485    0.8688    8.4590 O.2       1 RES1    0.0000
      5 N1         2.1328    1.4796    7.4101 N.pl3     1 RES1    0.0000
      6 C1         2.1583    2.2457    3.3556 C.2       1 RES1    0.0000
      7 O5         3.0267    2.1470    6.9127 O.2       1 RES1    0.0000
      8 C2         5.1472    4.4015    0.4853 C.3       1 RES1    0.0000
      9 H1         6.0064    4.4320    0.0571 H         1 RES1    0.0000
     10 H2         5.0660    5.1403    1.0936 H         1 RES1    0.0000
     11 H3         4.4565    4.4566   -0.1793 H         1 RES1    0.0000
     12 C3         5.0150    3.1399    1.2255 C.3       1 RES1    0.0000
     13 H4         5.1017    2.3883    0.6180 H         1 RES1    0.0000
     14 H5         5.7126    3.0740    1.8954 H         1 RES1    0.0000
     15 C4         3.4709    2.0866    2.6734 C.2       1 RES1    0.0000
     16 C5         1.9656    1.5635    4.4809 C.2       1 RES1    0.0000
     17 H6         2.6682    1.0228    4.7596 H         1 RES1    0.0000
     18 C6         1.1864    3.2225    2.7552 C.2       1 RES1    0.0000
     19 C7         1.0286    4.5322    3.4233 C.3       1 RES1    0.0000
     20 H7         0.3841    5.0589    2.9451 H         1 RES1    0.0000
     21 H8         1.8718    4.9907    3.4339 H         1 RES1    0.0000
     22 H9         0.7254    4.3979    4.3236 H         1 RES1    0.0000
     23 C8         0.7658    1.5675    5.3365 C.ar      1 RES1    0.0000
     24 C9         0.8341    1.4389    6.7271 C.ar      1 RES1    0.0000
     25 C10       -0.2830    1.3313    7.5289 C.ar      1 RES1    0.0000
     26 H10       -0.1952    1.2425    8.4511 H         1 RES1    0.0000
     27 C11       -1.5222    1.3563    6.9504 C.ar      1 RES1    0.0000
     28 H11       -2.2840    1.2822    7.4788 H         1 RES1    0.0000
     29 C12       -1.6406    1.4910    5.5895 C.ar      1 RES1    0.0000
     30 H12       -2.4841    1.5247    5.2001 H         1 RES1    0.0000
     31 C13       -0.5160    1.5777    4.7957 C.ar      1 RES1    0.0000
     32 H13       -0.6172    1.6440    3.8734 H         1 RES1    0.0000
@<TRIPOS>BOND
     1    1   12 1
     2    2   15 2
     3    3   18 2
     4    4    5 2
     5    5    7 2
     6    6   15 1
     7    8    9 1
     8   10    8 1
     9   11    8 1
    10   12    8 1
    11   13   12 1
    12   14   12 1
    13   15    1 1
    14   16    6 2
    15   17   16 1
    16   18    6 1
    17   19   18 1
    18   20   19 1
    19   21   19 1
    20   22   19 1
    21   23   16 1
    22   24    5 1
    23   25   24 ar
    24   26   25 1
    25   27   25 ar
    26   28   27 1
    27   29   27 ar
    28   30   29 1
    29   31   23 ar
    30   32   31 1
    31   23   24 ar
    32   29   31 ar
@<TRIPOS>SUBSTRUCTURE
     1 RES1 1

@<TRIPOS>CRYSIN
   7.8560   18.9400    8.8010  90.0000  92.6900  90.0000  14 1

