# MOL2 file generated by ConQuest
# Please check atom types

@<TRIPOS>MOLECULE
BAQSIW
    48    51     1
SMALL
NO_CHARGES
****
Generated from CSD

@<TRIPOS>ATOM
      1 N1         2.7948    2.3302   32.1960 N.3       1 RES1    0.0000
      2 O1         4.1808   -1.9689   30.5369 O.2       1 RES1    0.0000
      3 O2         3.1237   -0.1249   29.8875 O.3       1 RES1    0.0000
      4 O3         5.1774    3.2950   28.2945 O.3       1 RES1    0.0000
      5 O4         3.2909    2.0804   28.1822 O.3       1 RES1    0.0000
      6 O5         2.6505    2.9387   30.8819 O.3       1 RES1    0.0000
      7 O6         4.4358    1.0065   34.4336 O.3       1 RES1    0.0000
      8 C1         1.8021   -1.9847   30.4117 C.3       1 RES1    0.0000
      9 H1         1.1499   -1.3395   30.1286 H         1 RES1    0.0000
     10 H2         1.6371   -2.2269   31.3249 H         1 RES1    0.0000
     11 H3         1.7400   -2.7664   29.8578 H         1 RES1    0.0000
     12 C2         3.1550   -1.4028   30.2928 C.2       1 RES1    0.0000
     13 C3         4.3821    0.5594   29.6833 C.3       1 RES1    0.0000
     14 H4         5.1400   -0.0499   29.6383 H         1 RES1    0.0000
     15 C4         4.3424    1.1197   28.2744 C.3       1 RES1    0.0000
     16 H5         4.2339    0.3497   27.6224 H         1 RES1    0.0000
     17 C5         5.5751    1.9456   27.9663 C.3       1 RES1    0.0000
     18 H6         5.7999    1.8898   27.0407 H         1 RES1    0.0000
     19 H7         6.4264    1.6650   28.5005 H         1 RES1    0.0000
     20 C6         3.8603    3.1985   28.8085 C.3       1 RES1    0.0000
     21 H8         3.3111    4.0376   28.5444 H         1 RES1    0.0000
     22 C7         3.9615    2.9962   30.3108 C.3       1 RES1    0.0000
     23 H9         4.4352    3.7629   30.7286 H         1 RES1    0.0000
     24 C8         4.6008    1.6775   30.7161 C.3       1 RES1    0.0000
     25 H10        5.5035    1.8065   30.8091 H         1 RES1    0.0000
     26 C9         3.9666    1.4086   32.0976 C.3       1 RES1    0.0000
     27 H11        3.6075    0.5078   32.1554 H         1 RES1    0.0000
     28 C10        3.1992    3.3708   33.1916 C.3       1 RES1    0.0000
     29 H12        3.0538    4.1625   32.8250 H         1 RES1    0.0000
     30 H13        2.6511    3.2967   33.9555 H         1 RES1    0.0000
     31 C11        4.6495    3.1985   33.5120 C.3       1 RES1    0.0000
     32 H14        4.8044    3.4715   34.4238 H         1 RES1    0.0000
     33 H15        5.2015    3.8295   32.8872 H         1 RES1    0.0000
     34 C12        4.8765    1.7458   33.2881 C.3       1 RES1    0.0000
     35 H16        5.8894    1.4569   33.0555 H         1 RES1    0.0000
     36 C13        5.3335    0.0358   34.9927 C.3       1 RES1    0.0000
     37 C14        4.5382   -0.5703   36.1316 C.3       1 RES1    0.0000
     38 H17        3.7792   -1.0398   35.7774 H         1 RES1    0.0000
     39 H18        4.2373    0.1274   36.7177 H         1 RES1    0.0000
     40 H19        5.0935   -1.1821   36.6189 H         1 RES1    0.0000
     41 C15        6.4946    0.7509   35.6293 C.3       1 RES1    0.0000
     42 H20        6.1663    1.3961   36.2604 H         1 RES1    0.0000
     43 H21        7.0058    1.1988   34.9506 H         1 RES1    0.0000
     44 H22        7.0522    0.1149   36.0848 H         1 RES1    0.0000
     45 C16        5.7932   -0.9657   33.9990 C.3       1 RES1    0.0000
     46 H23        5.0326   -1.4028   33.6116 H         1 RES1    0.0000
     47 H24        6.3486   -1.6167   34.4347 H         1 RES1    0.0000
     48 H25        6.2966   -0.5253   33.3116 H         1 RES1    0.0000
@<TRIPOS>BOND
     1    1    6 1
     2    2   12 2
     3    3   12 1
     4    4   17 1
     5    5   15 1
     6    6   22 1
     7    7   34 1
     8    8    9 1
     9   10    8 1
    10   11    8 1
    11   12    8 1
    12   13    3 1
    13   14   13 1
    14   15   13 1
    15   16   15 1
    16   17   15 1
    17   18   17 1
    18   19   17 1
    19   20    4 1
    20   21   20 1
    21   22   20 1
    22   23   22 1
    23   24   13 1
    24   25   24 1
    25   26    1 1
    26   27   26 1
    27   28    1 1
    28   29   28 1
    29   30   28 1
    30   31   28 1
    31   32   31 1
    32   33   31 1
    33   34   26 1
    34   35   34 1
    35   36    7 1
    36   37   36 1
    37   38   37 1
    38   39   37 1
    39   40   37 1
    40   41   36 1
    41   42   41 1
    42   43   41 1
    43   44   41 1
    44   45   36 1
    45   46   45 1
    46   47   45 1
    47   48   45 1
    48    5   20 1
    49   22   24 1
    50   24   26 1
    51   31   34 1
@<TRIPOS>SUBSTRUCTURE
     1 RES1 1

@<TRIPOS>CRYSIN
   5.5930    8.3250   36.5860  90.0000  90.0000  90.0000  19 1

