# MOL2 file generated by ConQuest
# Please check atom types

@<TRIPOS>MOLECULE
BAQSES
    37    41     1
SMALL
NO_CHARGES
****
Generated from CSD

@<TRIPOS>ATOM
      1 N1        -7.7323   -3.1387   -5.5345 N.3       1 RES1    0.0000
      2 O1       -10.6215   -2.6471   -2.2348 O.2       1 RES1    0.0000
      3 O2        -7.2188   -2.1350   -1.8437 O.3       1 RES1    0.0000
      4 O3        -6.9832   -4.2156   -1.0099 O.3       1 RES1    0.0000
      5 O4        -6.7240   -3.3710   -4.5269 O.3       1 RES1    0.0000
      6 O5       -10.3537   -2.0550   -6.5868 O.3       1 RES1    0.0000
      7 O6        -9.6996   -3.7821   -7.8742 O.3       1 RES1    0.0000
      8 C1        -6.6954   -3.4095   -2.1386 C.3       1 RES1    0.0000
      9 H1        -5.6914   -3.3335   -2.3469 H         1 RES1    0.0000
     10 C2        -7.3602   -3.9788   -3.3772 C.3       1 RES1    0.0000
     11 H2        -7.2124   -4.9779   -3.4225 H         1 RES1    0.0000
     12 C3        -8.8448   -3.6284   -3.4779 C.3       1 RES1    0.0000
     13 H3        -9.3261   -4.3881   -3.5626 H         1 RES1    0.0000
     14 C4        -9.4247   -2.8741   -2.3049 C.2       1 RES1    0.0000
     15 C5        -8.4692   -2.4559   -1.2342 C.3       1 RES1    0.0000
     16 H4        -8.7120   -1.6265   -0.7521 H         1 RES1    0.0000
     17 C6        -8.1150   -3.6472   -0.3482 C.3       1 RES1    0.0000
     18 H5        -7.8879   -3.3603    0.5502 H         1 RES1    0.0000
     19 H6        -8.8484   -4.2808   -0.3029 H         1 RES1    0.0000
     20 C7        -8.9177   -2.7606   -4.7742 C.3       1 RES1    0.0000
     21 H7        -8.9691   -1.8589   -4.5681 H         1 RES1    0.0000
     22 C8       -10.0881   -3.1029   -5.6575 C.3       1 RES1    0.0000
     23 H8       -10.8186   -3.2620   -5.1451 H         1 RES1    0.0000
     24 C9        -9.5604   -4.2647   -6.5472 C.3       1 RES1    0.0000
     25 H9        -9.9974   -5.0047   -6.4803 H         1 RES1    0.0000
     26 C10       -8.0943   -4.4167   -6.1904 C.3       1 RES1    0.0000
     27 H10       -7.9629   -5.1638   -5.5860 H         1 RES1    0.0000
     28 H11       -7.5587   -4.5597   -6.9872 H         1 RES1    0.0000
     29 C11      -10.5830   -2.6695   -7.8575 C.3       1 RES1    0.0000
     30 C12      -12.0233   -3.1038   -7.9853 C.3       1 RES1    0.0000
     31 H12      -12.5924   -2.3308   -7.9721 H         1 RES1    0.0000
     32 H13      -12.2497   -3.6812   -7.2530 H         1 RES1    0.0000
     33 H14      -12.1433   -3.5757   -8.8128 H         1 RES1    0.0000
     34 C13      -10.1631   -1.7302   -8.9479 C.3       1 RES1    0.0000
     35 H15      -10.7472   -0.9679   -8.9570 H         1 RES1    0.0000
     36 H16      -10.2116   -2.1797   -9.7956 H         1 RES1    0.0000
     37 H17       -9.2612   -1.4398   -8.7901 H         1 RES1    0.0000
@<TRIPOS>BOND
     1    1    5 1
     2    2   14 2
     3    3    8 1
     4    4    8 1
     5    5   10 1
     6    6   22 1
     7    7   24 1
     8    8    9 1
     9   10    8 1
    10   11   10 1
    11   12   10 1
    12   13   12 1
    13   14   12 1
    14   15    3 1
    15   16   15 1
    16   17    4 1
    17   18   17 1
    18   19   17 1
    19   20    1 1
    20   21   20 1
    21   22   20 1
    22   23   22 1
    23   24   22 1
    24   25   24 1
    25   26    1 1
    26   27   26 1
    27   28   26 1
    28   29    6 1
    29   30   29 1
    30   31   30 1
    31   32   30 1
    32   33   30 1
    33   34   29 1
    34   35   34 1
    35   36   34 1
    36   37   34 1
    37    7   29 1
    38   12   20 1
    39   14   15 1
    40   15   17 1
    41   24   26 1
@<TRIPOS>SUBSTRUCTURE
     1 RES1 1

@<TRIPOS>CRYSIN
   7.1410    8.9370   20.6050  90.0000  90.0000  90.0000  19 1

