# MOL2 file generated by ConQuest
# Please check atom types

@<TRIPOS>MOLECULE
BASBAY
    21    22     1
SMALL
NO_CHARGES
****
Generated from CSD

@<TRIPOS>ATOM
      1 C1         1.6414    3.3025    7.5434 C.ar      1 RES1    0.0000
      2 C2         1.2552    4.2138    6.5879 C.ar      1 RES1    0.0000
      3 C3         0.7693    3.7540    5.3678 C.ar      1 RES1    0.0000
      4 C4         0.6498    2.3815    5.0955 C.ar      1 RES1    0.0000
      5 C5         1.0512    1.4870    6.0917 C.ar      1 RES1    0.0000
      6 C6         1.5109    1.9524    7.2941 C.ar      1 RES1    0.0000
      7 N1         0.1593    1.8840    3.8703 N.pl3     1 RES1    0.0000
      8 N2         0.2969    0.6038    3.6133 N.2       1 RES1    0.0000
      9 C7        -0.2657    0.0797    2.5420 C.2       1 RES1    0.0000
     10 C8         0.0385   -1.3431    2.2850 C.2       1 RES1    0.0000
     11 O1        -0.6715   -1.9357    1.3168 O.3       1 RES1    0.0000
     12 C9        -1.9273   -1.3431    0.9491 C.3       1 RES1    0.0000
     13 O2        -1.7341    0.0727    0.6654 O.3       1 RES1    0.0000
     14 C10       -1.0927    0.8120    1.6158 C.2       1 RES1    0.0000
     15 O3         0.9357   -1.9608    2.7978 O.2       1 RES1    0.0000
     16 C11       -2.3166   -1.9818   -0.3461 C.3       1 RES1    0.0000
     17 C12       -2.8964   -1.5178    2.0675 C.3       1 RES1    0.0000
     18 O4        -1.2351    2.0181    1.6171 O.2       1 RES1    0.0000
     19 N3         0.3736    4.7812    4.3970 N.pl3     1 RES1    0.0000
     20 O5        -0.2842    4.4472    3.4174 O.2       1 RES1    0.0000
     21 O6         0.7227    5.9342    4.5841 O.2       1 RES1    0.0000
@<TRIPOS>BOND
     1    1    2 ar
     2    2    3 ar
     3    3    4 ar
     4    4    5 ar
     5    5    6 ar
     6    6    1 ar
     7    7    4 1
     8    8    7 1
     9    9    8 2
    10   10    9 1
    11   11   10 1
    12   12   11 1
    13   13   12 1
    14   14    9 1
    15   15   10 2
    16   16   12 1
    17   17   12 1
    18   18   14 2
    19   19    3 1
    20   20   19 2
    21   21   19 2
    22   13   14 1
@<TRIPOS>SUBSTRUCTURE
     1 RES1 1

@<TRIPOS>CRYSIN
   7.1780   13.9760   13.0420  90.0000 102.7000  90.0000  14 2

