# MOL2 file generated by ConQuest
# Please check atom types

@<TRIPOS>MOLECULE
BASKAI
    74    78     2
SMALL
USER_CHARGES
****
Generated from CSD

@<TRIPOS>ATOM
      1 O1        17.5931   -1.8289    3.1262 O.2       1 RES1   -1.0000
      2 O2        13.6436    0.4940    2.6740 O.2       1 RES1    0.0000
      3 O3         9.4292    0.8214    2.5948 O.2       2 RES2   -1.0000
      4 O4        13.1485    3.3566    3.5802 O.2       2 RES2    0.0000
      5 N1        16.3449   -1.5744    3.0375 N.pl3     1 RES1    1.0000
      6 N2        14.4683   -0.4717    2.8060 N.3       1 RES1    0.0000
      7 N3        15.8199    2.0997    2.9709 N.3       1 RES1    0.0000
      8 N4        19.1243    3.2947    3.4120 N.ar      1 RES1    0.0000
      9 N5        10.3830    1.6563    2.4839 N.pl3     2 RES2    1.0000
     10 N6        12.1323    2.8735    2.9563 N.3       2 RES2    0.0000
     11 N7        12.2536    1.7961    5.6880 N.3       2 RES2    0.0000
     12 N8        10.2151   -0.2649    7.7358 N.ar      2 RES2    0.0000
     13 C1        15.7997   -0.3467    2.9575 C.2       1 RES1    0.0000
     14 C2        15.3233   -2.6607    2.8128 C.3       1 RES1    0.0000
     15 C3        13.9988   -1.8750    3.0192 C.3       1 RES1    0.0000
     16 C4        15.5525   -3.7917    3.7978 C.3       1 RES1    0.0000
     17 C5        15.5376   -3.1518    1.3860 C.3       1 RES1    0.0000
     18 C6        13.4640   -1.9152    4.4421 C.3       1 RES1    0.0000
     19 C7        12.8935   -2.1935    2.0264 C.3       1 RES1    0.0000
     20 C8        16.5078    0.9033    3.0207 C.2       1 RES1    0.0000
     21 C9        17.8565    1.1414    3.1691 C.2       1 RES1    0.0000
     22 C10       16.7181    3.1205    3.1079 C.ar      1 RES1    0.0000
     23 C11       17.9996    2.5551    3.2356 C.ar      1 RES1    0.0000
     24 C12       18.9258    4.6146    3.4319 C.ar      1 RES1    0.0000
     25 C13       17.6896    5.2441    3.2722 C.ar      1 RES1    0.0000
     26 C14       16.5399    4.5045    3.1107 C.ar      1 RES1    0.0000
     27 C15       11.2748    1.9643    3.4416 C.2       2 RES2    0.0000
     28 C16       10.7461    2.2530    1.1543 C.3       2 RES2    0.0000
     29 C17       11.7255    3.3780    1.6021 C.3       2 RES2    0.0000
     30 C18        9.4909    2.7455    0.4458 C.3       2 RES2    0.0000
     31 C19       11.4178    1.1443    0.3504 C.3       2 RES2    0.0000
     32 C20       11.0505    4.7262    1.8415 C.3       2 RES2    0.0000
     33 C21       12.9639    3.5491    0.7417 C.3       2 RES2    0.0000
     34 C22       11.2924    1.4182    4.7750 C.2       2 RES2    0.0000
     35 C23       10.3941    0.5640    5.3707 C.2       2 RES2    0.0000
     36 C24       11.9731    1.1890    6.8851 C.ar      2 RES2    0.0000
     37 C25       10.8050    0.4256    6.7177 C.ar      2 RES2    0.0000
     38 C26       10.8508   -0.1741    8.9038 C.ar      2 RES2    0.0000
     39 C27       12.0223    0.5387    9.1296 C.ar      2 RES2    0.0000
     40 C28       12.6161    1.2485    8.1154 C.ar      2 RES2    0.0000
     41 H1        14.9543    2.2024    2.9199 H         1 RES1    0.0000
     42 H2        16.3388   -4.2411    3.4844 H         1 RES1    0.0000
     43 H3        14.8220   -4.4345    3.6791 H         1 RES1    0.0000
     44 H4        15.4637   -3.4077    4.8276 H         1 RES1    0.0000
     45 H5        16.4726   -3.4970    1.3042 H         1 RES1    0.0000
     46 H6        15.3897   -2.4256    0.6813 H         1 RES1    0.0000
     47 H7        14.9676   -3.8988    1.2458 H         1 RES1    0.0000
     48 H8        14.1215   -1.6369    5.0612 H         1 RES1    0.0000
     49 H9        13.0275   -2.9018    4.6135 H         1 RES1    0.0000
     50 H10       12.7567   -1.2351    4.4577 H         1 RES1    0.0000
     51 H11       13.2205   -2.0238    1.0901 H         1 RES1    0.0000
     52 H12       12.0947   -1.5625    2.1997 H         1 RES1    0.0000
     53 H13       12.6198   -3.2441    2.1218 H         1 RES1    0.0000
     54 H14       18.5654    0.4762    3.1924 H         1 RES1    0.0000
     55 H15       19.7174    5.1786    3.6791 H         1 RES1    0.0000
     56 H16       17.6807    6.1905    3.2898 H         1 RES1    0.0000
     57 H17       15.6527    4.9256    3.0367 H         1 RES1    0.0000
     58 H18       12.9229    2.3066    5.5478 H         2 RES2    0.0000
     59 H19        8.8950    2.0238    0.2725 H         2 RES2    0.0000
     60 H20        9.7546    3.2292   -0.3504 H         2 RES2    0.0000
     61 H21        9.0152    3.4673    1.0317 H         2 RES2    0.0000
     62 H22       10.7691    0.3869    0.3309 H         2 RES2    0.0000
     63 H23       12.2612    0.8185    0.7981 H         2 RES2    0.0000
     64 H24       11.5526    1.4137   -0.4867 H         2 RES2    0.0000
     65 H25       10.2088    4.6280    2.3943 H         2 RES2    0.0000
     66 H26       10.8807    5.1339    0.9538 H         2 RES2    0.0000
     67 H27       11.7052    5.2828    2.3165 H         2 RES2    0.0000
     68 H28       12.6377    3.8244   -0.1363 H         2 RES2    0.0000
     69 H29       13.4857    2.7083    0.7202 H         2 RES2    0.0000
     70 H30       13.5313    4.3006    1.0901 H         2 RES2    0.0000
     71 H31        9.6159    0.2381    4.9054 H         2 RES2    0.0000
     72 H32       10.3649   -0.6548    9.6746 H         2 RES2    0.0000
     73 H33       12.4212    0.5208   10.0250 H         2 RES2    0.0000
     74 H34       13.4453    1.7262    8.2731 H         2 RES2    0.0000
@<TRIPOS>BOND
     1    1    5 1
     2    2    6 1
     3    3    9 1
     4    4   10 1
     5    5   13 2
     6    6   13 1
     7    7   20 1
     8    8   23 ar
     9    9   27 2
    10   10   27 1
    11   11   34 1
    12   12   37 ar
    13   13   20 1
    14   14    5 1
    15   15    6 1
    16   16   14 1
    17   17   14 1
    18   18   15 1
    19   19   15 1
    20   20   21 2
    21   21   23 1
    22   22    7 1
    23   23   22 ar
    24   24    8 ar
    25   25   24 ar
    26   26   22 ar
    27   27   34 1
    28   28    9 1
    29   29   10 1
    30   30   28 1
    31   31   28 1
    32   32   29 1
    33   33   29 1
    34   34   35 2
    35   35   37 1
    36   36   11 1
    37   37   36 ar
    38   38   12 ar
    39   39   38 ar
    40   40   36 ar
    41   41    7 1
    42   42   16 1
    43   43   16 1
    44   44   16 1
    45   45   17 1
    46   46   17 1
    47   47   17 1
    48   48   18 1
    49   49   18 1
    50   50   18 1
    51   51   19 1
    52   52   19 1
    53   53   19 1
    54   54   21 1
    55   55   24 1
    56   56   25 1
    57   57   26 1
    58   58   11 1
    59   59   30 1
    60   60   30 1
    61   61   30 1
    62   62   31 1
    63   63   31 1
    64   64   31 1
    65   65   32 1
    66   66   32 1
    67   67   32 1
    68   68   33 1
    69   69   33 1
    70   70   33 1
    71   71   35 1
    72   72   38 1
    73   73   39 1
    74   74   40 1
    75   14   15 1
    76   25   26 ar
    77   28   29 1
    78   39   40 ar
@<TRIPOS>SUBSTRUCTURE
     1 RES1 1
     2 RES2 3

@<TRIPOS>CRYSIN
  19.4260   14.8810   21.8240  90.0000 116.8800  90.0000  15 1

