# MOL2 file generated by ConQuest
# Please check atom types

@<TRIPOS>MOLECULE
BASQOB
    66    69     2
SMALL
NO_CHARGES
****
Generated from CSD

@<TRIPOS>ATOM
      1 N1         2.8841   11.2556   -1.9014 N.am      1 RES1    0.0000
      2 O1         2.8361   12.6290   -2.1064 O.3       1 RES1    0.0000
      3 C1         1.4328   13.0512   -1.9297 C.3       1 RES1    0.0000
      4 H1         1.0808   12.6730   -1.1221 H         1 RES1    0.0000
      5 C2         1.5298   14.5539   -1.7724 C.2       1 RES1    0.0000
      6 C3         1.9834   15.2946   -2.9811 C.3       1 RES1    0.0000
      7 H2         2.8823   15.0288   -3.1878 H         1 RES1    0.0000
      8 H3         1.9769   16.2415   -2.8238 H         1 RES1    0.0000
      9 C4         1.0975   14.9207   -4.1651 C.3       1 RES1    0.0000
     10 H4         1.3977   15.3558   -4.9656 H         1 RES1    0.0000
     11 H5         0.2060   15.2193   -3.9742 H         1 RES1    0.0000
     12 C5         1.0263   13.4166   -4.3718 C.3       1 RES1    0.0000
     13 H6         1.9086   13.1266   -4.6139 H         1 RES1    0.0000
     14 C6         0.5497   12.6716   -3.1189 C.3       1 RES1    0.0000
     15 C7         0.5700   11.1433   -3.3840 C.3       1 RES1    0.0000
     16 H7        -0.1644   10.9428   -3.9689 H         1 RES1    0.0000
     17 H8         0.3991   10.7097   -2.5446 H         1 RES1    0.0000
     18 C8         1.8162   10.5163   -3.9512 C.2       1 RES1    0.0000
     19 C9         3.0476   10.3940   -3.1013 C.3       1 RES1    0.0000
     20 C10        3.1492    9.0264   -2.3927 C.3       1 RES1    0.0000
     21 C11        4.1553    9.4074   -1.3183 C.3       1 RES1    0.0000
     22 H9         4.1663    8.7833   -0.5884 H         1 RES1    0.0000
     23 C12        3.6749   10.8007   -0.8570 C.2       1 RES1    0.0000
     24 C13        4.3622   10.7324   -3.8134 C.2       1 RES1    0.0000
     25 C14        5.4809   10.3770   -3.2232 C.2       1 RES1    0.0000
     26 H10        6.3132   10.6301   -3.6279 H         1 RES1    0.0000
     27 C15        5.5465    9.6064   -1.9120 C.3       1 RES1    0.0000
     28 H11        5.9502    8.7534   -2.0834 H         1 RES1    0.0000
     29 H12        6.0934   10.0699   -1.2723 H         1 RES1    0.0000
     30 O2         3.9437   11.3921    0.1484 O.2       1 RES1    0.0000
     31 C16        1.1631   15.1212   -0.6203 C.2       1 RES1    0.0000
     32 H13        1.2610   16.0752   -0.6644 H         1 RES1    0.0000
     33 H14        0.2476   14.9008   -0.4294 H         1 RES1    0.0000
     34 H15        1.7266   14.7743    0.0760 Du        2 SUP2    0.0000
     35 O3         0.1109   13.0839   -5.4126 O.3       1 RES1    0.0000
     36 C17        0.6808   13.0555   -6.7238 C.3       1 RES1    0.0000
     37 H16        1.4217   12.4456   -6.7486 H         1 RES1    0.0000
     38 H17        0.9903   13.9398   -6.9359 H         1 RES1    0.0000
     39 C18       -0.3603   12.6489   -7.7152 C.ar      1 RES1    0.0000
     40 C19       -1.4559   11.8996   -7.3105 C.ar      1 RES1    0.0000
     41 H18       -1.5317   11.6082   -6.3987 H         1 RES1    0.0000
     42 C20       -2.4314   11.5371   -8.2117 C.ar      1 RES1    0.0000
     43 H19       -3.2111   11.0622   -7.9166 H         1 RES1    0.0000
     44 C21       -2.3372   11.9281   -9.5353 C.ar      1 RES1    0.0000
     45 H20       -2.9876   11.6295  -10.1750 H         1 RES1    0.0000
     46 C22       -1.2536   12.7057   -9.9417 C.ar      1 RES1    0.0000
     47 H21       -1.1695   12.9901  -10.8535 H         1 RES1    0.0000
     48 C23       -0.2993   13.0512   -9.0405 C.ar      1 RES1    0.0000
     49 H22        0.4194   13.6270   -9.3126 H         1 RES1    0.0000
     50 C24       -0.9044   13.0540   -2.7425 C.3       1 RES1    0.0000
     51 H23       -0.9811   13.9966   -2.5782 H         1 RES1    0.0000
     52 H24       -1.4725   12.8095   -3.4759 H         1 RES1    0.0000
     53 H25       -1.1695   12.5692   -1.9562 H         1 RES1    0.0000
     54 O4         1.7820    9.9832   -5.0415 O.2       1 RES1    0.0000
     55 C25        1.8587    8.5643   -1.7212 C.3       1 RES1    0.0000
     56 H26        1.9344    7.6985   -1.3130 H         1 RES1    0.0000
     57 H27        1.6702    9.2211   -1.0461 H         1 RES1    0.0000
     58 H28        1.1474    8.5544   -2.3661 H         1 RES1    0.0000
     59 C26        3.5899    7.9047   -3.3098 C.3       1 RES1    0.0000
     60 H29        3.6287    7.0658   -2.8450 H         1 RES1    0.0000
     61 H30        2.9571    7.8421   -4.0290 H         1 RES1    0.0000
     62 H31        4.4573    8.1136   -3.6650 H         1 RES1    0.0000
     63 C27        4.4038   11.4703   -5.1175 C.3       1 RES1    0.0000
     64 H32        5.3026   11.5997   -5.4285 H         1 RES1    0.0000
     65 H33        3.9104   10.9656   -5.7696 H         1 RES1    0.0000
     66 H34        3.9834   12.3233   -4.9885 H         1 RES1    0.0000
@<TRIPOS>BOND
     1    1    2 1
     2    2    3 1
     3    3    4 1
     4    5    3 1
     5    6    5 1
     6    7    6 1
     7    8    6 1
     8    9    6 1
     9   10    9 1
    10   11    9 1
    11   12    9 1
    12   13   12 1
    13   14    3 1
    14   15   14 1
    15   16   15 1
    16   17   15 1
    17   18   15 1
    18   19    1 1
    19   20   19 1
    20   21   20 1
    21   22   21 1
    22   23    1 1
    23   24   19 1
    24   25   24 2
    25   26   25 1
    26   27   21 1
    27   28   27 1
    28   29   27 1
    29   30   23 2
    30   31    5 2
    31   32   31 1
    32   33   31 1
    33   35   12 1
    34   36   35 1
    35   37   36 1
    36   38   36 1
    37   39   36 1
    38   40   39 ar
    39   41   40 1
    40   42   40 ar
    41   43   42 1
    42   44   42 ar
    43   45   44 1
    44   46   44 ar
    45   47   46 1
    46   48   39 ar
    47   49   48 1
    48   50   14 1
    49   51   50 1
    50   52   50 1
    51   53   50 1
    52   54   18 2
    53   55   20 1
    54   56   55 1
    55   57   55 1
    56   58   55 1
    57   59   20 1
    58   60   59 1
    59   61   59 1
    60   62   59 1
    61   63   24 1
    62   64   63 1
    63   65   63 1
    64   66   63 1
    65   12   14 1
    66   18   19 1
    67   21   23 1
    68   25   27 1
    69   46   48 ar
@<TRIPOS>SUBSTRUCTURE
     1 RES1 1
     2 SUP2 34

@<TRIPOS>CRYSIN
   9.2380   14.2170   17.6710  90.0000  90.0000  90.0000  19 1

