# MOL2 file generated by ConQuest
# Please check atom types

@<TRIPOS>MOLECULE
BASQAN
    64    66     2
SMALL
NO_CHARGES
****
Generated from CSD

@<TRIPOS>ATOM
      1 C1         1.3964    1.2253    2.6189 C.2       1 RES1    0.0000
      2 C2         0.2776    0.3868    3.1248 C.2       1 RES1    0.0000
      3 C3         0.5110   -0.5760    4.0265 C.2       1 RES1    0.0000
      4 H1         1.4166   -0.6209    4.3410 H         1 RES1    0.0000
      5 C4        -0.3941   -1.5734    4.6098 C.ar      1 RES1    0.0000
      6 C5        -1.5990   -1.9944    4.0545 C.ar      1 RES1    0.0000
      7 H2        -1.9312   -1.5747    3.2584 H         1 RES1    0.0000
      8 C6        -2.3167   -3.0126    4.6526 C.ar      1 RES1    0.0000
      9 H3        -3.1367   -3.2918    4.2380 H         1 RES1    0.0000
     10 N1        -1.9435   -3.6329    5.7648 N.ar      1 RES1    0.0000
     11 C7        -0.7775   -3.2411    6.2828 C.ar      1 RES1    0.0000
     12 H4        -0.4720   -3.6823    7.0792 H         1 RES1    0.0000
     13 C8         0.0011   -2.2414    5.7613 C.ar      1 RES1    0.0000
     14 H5         0.8291   -2.0110    6.1894 H         1 RES1    0.0000
     15 N2         1.1223    1.9356    1.5946 N.2       1 RES1    0.0000
     16 O1         2.2128    2.6704    1.1267 O.3       1 RES1    0.0000
     17 H6         1.9744    3.1200    0.4462 H         1 RES1    0.0000
     18 C9         2.7473    1.2164    3.2777 C.3       1 RES1    0.0000
     19 H7         3.3325    1.8168    2.8095 H         1 RES1    0.0000
     20 H8         2.6606    1.5005    4.1905 H         1 RES1    0.0000
     21 H9         3.1115    0.3290    3.2505 H         1 RES1    0.0000
     22 C10       -1.0893    0.7416    2.5922 C.ar      1 RES1    0.0000
     23 C11       -1.4951    0.3856    1.3173 C.ar      1 RES1    0.0000
     24 H10       -0.9235   -0.1552    0.7684 H         1 RES1    0.0000
     25 C12       -2.7236    0.8220    0.8275 C.ar      1 RES1    0.0000
     26 H11       -2.9909    0.5740   -0.0607 H         1 RES1    0.0000
     27 C13       -3.5575    1.5903    1.6078 C.ar      1 RES1    0.0000
     28 H12       -4.3983    1.8871    1.2516 H         1 RES1    0.0000
     29 C14       -3.1749    1.9222    2.8768 C.ar      1 RES1    0.0000
     30 H13       -3.7564    2.4542    3.4247 H         1 RES1    0.0000
     31 C15       -1.9438    1.4985    3.3701 C.ar      1 RES1    0.0000
     32 H14       -1.6839    1.7240    4.2671 H         1 RES1    0.0000
     33 C16        5.2163   -0.1435    7.7367 C.2       2 RES2    0.0000
     34 C17        5.9429    0.3251    8.9328 C.2       2 RES2    0.0000
     35 C18        7.2448    0.0488    9.1335 C.2       2 RES2    0.0000
     36 H15        7.6569   -0.4842    8.4496 H         2 RES2    0.0000
     37 C19        8.1365    0.4309   10.2267 C.ar      2 RES2    0.0000
     38 C20        7.8830    1.4019   11.1984 C.ar      2 RES2    0.0000
     39 H16        7.0518    1.8822   11.1826 H         2 RES2    0.0000
     40 C21        8.8290    1.6811   12.1545 C.ar      2 RES2    0.0000
     41 H17        8.6193    2.3488   12.8117 H         2 RES2    0.0000
     42 N3        10.0215    1.0769   12.2332 N.ar      2 RES2    0.0000
     43 C22       10.2611    0.1396   11.3125 C.ar      2 RES2    0.0000
     44 H18       11.1089   -0.3104   11.3357 H         2 RES2    0.0000
     45 C23        9.3771   -0.1952   10.3170 C.ar      2 RES2    0.0000
     46 H19        9.6058   -0.8825    9.6880 H         2 RES2    0.0000
     47 N4         3.9637    0.1285    7.7536 N.2       2 RES2    0.0000
     48 O2         3.2634   -0.2968    6.6145 O.3       2 RES2    0.0000
     49 H20        2.4444   -0.0840    6.6910 H         2 RES2    0.0000
     50 C24        5.8886   -0.8688    6.6081 C.3       2 RES2    0.0000
     51 H21        5.2383   -1.0904    5.9385 H         2 RES2    0.0000
     52 H22        6.2921   -1.6742    6.9419 H         2 RES2    0.0000
     53 H23        6.5657   -0.3075    6.2237 H         2 RES2    0.0000
     54 C25        5.1163    1.1041    9.9048 C.ar      2 RES2    0.0000
     55 C26        4.8778    2.4562    9.7028 C.ar      2 RES2    0.0000
     56 H24        5.2637    2.8994    8.9434 H         2 RES2    0.0000
     57 C27        4.0840    3.1659   10.5895 C.ar      2 RES2    0.0000
     58 H25        3.9317    4.1041   10.4511 H         2 RES2    0.0000
     59 C28        3.5172    2.5392   11.6710 C.ar      2 RES2    0.0000
     60 H26        2.9648    3.0322   12.2810 H         2 RES2    0.0000
     61 C29        3.7419    1.1998   11.8738 C.ar      2 RES2    0.0000
     62 H27        3.3338    0.7556   12.6216 H         2 RES2    0.0000
     63 C30        4.5418    0.4784   10.9998 C.ar      2 RES2    0.0000
     64 H28        4.7120   -0.4530   11.1588 H         2 RES2    0.0000
@<TRIPOS>BOND
     1    1    2 1
     2    2    3 2
     3    3    4 1
     4    5    3 1
     5    6    5 ar
     6    7    6 1
     7    8    6 ar
     8    9    8 1
     9   10    8 ar
    10   11   10 ar
    11   12   11 1
    12   13    5 ar
    13   14   13 1
    14   15    1 2
    15   16   15 1
    16   17   16 1
    17   18    1 1
    18   19   18 1
    19   20   18 1
    20   21   18 1
    21   22    2 1
    22   23   22 ar
    23   24   23 1
    24   25   23 ar
    25   26   25 1
    26   27   25 ar
    27   28   27 1
    28   29   27 ar
    29   30   29 1
    30   31   22 ar
    31   32   31 1
    32   33   34 1
    33   34   35 2
    34   35   36 1
    35   37   35 1
    36   38   37 ar
    37   39   38 1
    38   40   38 ar
    39   41   40 1
    40   42   40 ar
    41   43   42 ar
    42   44   43 1
    43   45   37 ar
    44   46   45 1
    45   47   33 2
    46   48   47 1
    47   49   48 1
    48   50   33 1
    49   51   50 1
    50   52   50 1
    51   53   50 1
    52   54   34 1
    53   55   54 ar
    54   56   55 1
    55   57   55 ar
    56   58   57 1
    57   59   57 ar
    58   60   59 1
    59   61   59 ar
    60   62   61 1
    61   63   54 ar
    62   64   63 1
    63   11   13 ar
    64   29   31 ar
    65   43   45 ar
    66   61   63 ar
@<TRIPOS>SUBSTRUCTURE
     1 RES1 1
     2 RES2 33

@<TRIPOS>CRYSIN
  10.0401    9.7623   26.4632  90.0000  93.7980  90.0000  14 1

