# MOL2 file generated by ConQuest
# Please check atom types

@<TRIPOS>MOLECULE
BATGIN
    32    33     1
SMALL
NO_CHARGES
****
Generated from CSD

@<TRIPOS>ATOM
      1 O1         2.7840    1.4473   14.7374 O.3       1 RES1    0.0000
      2 O2         4.6215    3.6533   14.8828 O.2       1 RES1    0.0000
      3 O3         4.5264    4.5012   16.8874 O.2       1 RES1    0.0000
      4 O4         1.2619    3.7701   13.8443 O.3       1 RES1    0.0000
      5 H1         1.2297    3.8885   14.6550 H         1 RES1    0.0000
      6 O5         1.5227    0.3097   11.5342 O.3       1 RES1    0.0000
      7 H2         1.1289   -0.3730   11.3071 H         1 RES1    0.0000
      8 O6         3.0988   -1.9930   12.4915 O.3       1 RES1    0.0000
      9 H3         2.5636   -2.3563   12.9951 H         1 RES1    0.0000
     10 O7         5.3501   -1.0334   14.1833 O.3       1 RES1    0.0000
     11 H4         5.3514   -1.8419   14.0464 H         1 RES1    0.0000
     12 N1         4.6209    1.0751   16.0378 N.pl3     1 RES1    0.0000
     13 N2         5.1631    0.6395   18.1548 N.2       1 RES1    0.0000
     14 N3         4.6234    3.5483   16.1015 N.pl3     1 RES1    0.0000
     15 C1         2.2275    1.5687   13.4147 C.3       1 RES1    0.0000
     16 H5         2.8656    2.0377   12.8377 H         1 RES1    0.0000
     17 C2         4.0735    0.8919   14.6909 C.3       1 RES1    0.0000
     18 H6         4.6183    1.3952   14.0506 H         1 RES1    0.0000
     19 C3         4.0098   -0.5673   14.2558 C.3       1 RES1    0.0000
     20 H7         3.5119   -1.0899   14.9185 H         1 RES1    0.0000
     21 C4         3.2967   -0.6291   12.9048 C.3       1 RES1    0.0000
     22 H8         3.8980   -0.2189   12.2486 H         1 RES1    0.0000
     23 C5         1.9873    0.1645   12.8625 C.3       1 RES1    0.0000
     24 H9         1.3075   -0.2904   13.4020 H         1 RES1    0.0000
     25 C6         4.7751    2.2759   16.7073 C.2       1 RES1    0.0000
     26 C7         5.1092    1.9938   17.9853 C.2       1 RES1    0.0000
     27 H10        5.2769    2.6251   18.6478 H         1 RES1    0.0000
     28 C8         4.8425    0.1295   16.9780 C.2       1 RES1    0.0000
     29 H11        4.7770   -0.7840   16.8143 H         1 RES1    0.0000
     30 C9         0.9772    2.3995   13.5504 C.3       1 RES1    0.0000
     31 H12        0.4722    2.3496   12.7240 H         1 RES1    0.0000
     32 H13        0.4266    2.0310   14.2585 H         1 RES1    0.0000
@<TRIPOS>BOND
     1    1   15 1
     2    2   14 2
     3    3   14 2
     4    4    5 1
     5    6    7 1
     6    8    9 1
     7   10   11 1
     8   12   17 1
     9   13   26 1
    10   14   25 1
    11   15   16 1
    12   17    1 1
    13   18   17 1
    14   19   10 1
    15   20   19 1
    16   21    8 1
    17   22   21 1
    18   23    6 1
    19   24   23 1
    20   25   12 1
    21   26   25 2
    22   27   26 1
    23   28   12 1
    24   29   28 1
    25   30    4 1
    26   31   30 1
    27   32   30 1
    28   13   28 2
    29   15   23 1
    30   15   30 1
    31   17   19 1
    32   19   21 1
    33   21   23 1
@<TRIPOS>SUBSTRUCTURE
     1 RES1 1

@<TRIPOS>CRYSIN
   6.4250    7.4450   23.1560  90.0000  90.0000  90.0000  19 1

