# MOL2 file generated by ConQuest
# Please check atom types

@<TRIPOS>MOLECULE
BATRAQ
    36    38     1
SMALL
NO_CHARGES
****
Generated from CSD

@<TRIPOS>ATOM
      1 N1         2.2126    9.0025    0.9290 N.pl3     1 RES1    0.0000
      2 O1         2.2777    7.7973    0.7124 O.2       1 RES1    0.0000
      3 O2         3.1965    9.7165    1.0533 O.2       1 RES1    0.0000
      4 C1         0.8793    9.6085    1.0243 C.ar      1 RES1    0.0000
      5 C2        -0.0865    9.0772    0.1817 C.ar      1 RES1    0.0000
      6 C3        -1.3384    9.6687    0.0960 C.ar      1 RES1    0.0000
      7 C4        -1.6649   10.5809    1.0970 C.ar      1 RES1    0.0000
      8 C5        -0.6892   11.1078    1.9242 C.ar      1 RES1    0.0000
      9 C6         0.6596   10.7536    1.8072 C.ar      1 RES1    0.0000
     10 C7        -2.1878    9.5584   -1.1507 C.3       1 RES1    0.0000
     11 C8         1.6904   11.7405    2.2964 C.3       1 RES1    0.0000
     12 H1         0.1352    8.3899   -0.4231 H         1 RES1    0.0000
     13 H2        -2.5485   10.9240    1.1151 H         1 RES1    0.0000
     14 H3        -0.9023   11.8719    2.4832 H         1 RES1    0.0000
     15 H4        -2.2116    8.6361   -1.5171 H         1 RES1    0.0000
     16 H5        -3.0763    9.7734   -0.9487 H         1 RES1    0.0000
     17 H6         1.2467   12.2652    3.0168 H         1 RES1    0.0000
     18 H7         2.4615   11.2938    2.6868 H         1 RES1    0.0000
     19 C7B        2.1878   12.7196    1.1507 C.3       1 RES1    0.0000
     20 C3B        1.3384   12.6093   -0.0960 C.ar      1 RES1    0.0000
     21 C2B        0.0865   13.2008   -0.1817 C.ar      1 RES1    0.0000
     22 C1B       -0.8793   12.6695   -1.0243 C.ar      1 RES1    0.0000
     23 N1B       -2.2126   13.2755   -0.9290 N.pl3     1 RES1    0.0000
     24 O1B       -2.2777   14.4807   -0.7124 O.2       1 RES1    0.0000
     25 O2B       -3.1965   12.5615   -1.0533 O.2       1 RES1    0.0000
     26 C6B       -0.6596   11.5244   -1.8072 C.ar      1 RES1    0.0000
     27 C5B        0.6892   11.1702   -1.9242 C.ar      1 RES1    0.0000
     28 C4B        1.6649   11.6971   -1.0970 C.ar      1 RES1    0.0000
     29 H2B        2.5485   11.3540   -1.1151 H         1 RES1    0.0000
     30 H3B        0.9023   10.4061   -2.4832 H         1 RES1    0.0000
     31 C8B       -1.6904   10.5375   -2.2964 C.3       1 RES1    0.0000
     32 H6B       -1.2467   10.0128   -3.0168 H         1 RES1    0.0000
     33 H7B       -2.4615   10.9842   -2.6868 H         1 RES1    0.0000
     34 H1B       -0.1352   13.8881    0.4231 H         1 RES1    0.0000
     35 H4B        2.2116   13.6419    1.5171 H         1 RES1    0.0000
     36 H5B        3.0763   12.5046    0.9487 H         1 RES1    0.0000
@<TRIPOS>BOND
     1    1    2 2
     2    3    1 2
     3    4    1 1
     4    5    4 ar
     5    6    5 ar
     6    7    6 ar
     7    8    7 ar
     8    9    4 ar
     9   10    6 1
    10   11    9 1
    11   12    5 1
    12   13    7 1
    13   14    8 1
    14   15   10 1
    15   16   10 1
    16   17   11 1
    17   18   11 1
    18   19   11 1
    19   20   19 1
    20   21   20 ar
    21   22   21 ar
    22   23   22 1
    23   24   23 2
    24   25   23 2
    25   26   22 ar
    26   27   26 ar
    27   28   20 ar
    28   29   28 1
    29   30   27 1
    30   31   10 1
    31   32   31 1
    32   33   31 1
    33   34   21 1
    34   35   19 1
    35   36   19 1
    36    8    9 ar
    37   26   31 1
    38   27   28 ar
@<TRIPOS>SUBSTRUCTURE
     1 RES1 1

@<TRIPOS>CRYSIN
   8.1280   11.1390    7.4520  90.0000 102.7100  90.0000  14 1

