# MOL2 file generated by ConQuest
# Please check atom types

@<TRIPOS>MOLECULE
BATWUO
    34    37     1
SMALL
USER_CHARGES
****
Generated from CSD

@<TRIPOS>ATOM
      1 O1         2.9204    0.0226    5.5404 O.2       1 RES1   -1.0000
      2 O2         4.7021    0.9391    7.1151 O.2       1 RES1   -1.0000
      3 N1         2.8520    1.1838    5.8903 N.pl3     1 RES1    1.0000
      4 N2         2.1924    2.9884    4.5332 N.ar      1 RES1    0.0000
      5 N3        -0.5142    2.3562    5.1037 N.ar      1 RES1    0.0000
      6 N4         3.7425    1.6703    6.7431 N.pl3     1 RES1    1.0000
      7 N5         2.4009    3.4184    7.5768 N.ar      1 RES1    0.0000
      8 N6         4.7473    4.8638    8.1988 N.ar      1 RES1    0.0000
      9 C1         1.8141    2.0253    5.3051 C.ar      1 RES1    0.0000
     10 C2         0.4776    1.6604    5.6006 C.ar      1 RES1    0.0000
     11 C3        -0.1846    3.4141    4.3008 C.ar      1 RES1    0.0000
     12 C4        -1.2177    4.2189    3.7833 C.ar      1 RES1    0.0000
     13 C5        -0.9085    5.2810    2.9746 C.ar      1 RES1    0.0000
     14 C6         0.4298    5.5667    2.6364 C.ar      1 RES1    0.0000
     15 C7         1.4473    4.8030    3.1290 C.ar      1 RES1    0.0000
     16 C8         1.1630    3.7210    3.9935 C.ar      1 RES1    0.0000
     17 C9         3.5984    2.9898    7.3210 C.ar      1 RES1    0.0000
     18 C10        4.7883    3.6913    7.6268 C.ar      1 RES1    0.0000
     19 C11        3.5121    5.3729    8.4855 C.ar      1 RES1    0.0000
     20 C12        3.3945    6.6359    9.0987 C.ar      1 RES1    0.0000
     21 C13        2.1768    7.1620    9.3722 C.ar      1 RES1    0.0000
     22 C14        1.0109    6.4506    9.0325 C.ar      1 RES1    0.0000
     23 C15        1.0772    5.2230    8.4532 C.ar      1 RES1    0.0000
     24 C16        2.3338    4.6587    8.1635 C.ar      1 RES1    0.0000
     25 H1         0.2411    0.9603    6.2873 H         1 RES1    0.0000
     26 H2        -2.1225    3.9883    4.0979 H         1 RES1    0.0000
     27 H3        -1.5844    5.7986    2.5879 H         1 RES1    0.0000
     28 H4         0.6544    6.2215    1.9556 H         1 RES1    0.0000
     29 H5         2.3815    4.9854    2.8613 H         1 RES1    0.0000
     30 H6         5.6523    3.2911    7.3724 H         1 RES1    0.0000
     31 H7         4.1353    7.0772    9.2986 H         1 RES1    0.0000
     32 H8         2.0743    8.0205    9.8368 H         1 RES1    0.0000
     33 H9         0.2318    6.8084    9.2222 H         1 RES1    0.0000
     34 H10        0.3255    4.7139    8.2826 H         1 RES1    0.0000
@<TRIPOS>BOND
     1    1    3 1
     2    2    6 1
     3    3    6 2
     4    4    9 ar
     5    5   10 ar
     6    6   17 1
     7    7   17 ar
     8    8   18 ar
     9    9    3 1
    10   10    9 ar
    11   11    5 ar
    12   12   11 ar
    13   13   12 ar
    14   14   13 ar
    15   15   14 ar
    16   16    4 ar
    17   17   18 ar
    18   18   30 1
    19   19    8 ar
    20   20   19 ar
    21   21   20 ar
    22   22   21 ar
    23   23   22 ar
    24   24    7 ar
    25   25   10 1
    26   26   12 1
    27   27   13 1
    28   28   14 1
    29   29   15 1
    30   31   20 1
    31   32   21 1
    32   33   22 1
    33   34   23 1
    34   11   16 ar
    35   15   16 ar
    36   19   24 ar
    37   23   24 ar
@<TRIPOS>SUBSTRUCTURE
     1 RES1 1

@<TRIPOS>CRYSIN
   7.0190   14.1430   14.7880  90.0000  96.1200  90.0000  14 1

