# MOL2 file generated by ConQuest
# Please check atom types

@<TRIPOS>MOLECULE
BATWOJ
    40    42     1
SMALL
NO_CHARGES
****
Generated from CSD

@<TRIPOS>ATOM
      1 O1         1.6065    8.9187    5.9193 O.2       1 RES1    0.0000
      2 O2         1.1468   10.9220    6.5848 O.2       1 RES1    0.0000
      3 O3         3.7926   12.9599    6.7707 O.2       1 RES1    0.0000
      4 O4         4.4190   11.0047    6.1231 O.3       1 RES1    0.0000
      5 N1         1.1519    9.9290    5.6567 N.pl3     1 RES1    0.0000
      6 C1         1.7702   10.1216    2.0275 C.ar      1 RES1    0.0000
      7 C2         1.7739    9.7165    3.3405 C.ar      1 RES1    0.0000
      8 H1         2.2658    8.9681    3.5901 H         1 RES1    0.0000
      9 C3         1.0598   10.4057    4.2849 C.ar      1 RES1    0.0000
     10 C4         0.3501   11.5778    4.0011 C.ar      1 RES1    0.0000
     11 C5         0.1381   11.7569    2.6440 C.ar      1 RES1    0.0000
     12 H2        -0.4948   12.3856    2.3781 H         1 RES1    0.0000
     13 C6         0.8033   11.0665    1.6768 C.ar      1 RES1    0.0000
     14 H3         0.6132   11.2246    0.7797 H         1 RES1    0.0000
     15 C7         2.9068    9.8302    1.0945 C.3       1 RES1    0.0000
     16 H4         2.5625    9.7931    0.1892 H         1 RES1    0.0000
     17 H5         3.2649    8.9545    1.3081 H         1 RES1    0.0000
     18 C8         4.0338   10.8380    1.1434 C.3       1 RES1    0.0000
     19 H6         4.1259   11.2493    0.2708 H         1 RES1    0.0000
     20 H7         4.8627   10.3736    1.3408 H         1 RES1    0.0000
     21 C9         3.8233   11.9274    2.1791 C.ar      1 RES1    0.0000
     22 C10        4.0843   11.6717    3.5167 C.ar      1 RES1    0.0000
     23 H8         4.6953   11.0084    3.7434 H         1 RES1    0.0000
     24 C11        3.4506   12.3856    4.5198 C.ar      1 RES1    0.0000
     25 C12        2.4756   13.3477    4.1919 C.ar      1 RES1    0.0000
     26 C13        2.4376   13.7701    2.8773 C.ar      1 RES1    0.0000
     27 H9         1.9617   14.5384    2.6587 H         1 RES1    0.0000
     28 C14        3.0881   13.0760    1.8839 C.ar      1 RES1    0.0000
     29 H10        3.0384   13.3761    1.0048 H         1 RES1    0.0000
     30 C15        1.2952   13.6898    5.0939 C.3       1 RES1    0.0000
     31 H11        0.9889   14.5865    4.8835 H         1 RES1    0.0000
     32 H12        1.5941   13.6886    6.0155 H         1 RES1    0.0000
     33 C16        0.0972   12.7005    4.9488 C.3       1 RES1    0.0000
     34 H13       -0.1096   12.3312    5.8214 H         1 RES1    0.0000
     35 H14       -0.6812   13.1933    4.6470 H         1 RES1    0.0000
     36 C17        3.7276   12.0410    5.9307 C.2       1 RES1    0.0000
     37 C18        4.6968   10.6206    7.4753 C.3       1 RES1    0.0000
     38 H15        5.5607   10.2032    7.5194 H         1 RES1    0.0000
     39 H16        4.0273   10.0018    7.7771 H         1 RES1    0.0000
     40 H17        4.6887   11.3987    8.0381 H         1 RES1    0.0000
@<TRIPOS>BOND
     1    1    5 2
     2    2    5 2
     3    3   36 2
     4    4   36 1
     5    5    9 1
     6    6    7 ar
     7    7    8 1
     8    9    7 ar
     9   10    9 ar
    10   11   10 ar
    11   12   11 1
    12   13    6 ar
    13   14   13 1
    14   15    6 1
    15   16   15 1
    16   17   15 1
    17   18   15 1
    18   19   18 1
    19   20   18 1
    20   21   18 1
    21   22   21 ar
    22   23   22 1
    23   24   22 ar
    24   25   24 ar
    25   26   25 ar
    26   27   26 1
    27   28   21 ar
    28   29   28 1
    29   30   25 1
    30   31   30 1
    31   32   30 1
    32   33   10 1
    33   34   33 1
    34   35   33 1
    35   36   24 1
    36   37    4 1
    37   38   37 1
    38   39   37 1
    39   40   37 1
    40   11   13 ar
    41   26   28 ar
    42   30   33 1
@<TRIPOS>SUBSTRUCTURE
     1 RES1 1

@<TRIPOS>CRYSIN
   7.3090   12.3510   16.3110  90.0000  90.0000  90.0000  19 1

