# MOL2 file generated by ConQuest
# Please check atom types

@<TRIPOS>MOLECULE
BAVLES
    27    29     1
SMALL
NO_CHARGES
****
Generated from CSD

@<TRIPOS>ATOM
      1 C1         8.2204    8.7775    2.0927 C.ar      1 RES1    0.0000
      2 C2         9.4599    9.1817    2.6026 C.ar      1 RES1    0.0000
      3 H1         9.8630   10.0002    2.3381 H         1 RES1    0.0000
      4 C3        10.0717    8.3322    3.5112 C.ar      1 RES1    0.0000
      5 H2        10.9142    8.5666    3.8823 H         1 RES1    0.0000
      6 C4         9.4596    7.1362    3.8844 C.ar      1 RES1    0.0000
      7 H3         9.8696    6.5335    4.4936 H         1 RES1    0.0000
      8 C5         8.2195    6.8726    3.3189 C.ar      1 RES1    0.0000
      9 C6         6.2836    9.3588    0.6399 C.2       1 RES1    0.0000
     10 H4         5.7057    8.6316    0.8392 H         1 RES1    0.0000
     11 C7         6.0217   10.4057   -0.2058 C.2       1 RES1    0.0000
     12 H5         5.2306   10.5579   -0.7091 H         1 RES1    0.0000
     13 C8         7.1837   11.2091   -0.1667 C.2       1 RES1    0.0000
     14 H6         7.2909   12.0120   -0.6630 H         1 RES1    0.0000
     15 C9         6.3302    5.2943    3.1013 C.2       1 RES1    0.0000
     16 H7         5.8348    5.7345    2.4206 H         1 RES1    0.0000
     17 C10        6.0108    4.1209    3.7417 C.2       1 RES1    0.0000
     18 C11        7.0453    3.8607    4.6607 C.2       1 RES1    0.0000
     19 H8         7.0841    3.1037    5.2334 H         1 RES1    0.0000
     20 N1         8.1078   10.7090    0.6462 N.2       1 RES1    0.0000
     21 N2         7.5381    9.5658    1.1400 N.pl3     1 RES1    0.0000
     22 N3         7.5880    7.6592    2.4514 N.ar      1 RES1    0.0000
     23 N4         7.4995    5.6853    3.6485 N.pl3     1 RES1    0.0000
     24 N5         7.9582    4.8223    4.6136 N.2       1 RES1    0.0000
     25 N6         4.8332    3.3420    3.5061 N.pl3     1 RES1    0.0000
     26 O1         4.0179    3.7477    2.6749 O.2       1 RES1    0.0000
     27 O2         4.6989    2.3002    4.1601 O.2       1 RES1    0.0000
@<TRIPOS>BOND
     1    1    2 ar
     2    2    3 1
     3    4    2 ar
     4    5    4 1
     5    6    4 ar
     6    7    6 1
     7    8    6 ar
     8    9   10 1
     9   11    9 2
    10   12   11 1
    11   13   11 1
    12   14   13 1
    13   15   16 1
    14   17   15 2
    15   18   17 1
    16   19   18 1
    17   20   13 2
    18   21    1 1
    19   22    1 ar
    20   23    8 1
    21   24   18 2
    22   25   17 1
    23   26   25 2
    24   27   25 2
    25    8   22 ar
    26    9   21 1
    27   15   23 1
    28   20   21 1
    29   23   24 1
@<TRIPOS>SUBSTRUCTURE
     1 RES1 1

@<TRIPOS>CRYSIN
   6.0442    8.3930   11.4470  72.3620  89.2970  78.1030   2 1

