# MOL2 file generated by ConQuest
# Please check atom types

@<TRIPOS>MOLECULE
BAVTUQ
   173   164     2
SMALL
NO_CHARGES
****
Generated from CSD

@<TRIPOS>ATOM
      1 C1         1.7790   23.0560   12.1631 C.ar      1 RES1    0.0000
      2 H1         1.4820   22.5438   12.8809 H         1 RES1    0.0000
      3 C2         3.1254   23.3890   12.1122 C.ar      1 RES1    0.0000
      4 C3         3.5265   24.2103   11.0137 C.ar      1 RES1    0.0000
      5 C4         2.6509   24.6036   10.0492 C.ar      1 RES1    0.0000
      6 H2         2.9443   25.1368    9.3467 H         1 RES1    0.0000
      7 C5         1.3132   24.2106   10.1108 C.ar      1 RES1    0.0000
      8 C6         0.8394   23.4462   11.1986 C.ar      1 RES1    0.0000
      9 C7        -0.9635   22.3166   12.4351 C.ar      1 RES1    0.0000
     10 C8        -1.1236   20.9207   12.3501 C.ar      1 RES1    0.0000
     11 C9        -1.6640   20.2341   13.4400 C.ar      1 RES1    0.0000
     12 H3        -1.7780   19.3126   13.3865 H         1 RES1    0.0000
     13 C10       -2.0336   20.8972   14.5958 C.ar      1 RES1    0.0000
     14 C11       -1.8762   22.3073   14.6616 C.ar      1 RES1    0.0000
     15 C12       -1.3477   22.9648   13.5675 C.ar      1 RES1    0.0000
     16 H4        -1.2519   23.8888   13.6076 H         1 RES1    0.0000
     17 C13       -1.4229   23.3699   16.8117 C.ar      1 RES1    0.0000
     18 C14       -1.7879   24.1364   17.9483 C.ar      1 RES1    0.0000
     19 C15       -0.8608   24.4445   18.9171 C.ar      1 RES1    0.0000
     20 H5        -1.1295   24.9512   19.6492 H         1 RES1    0.0000
     21 C16        0.4341   24.0372   18.8449 C.ar      1 RES1    0.0000
     22 C17        0.8831   23.2834   17.7104 C.ar      1 RES1    0.0000
     23 C18       -0.0804   22.9698   16.7565 C.ar      1 RES1    0.0000
     24 H6         0.1858   22.4564   16.0287 H         1 RES1    0.0000
     25 C19        2.5827   22.1371   16.4080 C.ar      1 RES1    0.0000
     26 C20        2.3419   20.7736   16.2933 C.ar      1 RES1    0.0000
     27 C21        2.6629   20.1248   15.1227 C.ar      1 RES1    0.0000
     28 H7         2.4883   19.2147   15.0435 H         1 RES1    0.0000
     29 C22        3.2398   20.7986   14.0604 C.ar      1 RES1    0.0000
     30 C23        3.4962   22.1732   14.1794 C.ar      1 RES1    0.0000
     31 C24        3.1411   22.8131   15.3542 C.ar      1 RES1    0.0000
     32 H8         3.2861   23.7286   15.4304 H         1 RES1    0.0000
     33 C25       -1.0762   18.8750   10.9840 C.3       1 RES1    0.0000
     34 H9        -1.9991   18.7247   11.2391 H         1 RES1    0.0000
     35 H10       -0.5188   18.3411   11.5706 H         1 RES1    0.0000
     36 C26       -0.8869   18.3930    9.5839 C.3       1 RES1    0.0000
     37 H11       -0.9822   17.4287    9.5719 H         1 RES1    0.0000
     38 H12        0.0182   18.6023    9.3030 H         1 RES1    0.0000
     39 C27       -1.8613   18.9924    8.5684 C.3       1 RES1    0.0000
     40 H13       -2.7601   18.7753    8.8633 H         1 RES1    0.0000
     41 H14       -1.7741   19.9576    8.6132 H         1 RES1    0.0000
     42 C28       -1.7523   18.6062    7.1683 C.3       1 RES1    0.0000
     43 H15       -1.8906   17.6475    7.0956 H         1 RES1    0.0000
     44 H16       -0.8534   18.7977    6.8584 H         1 RES1    0.0000
     45 C29       -2.7618   19.3261    6.2526 C.3       1 RES1    0.0000
     46 H17       -2.7288   20.2717    6.4687 H         1 RES1    0.0000
     47 H18       -2.4491   19.2320    5.3400 H         1 RES1    0.0000
     48 C30       -4.2082   18.9028    6.2866 C.3       1 RES1    0.0000
     49 H19       -4.5885   19.1412    7.1460 H         1 RES1    0.0000
     50 H20       -4.2561   17.9365    6.2001 H         1 RES1    0.0000
     51 C31       -5.0727   19.5671    5.1351 C.3       1 RES1    0.0000
     52 H21       -5.0062   20.5300    5.2279 H         1 RES1    0.0000
     53 H22       -4.6720   19.3310    4.2840 H         1 RES1    0.0000
     54 C32       -6.5233   19.2056    5.0798 C.3       1 RES1    0.0000
     55 H23       -6.9393   19.6675    4.3465 H         1 RES1    0.0000
     56 H24       -6.6133   18.2593    4.9534 H         1 RES1    0.0000
     57 H25       -6.9487   19.4625    5.9007 H         1 RES1    0.0000
     58 C33       -2.9119   18.8296   15.6177 C.3       1 RES1    0.0000
     59 H26       -2.1118   18.3035   15.4599 H         1 RES1    0.0000
     60 H27       -3.5080   18.6936   14.8641 H         1 RES1    0.0000
     61 C34       -3.5878   18.3343   16.8776 C.3       1 RES1    0.0000
     62 H28       -2.9680   18.4001   17.6212 H         1 RES1    0.0000
     63 H29       -4.3513   18.8999   17.0753 H         1 RES1    0.0000
     64 C35       -4.0507   16.9053   16.7416 C.3       1 RES1    0.0000
     65 H30       -4.6889   16.8603   16.0122 H         1 RES1    0.0000
     66 H31       -3.2872   16.3608   16.4922 H         1 RES1    0.0000
     67 C36       -4.6835   16.3013   17.9590 C.3       1 RES1    0.0000
     68 H32       -4.0339   16.3014   18.6804 H         1 RES1    0.0000
     69 H33       -5.4268   16.8596   18.2341 H         1 RES1    0.0000
     70 C37       -5.1769   14.9171   17.7699 C.3       1 RES1    0.0000
     71 H34       -4.4308   14.3632   17.4904 H         1 RES1    0.0000
     72 H35       -5.8226   14.9208   17.0456 H         1 RES1    0.0000
     73 C38       -5.8199   14.2806   18.9809 C.3       1 RES1    0.0000
     74 H36       -6.5529   14.8364   19.2842 H         1 RES1    0.0000
     75 H37       -5.1681   14.2256   19.6973 H         1 RES1    0.0000
     76 C39       -6.3434   12.8810   18.6707 C.3       1 RES1    0.0000
     77 H38       -7.0330   12.9454   17.9920 H         1 RES1    0.0000
     78 H39       -5.6205   12.3451   18.3103 H         1 RES1    0.0000
     79 C40       -6.9098   12.1889   19.8796 C.3       1 RES1    0.0000
     80 H40       -7.2249   11.3168   19.6314 H         1 RES1    0.0000
     81 H41       -6.2276   12.1039   20.5497 H         1 RES1    0.0000
     82 H42       -7.6403   12.7043   20.2313 H         1 RES1    0.0000
     83 C41        1.1894   18.7761   17.1856 C.3       1 RES1    0.0000
     84 H43        1.8952   18.1640   16.9251 H         1 RES1    0.0000
     85 H44        0.5293   18.7905   16.4756 H         1 RES1    0.0000
     86 C42        0.5362   18.2712   18.4667 C.3       1 RES1    0.0000
     87 H45        1.1895   18.2714   19.1844 H         1 RES1    0.0000
     88 H46       -0.1854   18.8688   18.7188 H         1 RES1    0.0000
     89 C43       -0.0073   16.8790   18.2861 C.3       1 RES1    0.0000
     90 H47       -0.6795   16.9065   17.5867 H         1 RES1    0.0000
     91 H48        0.7143   16.3126   17.9698 H         1 RES1    0.0000
     92 C44       -0.6136   16.2333   19.4908 C.3       1 RES1    0.0000
     93 H49       -1.3616   16.7736   19.7911 H         1 RES1    0.0000
     94 H50        0.0451   16.2218   20.2032 H         1 RES1    0.0000
     95 C45       -1.0941   14.8275   19.2507 C.3       1 RES1    0.0000
     96 H51       -0.3529   14.3102   18.8993 H         1 RES1    0.0000
     97 H52       -1.7790   14.8556   18.5635 H         1 RES1    0.0000
     98 C46       -1.6530   14.1045   20.4468 C.3       1 RES1    0.0000
     99 H53       -2.4215   14.5912   20.7814 H         1 RES1    0.0000
    100 H54       -0.9829   14.0860   21.1473 H         1 RES1    0.0000
    101 C47       -2.0747   12.6616   20.1133 C.3       1 RES1    0.0000
    102 H55       -2.7804   12.6838   19.4478 H         1 RES1    0.0000
    103 H56       -1.3188   12.1917   19.7273 H         1 RES1    0.0000
    104 C48       -2.5619   11.8984   21.3179 C.3       1 RES1    0.0000
    105 H57       -2.8109   11.0095   21.0540 H         1 RES1    0.0000
    106 H58       -1.8617   11.8539   21.9725 H         1 RES1    0.0000
    107 H59       -3.3236   12.3460   21.6930 H         1 RES1    0.0000
    108 C49        3.1142   18.8008   12.5647 C.3       1 RES1    0.0000
    109 H60        2.1592   18.7328   12.7172 H         1 RES1    0.0000
    110 H61        3.5558   18.1838   13.1697 H         1 RES1    0.0000
    111 C50        3.4092   18.3961   11.1667 C.3       1 RES1    0.0000
    112 H62        4.3669   18.3199   11.0385 H         1 RES1    0.0000
    113 H63        3.0691   19.0635   10.5506 H         1 RES1    0.0000
    114 C51        2.7408   17.0551   10.9033 C.3       1 RES1    0.0000
    115 H64        1.7996   17.0706   11.1421 H         1 RES1    0.0000
    116 H65        3.1827   16.3342   11.3767 H         1 RES1    0.0000
    117 C52        2.9460   16.9501    9.3800 C.3       1 RES1    0.0000
    118 H66        2.2013   17.3736    8.9174 H         1 RES1    0.0000
    119 H67        3.7602   17.4049    9.1222 H         1 RES1    0.0000
    120 C53        1.4530   15.6740    6.6669 C.3       1 RES1    0.0000
    121 H68        1.7766   15.5014    5.7694 H         1 RES1    0.0000
    122 H69        1.3016   16.6294    6.7474 H         1 RES1    0.0000
    123 C54        0.1440   14.9572    6.8602 C.3       1 RES1    0.0000
    124 H70       -0.4873   15.2593    6.2042 H         1 RES1    0.0000
    125 H71        0.2803   14.0110    6.7611 H         1 RES1    0.0000
    126 H72       -0.1949   15.1398    7.7397 H         1 RES1    0.0000
    127 N1         3.9669   22.9339   13.0759 N.pl3     1 RES1    0.0000
    128 H73        4.8061   23.1107   13.0164 H         1 RES1    0.0000
    129 N2        -0.4450   23.0402   11.3148 N.pl3     1 RES1    0.0000
    130 H74       -0.9858   23.2298   10.6737 H         1 RES1    0.0000
    131 N3        -2.2740   23.0170   15.8420 N.pl3     1 RES1    0.0000
    132 H75       -3.1032   23.2269   15.9313 H         1 RES1    0.0000
    133 N4         2.1506   22.8554   17.5767 N.pl3     1 RES1    0.0000
    134 H76        2.7165   23.0153   18.2043 H         1 RES1    0.0000
    135 N5        -0.7656   20.2567   11.1962 N.3       1 RES1    0.0000
    136 H77       -0.3415   20.6867   10.5840 H         1 RES1    0.0000
    137 N6        -2.5488   20.2317   15.6857 N.3       1 RES1    0.0000
    138 H78       -2.6585   20.6581   16.4239 H         1 RES1    0.0000
    139 N7         1.7418   20.0951   17.3452 N.3       1 RES1    0.0000
    140 H79        1.6995   20.4746   18.1158 H         1 RES1    0.0000
    141 N8         3.5525   20.1618   12.8664 N.3       1 RES1    0.0000
    142 H80        4.0209   20.5849   12.2834 H         1 RES1    0.0000
    143 N9         4.9002   24.6864   10.8544 N.pl3     1 RES1    0.0000
    144 N10        0.4937   24.6336    9.0145 N.pl3     1 RES1    0.0000
    145 N11       -3.1233   24.6051   18.1757 N.pl3     1 RES1    0.0000
    146 N12        1.2888   24.4253   19.9242 N.pl3     1 RES1    0.0000
    147 O1         5.2048   25.2926    9.8325 O.2       1 RES1    0.0000
    148 O2         5.7369   24.4534   11.7616 O.2       1 RES1    0.0000
    149 O3         1.0202   25.2345    8.0691 O.2       1 RES1    0.0000
    150 O4        -0.7042   24.3459    9.0116 O.2       1 RES1    0.0000
    151 O5        -3.9873   24.4080   17.3263 O.2       1 RES1    0.0000
    152 O6        -3.3925   25.2200   19.2018 O.2       1 RES1    0.0000
    153 O7         0.8369   25.0766   20.8586 O.2       1 RES1    0.0000
    154 O8         2.4701   24.0725   19.8995 O.2       1 RES1    0.0000
    155 C55        3.0206   15.4763    8.9912 C.3       1 RES1    0.0000
    156 H81        3.9461   15.1811    9.0293 H         1 RES1    0.0000
    157 H82        2.5108   14.9467    9.6215 H         1 RES1    0.0000
    158 C56        2.5013   15.2693    7.6421 C.3       1 RES1    0.0000
    159 H83        2.3839   14.3071    7.6412 H         1 RES1    0.0000
    160 H84        3.3016   15.4162    7.1157 H         1 RES1    0.0000
    161 H85        4.2939   18.7186   10.9371 Du        2 SUP2    0.0000
    162 H86        2.7761   18.8416   10.5821 Du        2 SUP2    0.0000
    163 C57        2.1803   15.8038    8.9465 Du        2 SUP2    0.0000
    164 H87        1.9161   15.0966    9.5560 Du        2 SUP2    0.0000
    165 H88        1.4572   16.4515    8.8870 Du        2 SUP2    0.0000
    166 C58        3.3549   16.9037   10.8778 Du        2 SUP2    0.0000
    167 H89        2.5107   16.5614   11.2166 Du        2 SUP2    0.0000
    168 H90        4.0615   16.4726   11.3868 Du        2 SUP2    0.0000
    169 C59        3.4933   16.4774    9.4118 Du        2 SUP2    0.0000
    170 H91        4.2307   15.8561    9.3121 Du        2 SUP2    0.0000
    171 H92        3.6747   17.2543    8.8565 Du        2 SUP2    0.0000
    172 H93        2.5508   14.3024    7.6876 Du        2 SUP2    0.0000
    173 H94        3.3638   15.6060    7.3552 Du        2 SUP2    0.0000
@<TRIPOS>BOND
     1    1    2 1
     2    3    1 ar
     3    4    3 ar
     4    5    4 ar
     5    6    5 1
     6    7    5 ar
     7    8    1 ar
     8    9   10 ar
     9   10   11 ar
    10   11   12 1
    11   13   11 ar
    12   14   13 ar
    13   15    9 ar
    14   16   15 1
    15   17   18 ar
    16   18   19 ar
    17   19   20 1
    18   21   19 ar
    19   22   21 ar
    20   23   17 ar
    21   24   23 1
    22   25   26 ar
    23   26   27 ar
    24   27   28 1
    25   29   27 ar
    26   30   29 ar
    27   31   25 ar
    28   32   31 1
    29   33   34 1
    30   35   33 1
    31   36   33 1
    32   37   36 1
    33   38   36 1
    34   39   36 1
    35   40   39 1
    36   41   39 1
    37   42   39 1
    38   43   42 1
    39   44   42 1
    40   45   42 1
    41   46   45 1
    42   47   45 1
    43   48   45 1
    44   49   48 1
    45   50   48 1
    46   51   48 1
    47   52   51 1
    48   53   51 1
    49   54   51 1
    50   55   54 1
    51   56   54 1
    52   57   54 1
    53   58   59 1
    54   60   58 1
    55   61   58 1
    56   62   61 1
    57   63   61 1
    58   64   61 1
    59   65   64 1
    60   66   64 1
    61   67   64 1
    62   68   67 1
    63   69   67 1
    64   70   67 1
    65   71   70 1
    66   72   70 1
    67   73   70 1
    68   74   73 1
    69   75   73 1
    70   76   73 1
    71   77   76 1
    72   78   76 1
    73   79   76 1
    74   80   79 1
    75   81   79 1
    76   82   79 1
    77   83   84 1
    78   85   83 1
    79   86   83 1
    80   87   86 1
    81   88   86 1
    82   89   86 1
    83   90   89 1
    84   91   89 1
    85   92   89 1
    86   93   92 1
    87   94   92 1
    88   95   92 1
    89   96   95 1
    90   97   95 1
    91   98   95 1
    92   99   98 1
    93  100   98 1
    94  101   98 1
    95  102  101 1
    96  103  101 1
    97  104  101 1
    98  105  104 1
    99  106  104 1
   100  107  104 1
   101  108  109 1
   102  110  108 1
   103  111  108 1
   104  112  111 1
   105  113  111 1
   106  114  111 1
   107  115  114 1
   108  116  114 1
   109  117  114 1
   110  118  117 1
   111  119  117 1
   112  120  121 1
   113  122  120 1
   114  123  120 1
   115  124  123 1
   116  125  123 1
   117  126  123 1
   118  127    3 1
   119  128  127 1
   120  129    8 1
   121  130  129 1
   122  131   14 1
   123  132  131 1
   124  133   22 1
   125  134  133 1
   126  135   10 1
   127  136  135 1
   128  137   13 1
   129  138  137 1
   130  139   26 1
   131  140  139 1
   132  141   29 1
   133  142  141 1
   134  143    4 1
   135  144    7 1
   136  145   18 1
   137  146   21 1
   138  147  143 2
   139  148  143 2
   140  149  144 2
   141  150  144 2
   142  151  145 2
   143  152  145 2
   144  153  146 2
   145  154  146 2
   146  155  117 1
   147  156  155 1
   148  157  155 1
   149  158  120 1
   150  159  158 1
   151  160  158 1
   152    7    8 ar
   153    9  129 1
   154   14   15 ar
   155   17  131 1
   156   22   23 ar
   157   25  133 1
   158   30   31 ar
   159   30  127 1
   160   33  135 1
   161   58  137 1
   162   83  139 1
   163  108  141 1
   164  155  158 1
@<TRIPOS>SUBSTRUCTURE
     1 RES1 1
     2 SUP2 161

@<TRIPOS>CRYSIN
   9.0220   30.8970   22.7090  90.0000 110.6810  90.0000  14 1

