# MOL2 file generated by ConQuest
# Please check atom types

@<TRIPOS>MOLECULE
BAVTAT
    38    40     1
SMALL
NO_CHARGES
****
Generated from CSD

@<TRIPOS>ATOM
      1 O1         5.9783   -2.3354    6.4508 O.3       1 RES1    0.0000
      2 O2         4.9382   -2.6949    2.5155 O.2       1 RES1    0.0000
      3 O3         5.7814   -0.7300    2.0889 O.2       1 RES1    0.0000
      4 O4         8.6372   -2.1161    5.2004 O.3       1 RES1    0.0000
      5 O5         7.2863    2.1952    6.0622 O.2       1 RES1    0.0000
      6 O6         6.9631    1.2781    8.0469 O.3       1 RES1    0.0000
      7 N1         5.0465   -3.6546    4.9750 N.3       1 RES1    0.0000
      8 N2         5.5205   -1.6526    2.8995 N.pl3     1 RES1    0.0000
      9 C1         5.6256   -2.4880    5.1482 C.2       1 RES1    0.0000
     10 C2         5.9124   -1.4944    4.2221 C.2       1 RES1    0.0000
     11 C3         6.6567   -0.2272    4.5774 C.3       1 RES1    0.0000
     12 C4         6.6336   -0.0769    6.0777 C.2       1 RES1    0.0000
     13 C5         6.9855    1.2005    6.6529 C.2       1 RES1    0.0000
     14 C6         6.6567    0.2204    8.8484 C.2       1 RES1    0.0000
     15 C7         6.3686   -0.9744    8.3220 C.2       1 RES1    0.0000
     16 C8         6.3420   -1.0897    6.9061 C.2       1 RES1    0.0000
     17 C9         8.0792   -0.1594    4.0177 C.ar      1 RES1    0.0000
     18 C10        9.0511   -1.1146    4.3642 C.ar      1 RES1    0.0000
     19 C11       10.3414   -0.9993    3.8589 C.ar      1 RES1    0.0000
     20 C12       10.6625    0.0577    3.0205 C.ar      1 RES1    0.0000
     21 C13        9.7248    0.9981    2.6696 C.ar      1 RES1    0.0000
     22 C14        8.4393    0.8840    3.1793 C.ar      1 RES1    0.0000
     23 C15        9.6285   -2.9899    5.7168 C.3       1 RES1    0.0000
     24 C16        6.6780    0.5901   10.2865 C.3       1 RES1    0.0000
     25 H1         4.7448   -3.8253    4.1754 H         1 RES1    0.0000
     26 H2         4.9059   -4.1169    5.6113 H         1 RES1    0.0000
     27 H3         6.1668    0.5833    4.1499 H         1 RES1    0.0000
     28 H4         6.1576   -1.7453    8.8928 H         1 RES1    0.0000
     29 H5        10.9528   -1.6515    4.0944 H         1 RES1    0.0000
     30 H6        11.5184    0.0599    2.6985 H         1 RES1    0.0000
     31 H7         9.9133    1.7476    2.0355 H         1 RES1    0.0000
     32 H8         7.7665    1.5520    2.9639 H         1 RES1    0.0000
     33 H9        10.0335   -3.5551    4.9228 H         1 RES1    0.0000
     34 H10       10.3399   -2.5050    6.1310 H         1 RES1    0.0000
     35 H11        9.1793   -3.5698    6.3265 H         1 RES1    0.0000
     36 H12        6.3852   -0.1526   10.8339 H         1 RES1    0.0000
     37 H13        7.6889    0.7212   10.5341 H         1 RES1    0.0000
     38 H14        6.1035    1.3158   10.4830 H         1 RES1    0.0000
@<TRIPOS>BOND
     1    1    9 1
     2    2    8 2
     3    3    8 2
     4    4   18 1
     5    5   13 2
     6    6   13 1
     7    7    9 1
     8    8   10 1
     9    9   10 2
    10   10   11 1
    11   11   12 1
    12   12   13 1
    13   14    6 1
    14   15   14 2
    15   16    1 1
    16   17   11 1
    17   18   17 ar
    18   19   18 ar
    19   20   19 ar
    20   21   20 ar
    21   22   17 ar
    22   23    4 1
    23   24   14 1
    24   25    7 1
    25   26    7 1
    26   27   11 1
    27   28   15 1
    28   29   19 1
    29   30   20 1
    30   31   21 1
    31   32   22 1
    32   33   23 1
    33   34   23 1
    34   35   23 1
    35   36   24 1
    36   37   24 1
    37   38   24 1
    38   12   16 2
    39   15   16 1
    40   21   22 ar
@<TRIPOS>SUBSTRUCTURE
     1 RES1 1

@<TRIPOS>CRYSIN
  11.7990   11.3040   11.4190  90.0000 103.4700  90.0000  14 1

