# MOL2 file generated by ConQuest
# Please check atom types

@<TRIPOS>MOLECULE
BAWCEI
    96    98     2
SMALL
NO_CHARGES
****
Generated from CSD

@<TRIPOS>ATOM
      1 C1         1.3586    7.4004    4.2735 C.3       1 RES1    0.0000
      2 C2         1.9782    7.5259    2.8769 C.3       1 RES1    0.0000
      3 C3         3.3863    8.0917    2.9195 C.3       1 RES1    0.0000
      4 C4         4.2399    7.1761    3.7664 C.3       1 RES1    0.0000
      5 C5         3.7061    6.9823    5.1883 C.3       1 RES1    0.0000
      6 C6         0.0301    6.6526    4.1561 C.3       1 RES1    0.0000
      7 C7         1.0078    8.7843    4.8473 C.3       1 RES1    0.0000
      8 C8         4.4901    5.8447    5.8297 C.3       1 RES1    0.0000
      9 C9         3.9690    8.2345    6.0538 C.3       1 RES1    0.0000
     10 C10        1.0960    5.3905    6.8727 C.3       1 RES1    0.0000
     11 C11       -0.0156    5.7969    7.8168 C.ar      1 RES1    0.0000
     12 C12       -0.0314    7.0274    8.4668 C.ar      1 RES1    0.0000
     13 C13       -1.0431    7.3447    9.3616 C.ar      1 RES1    0.0000
     14 C14       -2.0494    6.4397    9.6278 C.ar      1 RES1    0.0000
     15 C15       -2.0370    5.2124    8.9858 C.ar      1 RES1    0.0000
     16 C16       -1.0458    4.8973    8.0902 C.ar      1 RES1    0.0000
     17 C17        2.0454    4.4081    7.5354 C.3       1 RES1    0.0000
     18 C18        3.2963    1.5512    3.2850 C.3       2 RES2    0.0000
     19 C19        2.8054    1.2712    4.7085 C.3       2 RES2    0.0000
     20 C20        3.7515    0.4280    5.5189 C.3       2 RES2    0.0000
     21 C21        5.1024    1.1224    5.5684 C.3       2 RES2    0.0000
     22 C22        5.6908    1.3384    4.1648 C.3       2 RES2    0.0000
     23 C23        2.4097    2.6228    2.6528 C.3       2 RES2    0.0000
     24 C24        3.1520    0.3042    2.3885 C.3       2 RES2    0.0000
     25 C25        6.9595    2.1795    4.2922 C.3       2 RES2    0.0000
     26 C26        6.1354    0.0064    3.5422 C.3       2 RES2    0.0000
     27 C27        5.7475    3.4354    1.6306 C.3       2 RES2    0.0000
     28 C28        6.9111    3.1463    0.7139 C.ar      2 RES2    0.0000
     29 C29        7.0180    1.9551    0.0133 C.ar      2 RES2    0.0000
     30 C30        8.0631    1.7354   -0.8658 C.ar      2 RES2    0.0000
     31 C31        9.0297    2.7004   -1.0563 C.ar      2 RES2    0.0000
     32 C32        8.9370    3.8820   -0.3631 C.ar      2 RES2    0.0000
     33 C33        7.8988    4.1100    0.5164 C.ar      2 RES2    0.0000
     34 C34        4.7192    4.3200    0.9398 C.3       2 RES2    0.0000
     35 N1         2.2727    6.5660    5.1075 N.3       1 RES1    0.0000
     36 N2         4.6853    2.1136    3.3628 N.3       2 RES2    0.0000
     37 O1         1.7624    6.6117    6.4671 O.3       1 RES1    0.0000
     38 O2         0.1222    5.3159    3.6737 O.3       1 RES1    0.0000
     39 O3         4.2841    4.6028    5.1572 O.3       1 RES1    0.0000
     40 O4         5.1810    2.1527    1.9973 O.3       2 RES2    0.0000
     41 O5         2.3609    3.8576    3.3627 O.3       2 RES2    0.0000
     42 O6         6.7218    3.4612    4.8799 O.3       2 RES2    0.0000
     43 H1         2.0149    6.6271    2.4640 H         1 RES1    0.0000
     44 H2         1.3800    8.1027    2.3377 H         1 RES1    0.0000
     45 H3         3.8209    8.1667    2.0732 H         1 RES1    0.0000
     46 H4         3.3911    9.0218    3.3280 H         1 RES1    0.0000
     47 H5         5.1669    7.5315    3.8618 H         1 RES1    0.0000
     48 H6         4.3369    6.3167    3.3364 H         1 RES1    0.0000
     49 H7         1.0223    4.9974    3.6665 H         1 RES1    0.0000
     50 H8        -0.4183    6.6607    5.0324 H         1 RES1    0.0000
     51 H9        -0.5410    7.1557    3.5250 H         1 RES1    0.0000
     52 H10        0.7796    8.7133    5.7768 H         1 RES1    0.0000
     53 H11        0.2510    9.1582    4.3536 H         1 RES1    0.0000
     54 H12        1.7430    9.4793    4.6905 H         1 RES1    0.0000
     55 H13        5.1628    4.1859    5.0155 H         1 RES1    0.0000
     56 H14        5.5494    6.0599    5.7801 H         1 RES1    0.0000
     57 H15        4.1970    5.7434    6.7873 H         1 RES1    0.0000
     58 H16        3.7551    9.1307    5.5730 H         1 RES1    0.0000
     59 H17        4.9905    8.2355    6.1843 H         1 RES1    0.0000
     60 H18        3.4417    8.2062    6.8715 H         1 RES1    0.0000
     61 H19        2.6560    2.2014    5.1503 H         2 RES2    0.0000
     62 H20        1.9250    0.8367    4.5978 H         2 RES2    0.0000
     63 H21        3.8420   -0.4930    5.1183 H         2 RES2    0.0000
     64 H22        3.3707    0.2943    6.4134 H         2 RES2    0.0000
     65 H23        5.7672    0.5869    6.0749 H         2 RES2    0.0000
     66 H24        4.9411    2.0261    6.0008 H         2 RES2    0.0000
     67 H25        2.7150    2.7747    1.6892 H         2 RES2    0.0000
     68 H26        1.4323    2.2690    2.6526 H         2 RES2    0.0000
     69 H27        5.4782   -0.7515    3.6985 H         2 RES2    0.0000
     70 H28        6.9817   -0.2709    3.9208 H         2 RES2    0.0000
     71 H29        6.3795    0.1496    2.6004 H         2 RES2    0.0000
     72 H30        0.7002    4.9550    6.0698 H         1 RES1    0.0000
     73 H31        4.3371    3.8174    0.1448 H         2 RES2    0.0000
     74 H32        5.2114    5.1245    0.5878 H         2 RES2    0.0000
     75 H33        3.9805    4.5789    1.5393 H         2 RES2    0.0000
     76 H34        0.7076    7.6797    8.3435 H         1 RES1    0.0000
     77 H35       -1.0884    8.2299    9.7599 H         1 RES1    0.0000
     78 H36       -2.7692    6.6450   10.2348 H         1 RES1    0.0000
     79 H37       -2.7577    4.5707    9.1451 H         1 RES1    0.0000
     80 H38       -1.0387    4.0831    7.6462 H         1 RES1    0.0000
     81 H39        2.7442    4.0613    6.8681 H         1 RES1    0.0000
     82 H40        1.4950    3.6234    7.8786 H         1 RES1    0.0000
     83 H41        2.5299    4.9264    8.2660 H         1 RES1    0.0000
     84 H42        2.1465    0.1250    2.2332 H         2 RES2    0.0000
     85 H43        3.5336   -0.5233    2.8530 H         2 RES2    0.0000
     86 H44        3.5805    0.4460    1.4956 H         2 RES2    0.0000
     87 H45        7.6047    1.6786    4.8353 H         2 RES2    0.0000
     88 H46        7.3969    2.2884    3.4172 H         2 RES2    0.0000
     89 H47        3.1072    3.9997    3.7945 H         2 RES2    0.0000
     90 H48        7.3315    4.0497    4.4261 H         2 RES2    0.0000
     91 H49        6.1041    3.8768    2.4488 H         2 RES2    0.0000
     92 H50        6.3255    1.2384    0.1331 H         2 RES2    0.0000
     93 H51        8.1624    0.9001   -1.2968 H         2 RES2    0.0000
     94 H52        9.7320    2.5242   -1.6471 H         2 RES2    0.0000
     95 H53        9.6231    4.5674   -0.4598 H         2 RES2    0.0000
     96 H54        7.8625    4.9086    1.0290 H         2 RES2    0.0000
@<TRIPOS>BOND
     1    1    2 1
     2    2    3 1
     3    3    4 1
     4    4    5 1
     5    5    8 1
     6    6    1 1
     7    7    1 1
     8    8   39 1
     9    9    5 1
    10   10   11 1
    11   11   12 ar
    12   12   13 ar
    13   13   14 ar
    14   14   15 ar
    15   15   16 ar
    16   16   11 ar
    17   17   10 1
    18   18   19 1
    19   19   20 1
    20   20   21 1
    21   21   22 1
    22   22   25 1
    23   23   18 1
    24   24   18 1
    25   25   42 1
    26   26   22 1
    27   27   28 1
    28   28   29 ar
    29   29   30 ar
    30   30   31 ar
    31   31   32 ar
    32   32   33 ar
    33   33   28 ar
    34   34   27 1
    35   35    1 1
    36   36   18 1
    37   37   10 1
    38   38    6 1
    39   39   55 1
    40   40   27 1
    41   41   23 1
    42   42   90 1
    43   43    2 1
    44   44    2 1
    45   45    3 1
    46   46    3 1
    47   47    4 1
    48   48    4 1
    49   49   38 1
    50   50    6 1
    51   51    6 1
    52   52    7 1
    53   53    7 1
    54   54    7 1
    55   56    8 1
    56   57    8 1
    57   58    9 1
    58   59    9 1
    59   60    9 1
    60   61   19 1
    61   62   19 1
    62   63   20 1
    63   64   20 1
    64   65   21 1
    65   66   21 1
    66   67   23 1
    67   68   23 1
    68   69   26 1
    69   70   26 1
    70   71   26 1
    71   72   10 1
    72   73   34 1
    73   74   34 1
    74   75   34 1
    75   76   12 1
    76   77   13 1
    77   78   14 1
    78   79   15 1
    79   80   16 1
    80   81   17 1
    81   82   17 1
    82   83   17 1
    83   84   24 1
    84   85   24 1
    85   86   24 1
    86   87   25 1
    87   88   25 1
    88   89   41 1
    89   91   27 1
    90   92   29 1
    91   93   30 1
    92   94   31 1
    93   95   32 1
    94   96   33 1
    95    5   35 1
    96   22   36 1
    97   35   37 1
    98   36   40 1
@<TRIPOS>SUBSTRUCTURE
     1 RES1 1
     2 RES2 18

@<TRIPOS>CRYSIN
   8.1750   11.9156   17.9130 109.2570  94.0310  92.5580   2 1

