# MOL2 file generated by ConQuest
# Please check atom types

@<TRIPOS>MOLECULE
BAWCIM
   108   110     2
SMALL
NO_CHARGES
****
Generated from CSD

@<TRIPOS>ATOM
      1 C1         3.4288   12.9474   13.3827 C.3       1 RES1    0.0000
      2 C2         4.8769   12.6244   13.7482 C.3       1 RES1    0.0000
      3 H1         5.4673   12.9077   13.0069 H         1 RES1    0.0000
      4 H2         5.1304   13.1449   14.5520 H         1 RES1    0.0000
      5 C3         5.1027   11.1403   14.0252 C.3       1 RES1    0.0000
      6 H3         6.0516   10.9750   14.2563 H         1 RES1    0.0000
      7 H4         4.5377   10.8441   14.7812 H         1 RES1    0.0000
      8 C4         4.7309   10.3883   12.7671 C.3       1 RES1    0.0000
      9 H5         4.8975    9.4233   12.9132 H         1 RES1    0.0000
     10 H6         5.3217   10.6859   12.0310 H         1 RES1    0.0000
     11 C5         3.2881   10.5740   12.3373 C.3       1 RES1    0.0000
     12 C6         1.2652   12.4633   10.6377 C.3       1 RES1    0.0000
     13 H7         2.0671   12.3023   10.0620 H         1 RES1    0.0000
     14 C7         0.1709   11.4869   10.2759 C.ar      1 RES1    0.0000
     15 C8         0.0374   10.9850    8.9883 C.ar      1 RES1    0.0000
     16 H8         0.6384   11.2755    8.3123 H         1 RES1    0.0000
     17 C9        -0.9545   10.0676    8.6662 C.ar      1 RES1    0.0000
     18 H9        -1.0398    9.7555    7.7726 H         1 RES1    0.0000
     19 C10       -1.8026    9.6160    9.6177 C.ar      1 RES1    0.0000
     20 H10       -2.4622    8.9661    9.4065 H         1 RES1    0.0000
     21 C11       -1.6990   10.1050   10.8814 C.ar      1 RES1    0.0000
     22 H11       -2.3084    9.8073   11.5480 H         1 RES1    0.0000
     23 C12       -0.7229   11.0253   11.2155 C.ar      1 RES1    0.0000
     24 H12       -0.6696   11.3460   12.1074 H         1 RES1    0.0000
     25 C13        3.3779   14.3802   12.8051 C.3       1 RES1    0.0000
     26 H13        2.4331   14.6232   12.6348 H         1 RES1    0.0000
     27 H14        3.7329   15.0101   13.4800 H         1 RES1    0.0000
     28 C14        2.5103   12.8775   14.6045 C.3       1 RES1    0.0000
     29 H15        2.6848   12.0247   15.0770 H         1 RES1    0.0000
     30 H16        1.5722   12.8530   14.2884 H         1 RES1    0.0000
     31 C15        2.6488   14.0308   15.6199 C.3       1 RES1    0.0000
     32 H17        3.5935   14.1472   15.8557 H         1 RES1    0.0000
     33 H18        2.1337   13.8194   16.4274 H         1 RES1    0.0000
     34 H19        2.3063   14.8591   15.2224 H         1 RES1    0.0000
     35 C16        3.1323    9.9663   10.9326 C.3       1 RES1    0.0000
     36 H20        3.4189    9.0193   10.9689 H         1 RES1    0.0000
     37 H21        2.1732    9.9784   10.6904 H         1 RES1    0.0000
     38 C17        2.3119    9.8533   13.3024 C.3       1 RES1    0.0000
     39 H22        2.5891   10.0546   14.2317 H         1 RES1    0.0000
     40 H23        1.4079   10.2373   13.1745 H         1 RES1    0.0000
     41 C18        2.2106    8.3304   13.1520 C.3       1 RES1    0.0000
     42 H24        1.8093    8.1147   12.2848 H         1 RES1    0.0000
     43 H25        1.6533    7.9681   13.8694 H         1 RES1    0.0000
     44 H26        3.1069    7.9379   13.2040 H         1 RES1    0.0000
     45 C19        0.7757   13.8956   10.4501 C.3       1 RES1    0.0000
     46 H27        0.0187   14.0624   11.0477 H         1 RES1    0.0000
     47 H28        0.4949   14.0250    9.5198 H         1 RES1    0.0000
     48 H29        1.5015   14.5182   10.6608 H         1 RES1    0.0000
     49 C20        7.8750   10.6931    8.5799 C.3       2 RES2    0.0000
     50 C21        8.4128   11.0900    9.9494 C.3       2 RES2    0.0000
     51 H30        7.7382   10.8614   10.6362 H         2 RES2    0.0000
     52 H31        9.2272   10.5608   10.1384 H         2 RES2    0.0000
     53 C22        8.7497   12.5712   10.0603 C.3       2 RES2    0.0000
     54 H32        9.0754   12.7811   10.9713 H         2 RES2    0.0000
     55 H33        9.4559   12.8113    9.4114 H         2 RES2    0.0000
     56 C23        7.4864   13.3419    9.7665 C.3       2 RES2    0.0000
     57 H34        7.6696   14.3083    9.8772 H         2 RES2    0.0000
     58 H35        6.7961   13.0889   10.4292 H         2 RES2    0.0000
     59 C24        6.9371   13.1061    8.3746 C.3       2 RES2    0.0000
     60 C25        5.2007   10.7472    6.5323 C.3       2 RES2    0.0000
     61 H36        4.8496   10.3466    7.3783 H         2 RES2    0.0000
     62 C26        4.1935   11.7219    5.9743 C.ar      2 RES2    0.0000
     63 C27        2.9420   11.8363    6.5185 C.ar      2 RES2    0.0000
     64 H37        2.7180   11.3201    7.2822 H         2 RES2    0.0000
     65 C28        1.9964   12.6934    5.9753 C.ar      2 RES2    0.0000
     66 H38        1.1251   12.7380    6.3507 H         2 RES2    0.0000
     67 C29        2.3188   13.4728    4.8994 C.ar      2 RES2    0.0000
     68 H39        1.6782   14.0696    4.5344 H         2 RES2    0.0000
     69 C30        3.5686   13.3894    4.3535 C.ar      2 RES2    0.0000
     70 H40        3.7953   13.9287    3.6054 H         2 RES2    0.0000
     71 C31        4.5117   12.5208    4.8861 C.ar      2 RES2    0.0000
     72 H41        5.3799   12.4734    4.5024 H         2 RES2    0.0000
     73 C32        7.2347    9.3026    8.7332 C.3       2 RES2    0.0000
     74 H42        6.8772    9.0121    7.8564 H         2 RES2    0.0000
     75 H43        7.9295    8.6526    9.0072 H         2 RES2    0.0000
     76 C33        9.0036   10.6313    7.5402 C.3       2 RES2    0.0000
     77 H44        8.5867   10.5479    6.6464 H         2 RES2    0.0000
     78 H45        9.4809   11.4984    7.5607 H         2 RES2    0.0000
     79 C34       10.0278    9.5427    7.6688 C.3       2 RES2    0.0000
     80 H46       10.3626    9.5168    8.5908 H         2 RES2    0.0000
     81 H47       10.7723    9.7210    7.0555 H         2 RES2    0.0000
     82 H48        9.6181    8.6813    7.4448 H         2 RES2    0.0000
     83 C35        5.5448   13.7317    8.2763 C.3       2 RES2    0.0000
     84 H49        5.6316   14.7124    8.3788 H         2 RES2    0.0000
     85 H50        5.1844   13.5577    7.3709 H         2 RES2    0.0000
     86 C36        7.8143   13.7532    7.2736 C.3       2 RES2    0.0000
     87 H51        8.6636   13.2485    7.2181 H         2 RES2    0.0000
     88 H52        7.3493   13.6497    6.4049 H         2 RES2    0.0000
     89 C37        8.1437   15.2171    7.4606 C.3       2 RES2    0.0000
     90 H53        7.3306   15.7075    7.6987 H         2 RES2    0.0000
     91 H54        8.5118   15.5795    6.6267 H         2 RES2    0.0000
     92 H55        8.8050   15.3149    8.1767 H         2 RES2    0.0000
     93 C38        5.4639    9.6462    5.5120 C.3       2 RES2    0.0000
     94 H56        5.8333   10.0403    4.6946 H         2 RES2    0.0000
     95 H57        4.6230    9.1875    5.3033 H         2 RES2    0.0000
     96 H58        6.1036    9.0034    5.8824 H         2 RES2    0.0000
     97 N1         3.0443   12.0585   12.2282 N.3       1 RES1    0.0000
     98 N2         6.7331   11.6232    8.2036 N.3       2 RES2    0.0000
     99 O1         1.6158   12.2709   12.0313 O.3       1 RES1    0.0000
    100 O2         4.1147   14.5348   11.6049 O.3       1 RES1    0.0000
    101 O3         3.8639   10.6198    9.8996 O.3       1 RES1    0.0000
    102 O4         6.4780   11.3831    6.7849 O.3       2 RES2    0.0000
    103 O5         6.1872    9.2932    9.6908 O.3       2 RES2    0.0000
    104 O6         4.6040   13.2571    9.2359 O.3       2 RES2    0.0000
    105 H59        4.7623   12.4015    9.0417 H         2 RES2    0.0000
    106 H60        4.0344   13.8481   11.0182 H         1 RES1    0.0000
    107 H61        4.6812   10.2243    9.9190 H         1 RES1    0.0000
    108 H62        6.3012    8.6856   10.3602 H         2 RES2    0.0000
@<TRIPOS>BOND
     1    1    2 1
     2    2    3 1
     3    4    2 1
     4    5    2 1
     5    6    5 1
     6    7    5 1
     7    8    5 1
     8    9    8 1
     9   10    8 1
    10   11    8 1
    11   12   13 1
    12   14   12 1
    13   15   14 ar
    14   16   15 1
    15   17   15 ar
    16   18   17 1
    17   19   17 ar
    18   20   19 1
    19   21   19 ar
    20   22   21 1
    21   23   14 ar
    22   24   23 1
    23   25    1 1
    24   26   25 1
    25   27   25 1
    26   28    1 1
    27   29   28 1
    28   30   28 1
    29   31   28 1
    30   32   31 1
    31   33   31 1
    32   34   31 1
    33   35   11 1
    34   36   35 1
    35   37   35 1
    36   38   11 1
    37   39   38 1
    38   40   38 1
    39   41   38 1
    40   42   41 1
    41   43   41 1
    42   44   41 1
    43   45   12 1
    44   46   45 1
    45   47   45 1
    46   48   45 1
    47   49   50 1
    48   50   51 1
    49   52   50 1
    50   53   50 1
    51   54   53 1
    52   55   53 1
    53   56   53 1
    54   57   56 1
    55   58   56 1
    56   59   56 1
    57   60   61 1
    58   62   60 1
    59   63   62 ar
    60   64   63 1
    61   65   63 ar
    62   66   65 1
    63   67   65 ar
    64   68   67 1
    65   69   67 ar
    66   70   69 1
    67   71   62 ar
    68   72   71 1
    69   73   49 1
    70   74   73 1
    71   75   73 1
    72   76   49 1
    73   77   76 1
    74   78   76 1
    75   79   76 1
    76   80   79 1
    77   81   79 1
    78   82   79 1
    79   83   59 1
    80   84   83 1
    81   85   83 1
    82   86   59 1
    83   87   86 1
    84   88   86 1
    85   89   86 1
    86   90   89 1
    87   91   89 1
    88   92   89 1
    89   93   60 1
    90   94   93 1
    91   95   93 1
    92   96   93 1
    93   97    1 1
    94   98   49 1
    95   99   12 1
    96  100   25 1
    97  101   35 1
    98  102   60 1
    99  103   73 1
   100  104   83 1
   101  105  104 1
   102  106  100 1
   103  107  101 1
   104  108  103 1
   105   11   97 1
   106   21   23 ar
   107   59   98 1
   108   69   71 ar
   109   97   99 1
   110   98  102 1
@<TRIPOS>SUBSTRUCTURE
     1 RES1 1
     2 RES2 49

@<TRIPOS>CRYSIN
  20.7960   14.3802   24.6436  90.0000  90.0000  90.0000  61 1

