# MOL2 file generated by ConQuest
# Please check atom types

@<TRIPOS>MOLECULE
BAWJIT
    38    39     1
SMALL
NO_CHARGES
****
Generated from CSD

@<TRIPOS>ATOM
      1 O1         3.3429    3.1103    3.5224 O.2       1 RES1    0.0000
      2 O2         2.0192    0.5136    5.6732 O.3       1 RES1    0.0000
      3 O3        -0.9067    4.5896    4.1808 O.2       1 RES1    0.0000
      4 O4        -1.1070    4.5595    6.3033 O.2       1 RES1    0.0000
      5 N1        -0.8783    4.0103    5.2471 N.pl3     1 RES1    0.0000
      6 C1         3.2009    3.5364    4.6513 C.2       1 RES1    0.0000
      7 C2         1.9165    3.3113    5.4064 C.3       1 RES1    0.0000
      8 H1         1.5046    4.1700    5.5903 H         1 RES1    0.0000
      9 H2         2.1207    2.8927    6.2578 H         1 RES1    0.0000
     10 C3         0.9125    2.4299    4.6453 C.3       1 RES1    0.0000
     11 H3         0.8693    2.7638    3.7254 H         1 RES1    0.0000
     12 C4        -0.5236    2.5179    5.2404 C.3       1 RES1    0.0000
     13 C5         1.3645    1.0052    4.5825 C.2       1 RES1    0.0000
     14 C6         2.3072   -0.7997    5.3823 C.2       1 RES1    0.0000
     15 H4         2.7542   -1.3806    5.9544 H         1 RES1    0.0000
     16 C7         1.8699   -1.1231    4.1903 C.2       1 RES1    0.0000
     17 H5         1.9526   -1.9497    3.7710 H         1 RES1    0.0000
     18 C8         1.2441    0.0390    3.6642 C.2       1 RES1    0.0000
     19 H6         0.8274    0.1148    2.8358 H         1 RES1    0.0000
     20 C9         4.2878    4.3060    5.3192 C.ar      1 RES1    0.0000
     21 C10        4.1823    4.7827    6.6091 C.ar      1 RES1    0.0000
     22 H7         3.4056    4.6268    7.0976 H         1 RES1    0.0000
     23 C11        5.2252    5.4919    7.1821 C.ar      1 RES1    0.0000
     24 H8         5.1416    5.8173    8.0490 H         1 RES1    0.0000
     25 C12        6.3803    5.7175    6.4767 C.ar      1 RES1    0.0000
     26 H9         7.0831    6.1822    6.8711 H         1 RES1    0.0000
     27 C13        6.4969    5.2626    5.2013 C.ar      1 RES1    0.0000
     28 H10        7.2785    5.4243    4.7234 H         1 RES1    0.0000
     29 C14        5.4605    4.5608    4.6094 C.ar      1 RES1    0.0000
     30 H11        5.5476    4.2580    3.7341 H         1 RES1    0.0000
     31 C15       -1.5526    1.8771    4.3150 C.3       1 RES1    0.0000
     32 H12       -2.4340    2.0301    4.6628 H         1 RES1    0.0000
     33 H13       -1.3890    0.9328    4.2597 H         1 RES1    0.0000
     34 H14       -1.4817    2.2662    3.4405 H         1 RES1    0.0000
     35 C16       -0.6221    1.9839    6.6489 C.3       1 RES1    0.0000
     36 H15       -0.3989    1.0501    6.6533 H         1 RES1    0.0000
     37 H16       -1.5186    2.1003    6.9730 H         1 RES1    0.0000
     38 H17       -0.0120    2.4614    7.2157 H         1 RES1    0.0000
@<TRIPOS>BOND
     1    1    6 2
     2    2   13 1
     3    3    5 2
     4    4    5 2
     5    5   12 1
     6    6    7 1
     7    7    8 1
     8    9    7 1
     9   10    7 1
    10   11   10 1
    11   12   10 1
    12   13   10 1
    13   14    2 1
    14   15   14 1
    15   16   14 2
    16   17   16 1
    17   18   13 2
    18   19   18 1
    19   20    6 1
    20   21   20 ar
    21   22   21 1
    22   23   21 ar
    23   24   23 1
    24   25   23 ar
    25   26   25 1
    26   27   25 ar
    27   28   27 1
    28   29   20 ar
    29   30   29 1
    30   31   12 1
    31   32   31 1
    32   33   31 1
    33   34   31 1
    34   35   12 1
    35   36   35 1
    36   37   35 1
    37   38   35 1
    38   16   18 1
    39   27   29 ar
@<TRIPOS>SUBSTRUCTURE
     1 RES1 1

@<TRIPOS>CRYSIN
  10.8500   12.7600   11.2380  90.0000 105.3700  90.0000  14 1

