# MOL2 file generated by ConQuest
# Please check atom types

@<TRIPOS>MOLECULE
BAWTEB
    45    48     1
SMALL
NO_CHARGES
****
Generated from CSD

@<TRIPOS>ATOM
      1 O1         0.6816    3.9428   11.1216 O.3       1 RES1    0.0000
      2 O2         6.2449    7.5297   11.1715 O.2       1 RES1    0.0000
      3 O3         2.8667    4.6157    8.5363 O.2       1 RES1    0.0000
      4 O4         3.6339    3.6618   10.3155 O.2       1 RES1    0.0000
      5 N1         3.0026    4.5487    9.7480 N.pl3     1 RES1    0.0000
      6 C1         1.6012    4.8615   11.7137 C.3       1 RES1    0.0000
      7 H1         2.2402    4.3662   12.2844 H         1 RES1    0.0000
      8 H2         1.1067    5.4982   12.2886 H         1 RES1    0.0000
      9 C2         2.3693    5.6344   10.6437 C.3       1 RES1    0.0000
     10 C3         3.5456    6.4565   11.2242 C.3       1 RES1    0.0000
     11 H3         4.2603    5.8110   11.4921 H         1 RES1    0.0000
     12 C4         4.1114    7.3295   10.1285 C.2       1 RES1    0.0000
     13 C5         3.4205    7.6960    9.0459 C.2       1 RES1    0.0000
     14 H4         3.8906    8.1899    8.3845 H         1 RES1    0.0000
     15 C6         1.9780    7.4031    8.7741 C.3       1 RES1    0.0000
     16 H5         1.9103    6.9416    7.8895 H         1 RES1    0.0000
     17 C7         1.3643    6.4816    9.8539 C.3       1 RES1    0.0000
     18 H6         0.9657    7.1043   10.5273 H         1 RES1    0.0000
     19 C8         0.2103    5.6049    9.3967 C.ar      1 RES1    0.0000
     20 C9        -0.6114    5.9421    8.3174 C.ar      1 RES1    0.0000
     21 H7        -0.4148    6.7186    7.8068 H         1 RES1    0.0000
     22 C10       -1.7173    5.1589    7.9770 C.ar      1 RES1    0.0000
     23 H8        -2.2660    5.4055    7.2416 H         1 RES1    0.0000
     24 C11       -2.0121    4.0247    8.7094 C.ar      1 RES1    0.0000
     25 H9        -2.7772    3.5043    8.4925 H         1 RES1    0.0000
     26 C12       -1.1912    3.6456    9.7623 C.ar      1 RES1    0.0000
     27 H10       -1.3745    2.8529   10.2524 H         1 RES1    0.0000
     28 C13       -0.0973    4.4361   10.0921 C.ar      1 RES1    0.0000
     29 C14        3.1118    7.2066   12.4782 C.ar      1 RES1    0.0000
     30 C15        3.3567    6.6258   13.7270 C.ar      1 RES1    0.0000
     31 H11        3.8459    5.8132   13.7793 H         1 RES1    0.0000
     32 C16        2.8930    7.2220   14.8902 C.ar      1 RES1    0.0000
     33 H12        3.0663    6.8172   15.7313 H         1 RES1    0.0000
     34 C17        2.1783    8.4070   14.8292 C.ar      1 RES1    0.0000
     35 H13        1.8529    8.8097   15.6247 H         1 RES1    0.0000
     36 C18        1.9405    9.0032   13.5963 C.ar      1 RES1    0.0000
     37 H14        1.4468    9.8136   13.5507 H         1 RES1    0.0000
     38 C19        2.4232    8.4181   12.4274 C.ar      1 RES1    0.0000
     39 H15        2.2825    8.8465   11.5916 H         1 RES1    0.0000
     40 C20        5.5128    7.7615   10.2411 C.2       1 RES1    0.0000
     41 H16        5.8182    8.2657    9.4601 H         1 RES1    0.0000
     42 C21        1.2239    8.7419    8.6849 C.3       1 RES1    0.0000
     43 H17        0.2756    8.5712    8.5065 H         1 RES1    0.0000
     44 H18        1.3154    9.2255    9.5330 H         1 RES1    0.0000
     45 H19        1.6012    9.2815    7.9582 H         1 RES1    0.0000
@<TRIPOS>BOND
     1    1    6 1
     2    2   40 2
     3    3    5 2
     4    4    5 2
     5    5    9 1
     6    6    7 1
     7    8    6 1
     8    9    6 1
     9   10    9 1
    10   11   10 1
    11   12   10 1
    12   13   12 2
    13   14   13 1
    14   15   13 1
    15   16   15 1
    16   17    9 1
    17   18   17 1
    18   19   17 1
    19   20   19 ar
    20   21   20 1
    21   22   20 ar
    22   23   22 1
    23   24   22 ar
    24   25   24 1
    25   26   24 ar
    26   27   26 1
    27   28    1 1
    28   29   10 1
    29   30   29 ar
    30   31   30 1
    31   32   30 ar
    32   33   32 1
    33   34   32 ar
    34   35   34 1
    35   36   34 ar
    36   37   36 1
    37   38   29 ar
    38   39   38 1
    39   40   12 1
    40   41   40 1
    41   42   15 1
    42   43   42 1
    43   44   42 1
    44   45   42 1
    45   15   17 1
    46   19   28 ar
    47   26   28 ar
    48   36   38 ar
@<TRIPOS>SUBSTRUCTURE
     1 RES1 1

@<TRIPOS>CRYSIN
   8.3201    7.3604   14.5839  90.0000 105.9380  90.0000   4 1

