# MOL2 file generated by ConQuest
# Please check atom types

@<TRIPOS>MOLECULE
BAWXOP
    51    55     1
SMALL
NO_CHARGES
****
Generated from CSD

@<TRIPOS>ATOM
      1 O1         3.9917    6.7604   11.0477 O.3       1 RES1    0.0000
      2 O2         1.8347    1.9033   14.6103 O.2       1 RES1    0.0000
      3 O3         0.4729    0.3647   15.2984 O.2       1 RES1    0.0000
      4 O4        -3.6798   -0.4798   13.2050 O.2       1 RES1    0.0000
      5 O5        -4.5023    0.9550   11.7948 O.2       1 RES1    0.0000
      6 N1         1.3776    4.4386   11.6874 N.2       1 RES1    0.0000
      7 N2         1.1459    3.5347   12.6963 N.pl3     1 RES1    0.0000
      8 H1         1.7648    3.3072   13.2882 H         1 RES1    0.0000
      9 N3         0.7477    1.2936   14.5452 N.pl3     1 RES1    0.0000
     10 N4        -3.5956    0.5444   12.5247 N.pl3     1 RES1    0.0000
     11 C1         4.4395    6.1771   12.1928 C.ar      1 RES1    0.0000
     12 C2         5.6428    6.5219   12.7928 C.ar      1 RES1    0.0000
     13 H2         6.2142    7.1805   12.4156 H         1 RES1    0.0000
     14 C3         5.9733    5.8638   13.9649 C.ar      1 RES1    0.0000
     15 H3         6.7951    6.0666   14.3962 H         1 RES1    0.0000
     16 C4         5.1228    4.9064   14.5272 C.ar      1 RES1    0.0000
     17 H4         5.3679    4.4799   15.3400 H         1 RES1    0.0000
     18 C5         3.9246    4.5723   13.9113 C.ar      1 RES1    0.0000
     19 H5         3.3464    3.9261   14.2997 H         1 RES1    0.0000
     20 C6         3.5811    5.2022   12.7090 C.ar      1 RES1    0.0000
     21 C7         2.4758    5.1061   11.7545 C.2       1 RES1    0.0000
     22 C8         2.8475    6.0019   10.5834 C.3       1 RES1    0.0000
     23 C9         3.1085    5.3507    9.2330 C.2       1 RES1    0.0000
     24 C10        4.2300    5.0068    8.6162 C.2       1 RES1    0.0000
     25 H6         5.0552    4.8784    9.1102 H         1 RES1    0.0000
     26 C11        4.3036    4.9873    7.1190 C.3       1 RES1    0.0000
     27 H7         4.4691    4.0580    6.8206 H         1 RES1    0.0000
     28 H8         5.0750    5.5369    6.8312 H         1 RES1    0.0000
     29 C12        3.0320    5.5132    6.4218 C.3       1 RES1    0.0000
     30 H9         3.2825    5.9092    5.5497 H         1 RES1    0.0000
     31 H10        2.4229    4.7530    6.2451 H         1 RES1    0.0000
     32 C13        2.2870    6.5696    7.2572 C.3       1 RES1    0.0000
     33 H11        2.8770    7.3481    7.4184 H         1 RES1    0.0000
     34 H12        1.4864    6.8830    6.7664 H         1 RES1    0.0000
     35 C14        1.8689    5.9493    8.5915 C.3       1 RES1    0.0000
     36 C15        1.7583    6.8515    9.8772 C.3       1 RES1    0.0000
     37 H13        2.0272    7.7920    9.7249 H         1 RES1    0.0000
     38 H14        0.8730    6.8054   10.3179 H         1 RES1    0.0000
     39 C16        0.6586    5.0326    8.4355 C.3       1 RES1    0.0000
     40 H15        0.8426    4.3636    7.7433 H         1 RES1    0.0000
     41 H16       -0.1227    5.5643    8.1764 H         1 RES1    0.0000
     42 H17        0.4789    4.5811    9.2866 H         1 RES1    0.0000
     43 C17        0.0097    2.8020   12.6755 C.ar      1 RES1    0.0000
     44 C18       -0.2229    1.7062   13.5528 C.ar      1 RES1    0.0000
     45 C19       -1.4012    0.9628   13.4984 C.ar      1 RES1    0.0000
     46 H18       -1.5364    0.2270   14.0839 H         1 RES1    0.0000
     47 C20       -2.3635    1.3140   12.5819 C.ar      1 RES1    0.0000
     48 C21       -2.1863    2.3954   11.7100 C.ar      1 RES1    0.0000
     49 H19       -2.8678    2.6270   11.0900 H         1 RES1    0.0000
     50 C22       -1.0240    3.1158   11.7578 C.ar      1 RES1    0.0000
     51 H20       -0.9069    3.8453   11.1605 H         1 RES1    0.0000
@<TRIPOS>BOND
     1    1   11 1
     2    2    9 2
     3    3    9 2
     4    4   10 2
     5    5   10 2
     6    6    7 1
     7    7    8 1
     8    9   44 1
     9   10   47 1
    10   11   12 ar
    11   12   13 1
    12   14   12 ar
    13   15   14 1
    14   16   14 ar
    15   17   16 1
    16   18   16 ar
    17   19   18 1
    18   20   11 ar
    19   21    6 2
    20   22    1 1
    21   23   22 1
    22   24   23 2
    23   25   24 1
    24   26   24 1
    25   27   26 1
    26   28   26 1
    27   29   26 1
    28   30   29 1
    29   31   29 1
    30   32   29 1
    31   33   32 1
    32   34   32 1
    33   35   23 1
    34   36   22 1
    35   37   36 1
    36   38   36 1
    37   39   35 1
    38   40   39 1
    39   41   39 1
    40   42   39 1
    41   43    7 1
    42   44   43 ar
    43   45   44 ar
    44   46   45 1
    45   47   45 ar
    46   48   47 ar
    47   49   48 1
    48   50   43 ar
    49   51   50 1
    50   18   20 ar
    51   20   21 1
    52   21   22 1
    53   32   35 1
    54   35   36 1
    55   48   50 ar
@<TRIPOS>SUBSTRUCTURE
     1 RES1 1

@<TRIPOS>CRYSIN
   7.3583    8.6653   15.7812  94.0490  95.9480 105.6310   2 1

