# MOL2 file generated by ConQuest
# Please check atom types

@<TRIPOS>MOLECULE
BAWZIJ
    53    55     1
SMALL
NO_CHARGES
****
Generated from CSD

@<TRIPOS>ATOM
      1 O1         2.6789    0.2230    6.5416 O.3       1 RES1    0.0000
      2 O2         3.2591    2.0230    5.3565 O.2       1 RES1    0.0000
      3 N1         2.6697    2.1829    7.6023 N.am      1 RES1    0.0000
      4 C1         2.9148    1.5421    6.3927 C.2       1 RES1    0.0000
      5 C2         2.0215    1.2398    8.5453 C.3       1 RES1    0.0000
      6 C3         2.5962   -0.0909    7.9916 C.3       1 RES1    0.0000
      7 C4         0.4893    1.3987    8.5796 C.3       1 RES1    0.0000
      8 C5         0.0982    2.6276    9.4043 C.3       1 RES1    0.0000
      9 C6        -0.1854    1.4217    7.2189 C.3       1 RES1    0.0000
     10 C7         4.0339   -0.3746    8.4246 C.ar      1 RES1    0.0000
     11 C8         4.7390    0.4031    9.3349 C.ar      1 RES1    0.0000
     12 C9         6.0564    0.1150    9.6420 C.ar      1 RES1    0.0000
     13 C10        6.6917   -0.9310    9.0374 C.ar      1 RES1    0.0000
     14 C11        6.0040   -1.7108    8.1388 C.ar      1 RES1    0.0000
     15 C12        4.6977   -1.4436    7.8422 C.ar      1 RES1    0.0000
     16 C13        1.7158   -1.3023    8.1705 C.ar      1 RES1    0.0000
     17 C14        1.5203   -1.7656    9.4577 C.ar      1 RES1    0.0000
     18 C15        0.6986   -2.8751    9.6888 C.ar      1 RES1    0.0000
     19 C16        0.1047   -3.5235    8.6348 C.ar      1 RES1    0.0000
     20 C17        0.2910   -3.0700    7.3652 C.ar      1 RES1    0.0000
     21 C18        1.0934   -1.9616    7.1126 C.ar      1 RES1    0.0000
     22 C19        3.1471    3.4304    8.0144 C.2       1 RES1    0.0000
     23 C20        3.7291    4.3723    6.9833 C.3       1 RES1    0.0000
     24 C21        4.6362    5.3734    7.6842 C.3       1 RES1    0.0000
     25 N2         5.7956    4.7042    8.3718 N.pl3     1 RES1    0.0000
     26 O3         6.0628    3.5739    8.0787 O.2       1 RES1    0.0000
     27 O4         6.3538    5.3416    9.2297 O.2       1 RES1    0.0000
     28 O5         3.0433    3.7403    9.1762 O.2       1 RES1    0.0000
     29 C22        2.6054    5.0864    6.2401 C.3       1 RES1    0.0000
     30 H1         2.2997    1.3516    9.4582 H         1 RES1    0.0000
     31 H2         0.1588    0.6057    9.0077 H         1 RES1    0.0000
     32 H3        -0.8575    2.7130    9.4172 H         1 RES1    0.0000
     33 H4         0.4847    3.4140    9.0120 H         1 RES1    0.0000
     34 H5         0.4223    2.5246   10.3031 H         1 RES1    0.0000
     35 H6        -1.1338    1.5169    7.3307 H         1 RES1    0.0000
     36 H7         0.0018    0.6024    6.7552 H         1 RES1    0.0000
     37 H8         0.1524    2.1621    6.7099 H         1 RES1    0.0000
     38 H9         4.3130    1.1555    9.7513 H         1 RES1    0.0000
     39 H10        6.5301    0.6528   10.2815 H         1 RES1    0.0000
     40 H11        7.6097   -1.1194    9.2491 H         1 RES1    0.0000
     41 H12        6.4337   -2.4490    7.7015 H         1 RES1    0.0000
     42 H13        4.2350   -2.0153    7.2251 H         1 RES1    0.0000
     43 H14        1.9674   -1.3406   10.1932 H         1 RES1    0.0000
     44 H15        0.5371   -3.1631   10.5919 H         1 RES1    0.0000
     45 H16       -0.4342   -4.3033    8.7857 H         1 RES1    0.0000
     46 H17       -0.1395   -3.5202    6.6345 H         1 RES1    0.0000
     47 H18        1.2265   -1.6539    6.2142 H         1 RES1    0.0000
     48 H19        4.2441    3.8762    6.3435 H         1 RES1    0.0000
     49 H20        4.9850    5.9944    7.0419 H         1 RES1    0.0000
     50 H21        4.1285    5.8487    8.3459 H         1 RES1    0.0000
     51 H22        2.9671    5.6834    5.5805 H         1 RES1    0.0000
     52 H23        2.0821    5.5848    6.8716 H         1 RES1    0.0000
     53 H24        2.0500    4.4326    5.8090 H         1 RES1    0.0000
@<TRIPOS>BOND
     1    1    4 1
     2    2    4 2
     3    3    4 1
     4    5    3 1
     5    6    1 1
     6    7    5 1
     7    8    7 1
     8    9    7 1
     9   10    6 1
    10   11   10 ar
    11   12   11 ar
    12   13   12 ar
    13   14   13 ar
    14   15   10 ar
    15   16    6 1
    16   17   16 ar
    17   18   17 ar
    18   19   18 ar
    19   20   19 ar
    20   21   16 ar
    21   22    3 1
    22   23   22 1
    23   24   23 1
    24   25   24 1
    25   26   25 2
    26   27   25 2
    27   28   22 2
    28   29   23 1
    29   30    5 1
    30   31    7 1
    31   32    8 1
    32   33    8 1
    33   34    8 1
    34   35    9 1
    35   36    9 1
    36   37    9 1
    37   38   11 1
    38   39   12 1
    39   40   13 1
    40   41   14 1
    41   42   15 1
    42   43   17 1
    43   44   18 1
    44   45   19 1
    45   46   20 1
    46   47   21 1
    47   48   23 1
    48   49   24 1
    49   50   24 1
    50   51   29 1
    51   52   29 1
    52   53   29 1
    53    5    6 1
    54   14   15 ar
    55   20   21 ar
@<TRIPOS>SUBSTRUCTURE
     1 RES1 1

@<TRIPOS>CRYSIN
   9.1805   10.9527   21.5546  90.0000  90.0000  90.0000  19 1

