# MOL2 file generated by ConQuest
# Please check atom types

@<TRIPOS>MOLECULE
BAWZIJ01
    53    55     1
SMALL
NO_CHARGES
****
Generated from CSD

@<TRIPOS>ATOM
      1 O1         7.2475   10.7414   14.8838 O.3       1 RES1    0.0000
      2 O2         7.6306    7.2282   12.2378 O.2       1 RES1    0.0000
      3 O3        10.6298    7.4478   13.2800 O.2       1 RES1    0.0000
      4 O4        10.9515    5.6553   12.1453 O.2       1 RES1    0.0000
      5 O5         7.8287    8.9433   16.0689 O.2       1 RES1    0.0000
      6 N1         7.2396    8.7848   13.8134 N.am      1 RES1    0.0000
      7 N2        10.3649    6.2943   13.0164 N.pl3     1 RES1    0.0000
      8 C1         7.4822    9.4188   15.0282 C.2       1 RES1    0.0000
      9 C2         6.5959    9.7237   12.8735 C.3       1 RES1    0.0000
     10 C3         7.1614   11.0528   13.4347 C.3       1 RES1    0.0000
     11 C4         7.7251    7.5377   13.3992 C.2       1 RES1    0.0000
     12 C5         8.3236    6.6050   14.4442 C.3       1 RES1    0.0000
     13 C6         7.2146    5.8781   15.1991 C.3       1 RES1    0.0000
     14 C7         9.2347    5.6126   13.7299 C.3       1 RES1    0.0000
     15 C8         5.0633    9.5560   12.8287 C.3       1 RES1    0.0000
     16 C9         4.3896    9.5365   14.1921 C.3       1 RES1    0.0000
     17 C10        4.6939    8.2999   12.0368 C.3       1 RES1    0.0000
     18 C11        6.2760   12.2707   13.2563 C.ar      1 RES1    0.0000
     19 C12        6.0697   12.7273   11.9593 C.ar      1 RES1    0.0000
     20 C13        5.2503   13.8361   11.7331 C.ar      1 RES1    0.0000
     21 C14        4.6554   14.4939   12.7983 C.ar      1 RES1    0.0000
     22 C15        4.8516   14.0382   14.0701 C.ar      1 RES1    0.0000
     23 C16        5.6609   12.9185   14.3222 C.ar      1 RES1    0.0000
     24 C17        8.6050   11.3401   13.0000 C.ar      1 RES1    0.0000
     25 C18        9.2540   12.4313   13.5797 C.ar      1 RES1    0.0000
     26 C19       10.5748   12.7066   13.2933 C.ar      1 RES1    0.0000
     27 C20       11.2760   11.8807   12.4239 C.ar      1 RES1    0.0000
     28 C21       10.6564   10.8036   11.8347 C.ar      1 RES1    0.0000
     29 C22        9.3154   10.5329   12.1259 C.ar      1 RES1    0.0000
     30 H1         6.9570    9.5802   11.9962 H         1 RES1    0.0000
     31 H2         8.7260   13.0976   14.1665 H         1 RES1    0.0000
     32 H3        12.2916   12.1036   12.2397 H         1 RES1    0.0000
     33 H4        11.0359   13.6547   13.6068 H         1 RES1    0.0000
     34 H5         6.5079   12.2237   11.1781 H         1 RES1    0.0000
     35 H6        11.0542   10.1919   11.1909 H         1 RES1    0.0000
     36 H7         5.8937   12.5951   15.2986 H         1 RES1    0.0000
     37 H8         3.7214    8.2147   11.9450 H         1 RES1    0.0000
     38 H9         4.5005   14.5068   14.8543 H         1 RES1    0.0000
     39 H10        5.0230    8.2365   11.1674 H         1 RES1    0.0000
     40 H11        4.7297    8.7937   14.6920 H         1 RES1    0.0000
     41 H12        8.9094    9.8860   11.7463 H         1 RES1    0.0000
     42 H13        6.8012    5.4401   14.6257 H         1 RES1    0.0000
     43 H14        4.0330   15.2605   12.6456 H         1 RES1    0.0000
     44 H15        3.4647    9.4709   14.0682 H         1 RES1    0.0000
     45 H16        4.9496    7.3299   12.4619 H         1 RES1    0.0000
     46 H17        6.5904    6.5761   15.6767 H         1 RES1    0.0000
     47 H18        4.5463   10.3339   14.6386 H         1 RES1    0.0000
     48 H19        8.7994    7.1114   15.0743 H         1 RES1    0.0000
     49 H20        4.7022   10.3995   12.3230 H         1 RES1    0.0000
     50 H21        5.0413   14.0917   10.7893 H         1 RES1    0.0000
     51 H22        8.7169    5.1888   13.0002 H         1 RES1    0.0000
     52 H23        7.6353    5.1779   15.9352 H         1 RES1    0.0000
     53 H24        9.5785    5.0359   14.3416 H         1 RES1    0.0000
@<TRIPOS>BOND
     1    1    8 1
     2    2   11 2
     3    3    7 2
     4    4    7 2
     5    5    8 2
     6    6    8 1
     7    7   14 1
     8    9    6 1
     9   10    1 1
    10   11    6 1
    11   12   11 1
    12   13   12 1
    13   14   12 1
    14   15    9 1
    15   16   15 1
    16   17   15 1
    17   18   10 1
    18   19   18 ar
    19   20   19 ar
    20   21   20 ar
    21   22   21 ar
    22   23   18 ar
    23   24   10 1
    24   25   24 ar
    25   26   25 ar
    26   27   26 ar
    27   28   27 ar
    28   29   24 ar
    29   30    9 1
    30   31   25 1
    31   32   27 1
    32   33   26 1
    33   34   19 1
    34   35   28 1
    35   36   23 1
    36   37   17 1
    37   38   22 1
    38   39   17 1
    39   40   16 1
    40   41   29 1
    41   42   13 1
    42   43   21 1
    43   44   16 1
    44   45   17 1
    45   46   13 1
    46   47   16 1
    47   48   12 1
    48   49   15 1
    49   50   20 1
    50   51   14 1
    51   52   13 1
    52   53   14 1
    53    9   10 1
    54   22   23 ar
    55   28   29 ar
@<TRIPOS>SUBSTRUCTURE
     1 RES1 1

@<TRIPOS>CRYSIN
   9.1660   10.9238   21.3608  90.0000  90.0000  90.0000  19 1

