# MOL2 file generated by ConQuest
# Please check atom types

@<TRIPOS>MOLECULE
BAXBAE
    41    43     1
SMALL
NO_CHARGES
****
Generated from CSD

@<TRIPOS>ATOM
      1 O1         6.5159    3.8194   10.4668 O.3       1 RES1    0.0000
      2 O2         5.4171    2.0944   11.3881 O.2       1 RES1    0.0000
      3 N1         4.6390    4.2768   11.5545 N.am      1 RES1    0.0000
      4 N2         3.3878    3.9404   11.9681 N.2       1 RES1    0.0000
      5 C1         5.5155    3.2533   11.1530 C.2       1 RES1    0.0000
      6 C2         5.2001    5.6018   11.2789 C.3       1 RES1    0.0000
      7 C3         6.1286    5.2017   10.0989 C.3       1 RES1    0.0000
      8 C4         5.8765    6.2179   12.5205 C.3       1 RES1    0.0000
      9 C5         6.8459    5.2793   13.2288 C.3       1 RES1    0.0000
     10 C6         4.8293    6.7453   13.5040 C.3       1 RES1    0.0000
     11 O3         2.6728    4.8887   12.1923 O.2       1 RES1    0.0000
     12 C7         5.3887    5.0997    8.7588 C.ar      1 RES1    0.0000
     13 C8         5.8559    4.1787    7.8239 C.ar      1 RES1    0.0000
     14 C9         5.2352    4.0973    6.5727 C.ar      1 RES1    0.0000
     15 C10        4.1858    4.9106    6.2537 C.ar      1 RES1    0.0000
     16 C11        3.7342    5.8408    7.1636 C.ar      1 RES1    0.0000
     17 C12        4.3394    5.9397    8.4272 C.ar      1 RES1    0.0000
     18 C13        7.3888    6.0343    9.9515 C.ar      1 RES1    0.0000
     19 C14        8.6633    5.4862   10.0640 C.ar      1 RES1    0.0000
     20 C15        9.7693    6.3033    9.8942 C.ar      1 RES1    0.0000
     21 C16        9.6258    7.6537    9.6165 C.ar      1 RES1    0.0000
     22 C17        8.3762    8.1889    9.5097 C.ar      1 RES1    0.0000
     23 C18        7.2500    7.3846    9.6670 C.ar      1 RES1    0.0000
     24 H1         5.2105    7.1950   14.3008 H         1 RES1    0.0000
     25 H2         4.4884    6.1723   10.9811 H         1 RES1    0.0000
     26 H3         6.3349    6.8866   12.2340 H         1 RES1    0.0000
     27 H4         7.5141    4.9723   12.6322 H         1 RES1    0.0000
     28 H5         7.3496    5.7174   13.9349 H         1 RES1    0.0000
     29 H6         6.2892    4.5740   13.5426 H         1 RES1    0.0000
     30 H7         4.2781    6.0258   13.8910 H         1 RES1    0.0000
     31 H8         4.0405    6.7671    9.0928 H         1 RES1    0.0000
     32 H9         6.7097    3.5590    8.0214 H         1 RES1    0.0000
     33 H10        5.5488    3.3791    5.9136 H         1 RES1    0.0000
     34 H11        3.8576    4.8309    5.3281 H         1 RES1    0.0000
     35 H12        2.9435    6.4241    6.9836 H         1 RES1    0.0000
     36 H13        4.0130    7.1693   13.0274 H         1 RES1    0.0000
     37 H14        8.7208    4.5611   10.1584 H         1 RES1    0.0000
     38 H15       10.6039    5.9230   10.0413 H         1 RES1    0.0000
     39 H16       10.4211    8.1419    9.5349 H         1 RES1    0.0000
     40 H17        8.1540    9.3663    9.4119 H         1 RES1    0.0000
     41 H18        6.3623    7.7603    9.6007 H         1 RES1    0.0000
@<TRIPOS>BOND
     1    1    5 1
     2    2    5 2
     3    3    4 1
     4    4   11 2
     5    5    3 1
     6    6    3 1
     7    7    1 1
     8    8    6 1
     9    9    8 1
    10   10    8 1
    11   12    7 1
    12   13   12 ar
    13   14   13 ar
    14   15   14 ar
    15   16   15 ar
    16   17   12 ar
    17   18    7 1
    18   19   18 ar
    19   20   19 ar
    20   21   20 ar
    21   22   21 ar
    22   23   18 ar
    23   24   10 1
    24   25    6 1
    25   26    8 1
    26   27    9 1
    27   28    9 1
    28   29    9 1
    29   30   10 1
    30   31   17 1
    31   32   13 1
    32   33   14 1
    33   34   15 1
    34   35   16 1
    35   36   10 1
    36   37   19 1
    37   38   20 1
    38   39   21 1
    39   40   22 1
    40   41   23 1
    41    6    7 1
    42   16   17 ar
    43   22   23 ar
@<TRIPOS>SUBSTRUCTURE
     1 RES1 1

@<TRIPOS>CRYSIN
   9.1413   12.8482   14.6375  90.0000  90.0000  90.0000  19 1

