# MOL2 file generated by ConQuest
# Please check atom types

@<TRIPOS>MOLECULE
BAXSEY01
    72    74     2
SMALL
NO_CHARGES
****
Generated from CSD

@<TRIPOS>ATOM
      1 O1        11.4405    5.0671    0.3548 O.3       1 RES1    0.0000
      2 C1        12.4396    4.9325    1.2840 C.ar      1 RES1    0.0000
      3 C2        13.7184    5.0976    0.7767 C.ar      1 RES1    0.0000
      4 H1        13.8410    5.3013   -0.1539 H         1 RES1    0.0000
      5 C3        14.8190    4.9704    1.5998 C.ar      1 RES1    0.0000
      6 H2        15.7099    5.0414    1.2490 H         1 RES1    0.0000
      7 C4        14.5988    4.7355    2.9516 C.ar      1 RES1    0.0000
      8 C5        13.3312    4.6110    3.4831 C.ar      1 RES1    0.0000
      9 H3        13.2141    4.4703    4.4251 H         1 RES1    0.0000
     10 C6        12.2334    4.6909    2.6405 C.ar      1 RES1    0.0000
     11 H4        11.3454    4.5813    2.9859 H         1 RES1    0.0000
     12 N1        15.7665    4.6652    3.8331 N.pl3     1 RES1    0.0000
     13 O2        16.8600    4.5021    3.3326 O.2       1 RES1    0.0000
     14 O3        15.5947    4.7653    5.0392 O.2       1 RES1    0.0000
     15 C7        10.1518    4.5542    0.6356 C.3       1 RES1    0.0000
     16 H5        10.2162    3.7685    1.1845 H         1 RES1    0.0000
     17 C8         9.5082    4.2463   -0.7196 C.3       1 RES1    0.0000
     18 H6         8.6521    3.8430   -0.5711 H         1 RES1    0.0000
     19 O4        10.3169    3.3456   -1.4385 O.3       1 RES1    0.0000
     20 H7         9.9222    2.6283   -1.5917 H         1 RES1    0.0000
     21 C9         9.3020    5.5280   -1.5151 C.3       1 RES1    0.0000
     22 H8        10.1532    5.8839   -1.7738 H         1 RES1    0.0000
     23 O5         8.4891    5.2059   -2.6486 O.3       1 RES1    0.0000
     24 H9         8.7924    5.3195   -3.2620 H         1 RES1    0.0000
     25 C10        8.5770    6.5674   -0.6894 C.3       1 RES1    0.0000
     26 H10        7.6789    6.2514   -0.5637 H         1 RES1    0.0000
     27 O6         8.5834    7.8125   -1.3814 O.3       1 RES1    0.0000
     28 H11        7.7918    8.1448   -1.2403 H         1 RES1    0.0000
     29 C11        9.1923    6.7596    0.7035 C.3       1 RES1    0.0000
     30 H12       10.0315    7.2062    0.5637 H         1 RES1    0.0000
     31 C12        8.3041    7.5797    1.6078 C.3       1 RES1    0.0000
     32 H13        8.2303    8.4689    1.2524 H         1 RES1    0.0000
     33 H14        8.4426    7.6163    2.4833 H         1 RES1    0.0000
     34 O7         6.9995    7.0113    1.7066 O.3       1 RES1    0.0000
     35 H15        6.5531    7.3963    1.2578 H         1 RES1    0.0000
     36 O8         9.3683    5.4813    1.3613 O.3       1 RES1    0.0000
     37 O9         2.7240    1.5388    3.5919 O.3       2 RES2    0.0000
     38 C13        1.7249    1.4373    2.6553 C.ar      2 RES2    0.0000
     39 C14        0.4518    1.6890    3.1565 C.ar      2 RES2    0.0000
     40 H16        0.3376    1.9381    4.0764 H         2 RES2    0.0000
     41 C15       -0.6404    1.5801    2.3301 C.ar      2 RES2    0.0000
     42 H17       -1.5256    1.7411    2.6661 H         2 RES2    0.0000
     43 C16       -0.4427    1.2323    0.9991 C.ar      2 RES2    0.0000
     44 C17        0.8164    1.0205    0.4817 C.ar      2 RES2    0.0000
     45 H18        0.9278    0.8080   -0.4482 H         2 RES2    0.0000
     46 C18        1.9226    1.1152    1.3088 C.ar      2 RES2    0.0000
     47 H19        2.8051    0.9636    0.9648 H         2 RES2    0.0000
     48 N2        -1.6161    1.1057    0.1324 N.pl3     2 RES2    0.0000
     49 O10       -2.7406    1.0685    0.6558 O.2       2 RES2    0.0000
     50 O11       -1.4415    1.0367   -1.0817 O.2       2 RES2    0.0000
     51 C19        4.0357    1.1626    3.2016 C.3       2 RES2    0.0000
     52 H20        4.0017    0.3248    2.7333 H         2 RES2    0.0000
     53 C20        4.8930    1.0076    4.4560 C.3       2 RES2    0.0000
     54 H21        5.7217    0.6144    4.1785 H         2 RES2    0.0000
     55 O12        4.2851    0.1523    5.3966 O.3       2 RES2    0.0000
     56 H22        4.5578   -0.6266    5.2643 H         2 RES2    0.0000
     57 C21        5.1813    2.3495    5.0963 C.3       2 RES2    0.0000
     58 H23        4.3800    2.7095    5.4840 H         2 RES2    0.0000
     59 O13        6.1800    2.1512    6.1068 O.3       2 RES2    0.0000
     60 H24        6.1890    2.7839    6.5321 H         2 RES2    0.0000
     61 C22        5.6803    3.3314    4.0569 C.3       2 RES2    0.0000
     62 H25        6.5262    3.0248    3.7236 H         2 RES2    0.0000
     63 O14        5.8426    4.6178    4.6575 O.3       2 RES2    0.0000
     64 H26        6.5759    4.8337    4.4049 H         2 RES2    0.0000
     65 C23        4.7189    3.4160    2.8824 C.3       2 RES2    0.0000
     66 H27        3.8898    3.7557    3.2298 H         2 RES2    0.0000
     67 C24        5.1649    4.3519    1.7939 C.3       2 RES2    0.0000
     68 H28        5.1379    5.2512    2.1286 H         2 RES2    0.0000
     69 H29        4.5630    4.2693    1.0502 H         2 RES2    0.0000
     70 O15        6.4854    4.0656    1.3485 O.3       2 RES2    0.0000
     71 H30        6.8415    4.6929    1.3512 H         2 RES2    0.0000
     72 O16        4.5929    2.1025    2.3059 O.3       2 RES2    0.0000
@<TRIPOS>BOND
     1    1    2 1
     2    2    3 ar
     3    3    4 1
     4    5    3 ar
     5    6    5 1
     6    7    5 ar
     7    8    7 ar
     8    9    8 1
     9   10    2 ar
    10   11   10 1
    11   12    7 1
    12   13   12 2
    13   14   12 2
    14   15    1 1
    15   16   15 1
    16   17   15 1
    17   18   17 1
    18   19   17 1
    19   20   19 1
    20   21   17 1
    21   22   21 1
    22   23   21 1
    23   24   23 1
    24   25   21 1
    25   26   25 1
    26   27   25 1
    27   28   27 1
    28   29   25 1
    29   30   29 1
    30   31   29 1
    31   32   31 1
    32   33   31 1
    33   34   31 1
    34   35   34 1
    35   36   15 1
    36   37   38 1
    37   38   39 ar
    38   39   40 1
    39   41   39 ar
    40   42   41 1
    41   43   41 ar
    42   44   43 ar
    43   45   44 1
    44   46   38 ar
    45   47   46 1
    46   48   43 1
    47   49   48 2
    48   50   48 2
    49   51   37 1
    50   52   51 1
    51   53   51 1
    52   54   53 1
    53   55   53 1
    54   56   55 1
    55   57   53 1
    56   58   57 1
    57   59   57 1
    58   60   59 1
    59   61   57 1
    60   62   61 1
    61   63   61 1
    62   64   63 1
    63   65   61 1
    64   66   65 1
    65   67   65 1
    66   68   67 1
    67   69   67 1
    68   70   67 1
    69   71   70 1
    70   72   51 1
    71    8   10 ar
    72   29   36 1
    73   44   46 ar
    74   65   72 1
@<TRIPOS>SUBSTRUCTURE
     1 RES1 1
     2 RES2 37

@<TRIPOS>CRYSIN
  28.0450    6.7670    6.7190  90.0000  90.3000  90.0000   4 1

