# MOL2 file generated by ConQuest
# Please check atom types

@<TRIPOS>MOLECULE
BAXSEY
    72    74     2
SMALL
NO_CHARGES
****
Generated from CSD

@<TRIPOS>ATOM
      1 O1        -1.9931   -1.6854   -3.2691 O.2       1 RES1    0.0000
      2 O2        -0.3547   -1.7090   -4.6741 O.2       1 RES1    0.0000
      3 N1        -0.7964   -1.6415   -3.5338 N.pl3     1 RES1    0.0000
      4 C1         1.8577   -1.3204   -0.2936 C.ar      1 RES1    0.0000
      5 C2         0.5048   -1.0687   -0.1092 C.ar      1 RES1    0.0000
      6 C3        -0.3642   -1.1774   -1.1671 C.ar      1 RES1    0.0000
      7 C4         0.1370   -1.5073   -2.4093 C.ar      1 RES1    0.0000
      8 C5         1.4829   -1.7286   -2.6244 C.ar      1 RES1    0.0000
      9 C6         2.3518   -1.6281   -1.5423 C.ar      1 RES1    0.0000
     10 C7         3.9770   -1.5930    0.7761 C.3       1 RES1    0.0000
     11 C8         4.5071   -1.7407    2.2203 C.3       1 RES1    0.0000
     12 C9         4.6397   -0.4136    2.8944 C.3       1 RES1    0.0000
     13 C10        5.3674    0.5620    2.0118 C.3       1 RES1    0.0000
     14 C11        4.7044    0.6734    0.6401 C.3       1 RES1    0.0000
     15 C12        5.3976    1.5990   -0.3138 C.3       1 RES1    0.0000
     16 O3         2.6071   -1.2138    0.8532 O.3       1 RES1    0.0000
     17 O4         3.6947   -2.5976    2.9775 O.3       1 RES1    0.0000
     18 O5         5.3735   -0.6066    4.1170 O.3       1 RES1    0.0000
     19 O6         5.3822    1.8467    2.6257 O.3       1 RES1    0.0000
     20 O7         4.7204   -0.6491    0.0418 O.3       1 RES1    0.0000
     21 O8         6.7812    1.3076   -0.4472 O.3       1 RES1    0.0000
     22 O9       -16.3918   -1.6287   -3.9104 O.2       2 RES2    0.0000
     23 O10      -14.7608   -1.3791   -5.2612 O.2       2 RES2    0.0000
     24 N2       -15.2101   -1.4708   -4.1373 N.pl3     2 RES2    0.0000
     25 C13      -12.5728   -1.1969   -0.8755 C.ar      2 RES2    0.0000
     26 C14      -13.9176   -1.0465   -0.6767 C.ar      2 RES2    0.0000
     27 C15      -14.8034   -1.1659   -1.7483 C.ar      2 RES2    0.0000
     28 C16      -14.2776   -1.4034   -2.9971 C.ar      2 RES2    0.0000
     29 C17      -12.9279   -1.5275   -3.2279 C.ar      2 RES2    0.0000
     30 C18      -12.0605   -1.4472   -2.1399 C.ar      2 RES2    0.0000
     31 C19      -10.5008   -1.5815    0.2942 C.3       2 RES2    0.0000
     32 C20      -10.1936   -1.8703    1.7542 C.3       2 RES2    0.0000
     33 C21      -10.1807   -0.5978    2.5773 C.3       2 RES2    0.0000
     34 C22       -9.2701    0.4210    1.9372 C.3       2 RES2    0.0000
     35 C23       -9.5550    0.6160    0.4446 C.3       2 RES2    0.0000
     36 C24       -8.4911    1.4479   -0.2334 C.3       2 RES2    0.0000
     37 O11      -11.8223   -1.0768    0.2550 O.3       2 RES2    0.0000
     38 O12      -11.1404   -2.7865    2.2707 O.3       2 RES2    0.0000
     39 O13       -9.6485   -0.9338    3.8706 O.3       2 RES2    0.0000
     40 O14       -9.4398    1.6685    2.6107 O.3       2 RES2    0.0000
     41 O15       -9.5713   -0.6605   -0.2341 O.3       2 RES2    0.0000
     42 O16       -7.1917    0.8710   -0.0327 O.3       2 RES2    0.0000
     43 H1         1.8069   -1.9296   -3.5175 H         1 RES1    0.0000
     44 H2         3.3907   -1.7340   -1.7391 H         1 RES1    0.0000
     45 H3         0.1500   -0.8636    0.8042 H         1 RES1    0.0000
     46 H4        -1.2484   -0.9918   -1.1442 H         1 RES1    0.0000
     47 H5         4.0866   -2.5301    0.2550 H         1 RES1    0.0000
     48 H6         5.5200   -2.1253    2.0595 H         1 RES1    0.0000
     49 H7         3.9590   -3.2251    2.9095 H         1 RES1    0.0000
     50 H8         3.7321   -0.0675    3.1318 H         1 RES1    0.0000
     51 H9         5.2276   -0.0945    4.6813 H         1 RES1    0.0000
     52 H10        6.3071    0.1687    1.7849 H         1 RES1    0.0000
     53 H11        6.0954    2.0781    2.6545 H         1 RES1    0.0000
     54 H12        3.7431    0.9378    0.7192 H         1 RES1    0.0000
     55 H13        5.2692    2.5774    0.1308 H         1 RES1    0.0000
     56 H14        5.0944    1.4641   -1.2815 H         1 RES1    0.0000
     57 H15        7.5265    1.9431   -0.6211 H         1 RES1    0.0000
     58 H16      -12.5701   -1.6935   -4.1059 H         2 RES2    0.0000
     59 H17      -11.1367   -1.6395   -2.3014 H         2 RES2    0.0000
     60 H18      -14.2461   -0.8771    0.2942 H         2 RES2    0.0000
     61 H19      -15.7006   -1.0121   -1.6607 H         2 RES2    0.0000
     62 H20      -10.3831   -2.3615   -0.1896 H         2 RES2    0.0000
     63 H21       -9.3656   -2.2737    1.7849 H         2 RES2    0.0000
     64 H22      -10.8627   -3.4747    2.4910 H         2 RES2    0.0000
     65 H23      -11.1232   -0.2699    2.7329 H         2 RES2    0.0000
     66 H24      -10.1172   -0.8299    4.5178 H         2 RES2    0.0000
     67 H25       -8.3569    0.0945    2.0203 H         2 RES2    0.0000
     68 H26       -8.6394    2.0646    2.5891 H         2 RES2    0.0000
     69 H27      -10.5167    1.0323    0.3596 H         2 RES2    0.0000
     70 H28       -8.5787    2.3682    0.2092 H         2 RES2    0.0000
     71 H29       -8.6719    1.4641   -1.1834 H         2 RES2    0.0000
     72 H30       -6.7554    1.2752    0.4119 H         2 RES2    0.0000
@<TRIPOS>BOND
     1    1    3 2
     2    2    3 2
     3    3    7 1
     4    4    5 ar
     5    5    6 ar
     6    6    7 ar
     7    7    8 ar
     8    8    9 ar
     9    9    4 ar
    10   10   11 1
    11   11   12 1
    12   12   13 1
    13   13   14 1
    14   14   15 1
    15   15   21 1
    16   16    4 1
    17   17   11 1
    18   18   12 1
    19   19   13 1
    20   20   10 1
    21   21   57 1
    22   22   24 2
    23   23   24 2
    24   24   28 1
    25   25   26 ar
    26   26   27 ar
    27   27   28 ar
    28   28   29 ar
    29   29   30 ar
    30   30   25 ar
    31   31   32 1
    32   32   33 1
    33   33   34 1
    34   34   35 1
    35   35   36 1
    36   36   42 1
    37   37   25 1
    38   38   32 1
    39   39   33 1
    40   40   34 1
    41   41   31 1
    42   42   72 1
    43   43    8 1
    44   44    9 1
    45   45    5 1
    46   46    6 1
    47   47   10 1
    48   48   11 1
    49   49   17 1
    50   50   12 1
    51   51   18 1
    52   52   13 1
    53   53   19 1
    54   54   14 1
    55   55   15 1
    56   56   15 1
    57   58   29 1
    58   59   30 1
    59   60   26 1
    60   61   27 1
    61   62   31 1
    62   63   32 1
    63   64   38 1
    64   65   33 1
    65   66   39 1
    66   67   34 1
    67   68   40 1
    68   69   35 1
    69   70   36 1
    70   71   36 1
    71   10   16 1
    72   14   20 1
    73   31   37 1
    74   35   41 1
@<TRIPOS>SUBSTRUCTURE
     1 RES1 1
     2 RES2 22

@<TRIPOS>CRYSIN
  28.8100    6.7470    6.7290  90.0000 103.6800  90.0000   4 1

