# MOL2 file generated by ConQuest
# Please check atom types

@<TRIPOS>MOLECULE
BAYDUA
    39    45     3
SMALL
NO_CHARGES
****
Generated from CSD

@<TRIPOS>ATOM
      1 C1        16.7113    3.8878    0.3020 C.2       1 RES1    0.0000
      2 C2        17.9071    4.3278   -0.4536 C.3       1 RES1    0.0000
      3 C3        19.1806    4.1366    0.5240 C.3       1 RES1    0.0000
      4 C4        19.1325    2.6040    0.1277 C.3       1 RES1    0.0000
      5 C5        18.0255    1.9639    0.9358 C.ar      1 RES1    0.0000
      6 C6        18.2773    0.7313    1.6579 C.ar      1 RES1    0.0000
      7 C7        17.2407    0.1850    2.4636 C.ar      1 RES1    0.0000
      8 C8        16.0227    0.8401    2.4708 C.ar      1 RES1    0.0000
      9 C9        15.7524    2.0527    1.7558 C.ar      1 RES1    0.0000
     10 C10       16.7890    2.5827    0.9895 C.ar      1 RES1    0.0000
     11 C11       18.4587    3.0577   -1.2581 C.3       1 RES1    0.0000
     12 N1        15.6340    4.5329    0.4082 N.2       1 RES1    0.0000
     13 O1        15.6636    5.8030   -0.2877 O.3       1 RES1    0.0000
     14 C12       10.9656    3.2690    0.6183 C.2       2 RES2    0.0000
     15 C13       10.8509    2.0277   -0.2865 C.3       2 RES2    0.0000
     16 C14       10.2548    0.8926    0.7412 C.3       2 RES2    0.0000
     17 C15        8.8591    1.4989    0.5037 C.3       2 RES2    0.0000
     18 C16        8.7407    2.7402    1.3607 C.ar      2 RES2    0.0000
     19 C17        7.5597    2.9802    2.1282 C.ar      2 RES2    0.0000
     20 C18        7.4116    4.1391    2.8814 C.ar      2 RES2    0.0000
     21 C19        8.4741    5.1154    2.8611 C.ar      2 RES2    0.0000
     22 C20        9.6440    4.8779    2.1437 C.ar      2 RES2    0.0000
     23 C21        9.7513    3.6840    1.3762 C.ar      2 RES2    0.0000
     24 C22        9.3848    2.0339   -0.9525 C.3       2 RES2    0.0000
     25 N2        12.0355    4.0078    0.6756 N.2       2 RES2    0.0000
     26 O2        13.0980    3.4790   -0.1038 O.3       2 RES2    0.0000
     27 C23       13.4868    8.4694    0.5980 C.2       3 RES3    0.0000
     28 C24       13.0129    9.2895    1.7904 C.3       3 RES3    0.0000
     29 C25       14.2124   10.3433    2.0972 C.3       3 RES3    0.0000
     30 C26       13.5756   11.2096    0.9310 C.3       3 RES3    0.0000
     31 C27       14.0606   10.6058   -0.3676 C.ar      3 RES3    0.0000
     32 C28       14.5456   11.4197   -1.4049 C.ar      3 RES3    0.0000
     33 C29       15.0527   10.7959   -2.6522 C.ar      3 RES3    0.0000
     34 C30       14.9972    9.4758   -2.8050 C.ar      3 RES3    0.0000
     35 C31       14.4567    8.6132   -1.7200 C.ar      3 RES3    0.0000
     36 C32       13.9976    9.2295   -0.5574 C.ar      3 RES3    0.0000
     37 C33       12.2132   10.5146    1.2163 C.3       3 RES3    0.0000
     38 N3        13.3165    7.1943    0.4679 N.2       3 RES3    0.0000
     39 O3        12.7463    6.5918    1.5839 O.3       3 RES3    0.0000
@<TRIPOS>BOND
     1    1    2 1
     2    2    3 1
     3    3    4 1
     4    4    5 1
     5    5    6 ar
     6    6    7 ar
     7    7    8 ar
     8    8    9 ar
     9    9   10 ar
    10   10    1 1
    11   11    2 1
    12   12    1 2
    13   13   12 1
    14   14   15 1
    15   15   16 1
    16   16   17 1
    17   17   18 1
    18   18   19 ar
    19   19   20 ar
    20   20   21 ar
    21   21   22 ar
    22   22   23 ar
    23   23   14 1
    24   24   15 1
    25   25   14 2
    26   26   25 1
    27   27   28 1
    28   28   29 1
    29   29   30 1
    30   30   31 1
    31   31   32 ar
    32   32   33 ar
    33   33   34 ar
    34   34   35 ar
    35   35   36 ar
    36   36   27 1
    37   37   28 1
    38   38   27 2
    39   39   38 1
    40    4   11 1
    41    5   10 ar
    42   17   24 1
    43   18   23 ar
    44   30   37 1
    45   31   36 ar
@<TRIPOS>SUBSTRUCTURE
     1 RES1 1
     2 RES2 14
     3 RES3 27

@<TRIPOS>CRYSIN
  37.0210   12.5010   11.9360  90.0000  90.0000  90.0000  61 3

