# MOL2 file generated by ConQuest
# Please check atom types

@<TRIPOS>MOLECULE
BAYKAQ
    35    36     1
SMALL
USER_CHARGES
****
Generated from CSD

@<TRIPOS>ATOM
      1 O1         4.0250    6.2211    0.2682 O.2       1 RES1    0.0000
      2 O2         1.6829    8.9363    2.6968 O.2       1 RES1   -1.0000
      3 O3         0.8816    5.2337    1.0124 O.3       1 RES1    0.0000
      4 H1         0.5674    5.3376    0.2398 H         1 RES1    0.0000
      5 N1         2.6290    8.1194    2.2772 N.pl3     1 RES1    1.0000
      6 C1         4.6371    2.9663    4.0664 C.ar      1 RES1    0.0000
      7 H2         4.8965    2.2810    4.6695 H         1 RES1    0.0000
      8 C2         5.3324    3.1397    2.8712 C.ar      1 RES1    0.0000
      9 H3         6.0702    2.5797    2.6665 H         1 RES1    0.0000
     10 C3         4.9465    4.1285    1.9811 C.ar      1 RES1    0.0000
     11 H4         5.4117    4.2381    1.1607 H         1 RES1    0.0000
     12 C4         3.8681    4.9679    2.2930 C.ar      1 RES1    0.0000
     13 C5         3.4878    6.0434    1.3448 C.2       1 RES1    0.0000
     14 C6         2.3585    6.9587    1.7747 C.2       1 RES1    0.0000
     15 C7         3.9939    8.6255    2.3462 C.ar      1 RES1    0.0000
     16 C8         4.7811    8.3388    3.4464 C.ar      1 RES1    0.0000
     17 H5         4.4424    7.8198    4.1663 H         1 RES1    0.0000
     18 C9         6.0764    8.8290    3.4712 C.ar      1 RES1    0.0000
     19 H6         6.6278    8.6399    4.2214 H         1 RES1    0.0000
     20 C10        6.5910    9.5901    2.4256 C.ar      1 RES1    0.0000
     21 C11        7.9948   10.1381    2.4631 C.3       1 RES1    0.0000
     22 H7         7.9705   11.0835    2.7186 H         1 RES1    0.0000
     23 H8         8.4051   10.0490    1.5767 H         1 RES1    0.0000
     24 H9         8.5240    9.6359    3.1182 H         1 RES1    0.0000
     25 C12        3.5663    3.7901    4.3788 C.ar      1 RES1    0.0000
     26 H10        3.0949    3.6672    5.1944 H         1 RES1    0.0000
     27 C13        3.1811    4.7945    3.5003 C.ar      1 RES1    0.0000
     28 H11        2.4517    5.3641    3.7189 H         1 RES1    0.0000
     29 C14        5.7587    9.8635    1.3393 C.ar      1 RES1    0.0000
     30 H12        6.0924   10.3838    0.6176 H         1 RES1    0.0000
     31 C15        4.4605    9.3950    1.2909 C.ar      1 RES1    0.0000
     32 H13        3.9008    9.5938    0.5510 H         1 RES1    0.0000
     33 C16        0.9366    6.4830    1.6705 C.3       1 RES1    0.0000
     34 H14        0.5472    6.3986    2.5769 H         1 RES1    0.0000
     35 H15        0.4005    7.1465    1.1674 H         1 RES1    0.0000
@<TRIPOS>BOND
     1    1   13 2
     2    2    5 1
     3    3    4 1
     4    5   14 2
     5    6    7 1
     6    8    6 ar
     7    9    8 1
     8   10    8 ar
     9   11   10 1
    10   12   10 ar
    11   13   12 1
    12   14   13 1
    13   15    5 1
    14   16   15 ar
    15   17   16 1
    16   18   16 ar
    17   19   18 1
    18   20   18 ar
    19   21   20 1
    20   22   21 1
    21   23   21 1
    22   24   21 1
    23   25    6 ar
    24   26   25 1
    25   27   12 ar
    26   28   27 1
    27   29   20 ar
    28   30   29 1
    29   31   15 ar
    30   32   31 1
    31   33    3 1
    32   34   33 1
    33   35   33 1
    34   14   33 1
    35   25   27 ar
    36   29   31 ar
@<TRIPOS>SUBSTRUCTURE
     1 RES1 1

@<TRIPOS>CRYSIN
  13.9065   13.9065    6.0548  90.0000  90.0000 120.0000 145 1

