# MOL2 file generated by ConQuest
# Please check atom types

@<TRIPOS>MOLECULE
BAZKIW
    30    30     1
SMALL
NO_CHARGES
****
Generated from CSD

@<TRIPOS>ATOM
      1 C1         4.0223   -0.7727    8.2263 C.ar      1 RES1    0.0000
      2 C2         5.1648   -0.9261    7.4651 C.ar      1 RES1    0.0000
      3 C3         6.2972   -1.4894    8.0161 C.ar      1 RES1    0.0000
      4 C4         6.3249   -1.9274    9.3429 C.ar      1 RES1    0.0000
      5 C5         5.1663   -1.8080   10.0738 C.ar      1 RES1    0.0000
      6 C6         4.0172   -1.2446    9.5306 C.ar      1 RES1    0.0000
      7 C7         7.5718   -2.4790    9.9587 C.3       1 RES1    0.0000
      8 C8         2.3566    0.8642    8.1570 C.2       1 RES1    0.0000
      9 C9         1.1229    1.4953    7.5948 C.3       1 RES1    0.0000
     10 C10        2.9746    1.5971    9.3026 C.2       1 RES1    0.0000
     11 C11        4.1434    2.4745    8.9997 C.2       1 RES1    0.0000
     12 C12        4.7315    3.3048   10.0817 C.3       1 RES1    0.0000
     13 N1         2.8535   -0.1932    7.6462 N.2       1 RES1    0.0000
     14 N2         2.5456    1.5750   10.5164 N.2       1 RES1    0.0000
     15 O1         1.4504    0.7344   10.6372 O.3       1 RES1    0.0000
     16 O2         4.5680    2.4981    7.8664 O.2       1 RES1    0.0000
     17 H1         1.1812    0.6887   11.4117 H         1 RES1    0.0000
     18 H2         5.1400   -0.6385    6.6112 H         1 RES1    0.0000
     19 H3         7.1136   -1.5912    7.4964 H         1 RES1    0.0000
     20 H4         5.1612   -2.1634   10.9557 H         1 RES1    0.0000
     21 H5         3.1643   -1.1090   10.0627 H         1 RES1    0.0000
     22 H6         8.1029   -3.0689    9.4323 H         1 RES1    0.0000
     23 H7         7.2376   -3.1087   10.8652 H         1 RES1    0.0000
     24 H8         8.1774   -1.9451   10.1219 H         1 RES1    0.0000
     25 H9         0.4662    1.6251    8.2900 H         1 RES1    0.0000
     26 H10        0.8135    1.0293    6.8057 H         1 RES1    0.0000
     27 H11        1.3986    2.3345    7.3019 H         1 RES1    0.0000
     28 H12        5.1181    2.8639   10.6606 H         1 RES1    0.0000
     29 H13        3.9136    3.8150   10.5690 H         1 RES1    0.0000
     30 H14        5.3319    3.8991    9.7072 H         1 RES1    0.0000
@<TRIPOS>BOND
     1    1    2 ar
     2    2    3 ar
     3    3    4 ar
     4    4    5 ar
     5    5    6 ar
     6    6    1 ar
     7    7    4 1
     8    8    9 1
     9    9   25 1
    10   10    8 1
    11   11   10 1
    12   12   11 1
    13   13    1 1
    14   14   10 2
    15   15   14 1
    16   16   11 2
    17   17   15 1
    18   18    2 1
    19   19    3 1
    20   20    5 1
    21   21    6 1
    22   22    7 1
    23   23    7 1
    24   24    7 1
    25   26    9 1
    26   27    9 1
    27   28   12 1
    28   29   12 1
    29   30   12 1
    30    8   13 2
@<TRIPOS>SUBSTRUCTURE
     1 RES1 1

@<TRIPOS>CRYSIN
   7.2960   14.7470   11.1770  90.0000  90.0000  90.0000  19 1

