# MOL2 file generated by ConQuest
# Please check atom types

@<TRIPOS>MOLECULE
BAZKES
    56    56     2
SMALL
NO_CHARGES
****
Generated from CSD

@<TRIPOS>ATOM
      1 C1         8.4547    8.0935    3.0733 C.ar      1 RES1    0.0000
      2 C2         8.0888    9.3211    3.6021 C.ar      1 RES1    0.0000
      3 C3         8.7237   10.4719    3.1653 C.ar      1 RES1    0.0000
      4 C4         9.7220   10.4365    2.2098 C.ar      1 RES1    0.0000
      5 C5        10.0622    9.2011    1.6854 C.ar      1 RES1    0.0000
      6 C6         9.4345    8.0443    2.0953 C.ar      1 RES1    0.0000
      7 C7        10.4021   11.6897    1.7281 C.3       1 RES1    0.0000
      8 C8         7.9494    6.3918    4.6149 C.2       1 RES1    0.0000
      9 C9         8.8740    6.9682    5.6457 C.3       1 RES1    0.0000
     10 C10        7.1777    5.1819    4.9731 C.2       1 RES1    0.0000
     11 C11        6.2442    4.5405    4.0041 C.3       1 RES1    0.0000
     12 N1         7.7820    6.8856    3.4427 N.2       1 RES1    0.0000
     13 N2         7.3614    4.7786    6.1712 N.2       1 RES1    0.0000
     14 O1         6.5857    3.6710    6.4912 O.3       1 RES1    0.0000
     15 H1         6.7889    3.4802    7.3300 H         1 RES1    0.0000
     16 H2         7.3674    9.3289    4.2500 H         1 RES1    0.0000
     17 H3         8.4521   11.2943    3.5662 H         1 RES1    0.0000
     18 H4        10.8279    9.1381    1.0117 H         1 RES1    0.0000
     19 H5         9.7497    7.1393    1.7225 H         1 RES1    0.0000
     20 H6         9.9028   12.1127    1.0308 H         1 RES1    0.0000
     21 H7        10.4449   12.3074    2.3704 H         1 RES1    0.0000
     22 H8        11.1780   11.5913    1.2441 H         1 RES1    0.0000
     23 H9         9.3472    6.2599    6.1578 H         1 RES1    0.0000
     24 H10        9.5635    7.5898    5.2505 H         1 RES1    0.0000
     25 H11        8.3528    7.3774    6.2757 H         1 RES1    0.0000
     26 H12        6.7238    4.2612    3.0676 H         1 RES1    0.0000
     27 H13        5.9305    3.7497    4.2669 H         1 RES1    0.0000
     28 H14        5.7819    5.1327    3.5887 H         1 RES1    0.0000
     29 C12        5.4205   -1.8119    5.8658 C.ar      2 RES2    0.0000
     30 C13        4.3719   -2.0814    5.0136 C.ar      2 RES2    0.0000
     31 C14        3.6938   -1.0348    4.4162 C.ar      2 RES2    0.0000
     32 C15        4.0491    0.2794    4.6217 C.ar      2 RES2    0.0000
     33 C16        5.1290    0.5253    5.4335 C.ar      2 RES2    0.0000
     34 C17        5.8078   -0.5036    6.0556 C.ar      2 RES2    0.0000
     35 C18        3.2827    1.4302    3.9918 C.3       2 RES2    0.0000
     36 C19        5.9866   -3.1615    7.7140 C.2       2 RES2    0.0000
     37 C20        5.0875   -2.3883    8.6393 C.3       2 RES2    0.0000
     38 C21        6.7361   -4.3182    8.2485 C.2       2 RES2    0.0000
     39 C22        7.8006   -4.9930    7.4569 C.3       2 RES2    0.0000
     40 N3         6.1338   -2.9037    6.4609 N.2       2 RES2    0.0000
     41 N4         6.3742   -4.7058    9.4163 N.2       2 RES2    0.0000
     42 O2         7.0864   -5.8212    9.8351 O.3       2 RES2    0.0000
     43 H15        6.6910   -6.0750   10.6099 H         2 RES2    0.0000
     44 H16        4.1277   -3.0060    4.8530 H         2 RES2    0.0000
     45 H17        2.9716   -1.2099    3.9210 H         2 RES2    0.0000
     46 H18        5.3956    1.5030    5.6154 H         2 RES2    0.0000
     47 H19        6.5516   -0.2971    6.6282 H         2 RES2    0.0000
     48 H20        2.3804    1.2060    4.0243 H         2 RES2    0.0000
     49 H21        3.3317    1.4047    3.0306 H         2 RES2    0.0000
     50 H22        3.5596    2.2545    4.2422 H         2 RES2    0.0000
     51 H23        4.7773   -3.0060    9.3074 H         2 RES2    0.0000
     52 H24        5.5434   -1.7450    9.0648 H         2 RES2    0.0000
     53 H25        4.2888   -2.0145    8.1901 H         2 RES2    0.0000
     54 H26        8.5941   -5.2802    8.1317 H         2 RES2    0.0000
     55 H27        7.4275   -5.7504    7.0572 H         2 RES2    0.0000
     56 H28        8.2332   -4.4382    6.8416 H         2 RES2    0.0000
@<TRIPOS>BOND
     1    1    2 ar
     2    2    3 ar
     3    3    4 ar
     4    4    5 ar
     5    5    6 ar
     6    6    1 ar
     7    7    4 1
     8    8    9 1
     9    9   23 1
    10   10    8 1
    11   11   10 1
    12   12    1 1
    13   13   10 2
    14   14   13 1
    15   15   14 1
    16   16    2 1
    17   17    3 1
    18   18    5 1
    19   19    6 1
    20   20    7 1
    21   21    7 1
    22   22    7 1
    23   24    9 1
    24   25    9 1
    25   26   11 1
    26   27   11 1
    27   28   11 1
    28   29   30 ar
    29   30   31 ar
    30   31   32 ar
    31   32   33 ar
    32   33   34 ar
    33   34   29 ar
    34   35   32 1
    35   36   37 1
    36   37   51 1
    37   38   36 1
    38   39   38 1
    39   40   29 1
    40   41   38 2
    41   42   41 1
    42   43   42 1
    43   44   30 1
    44   45   31 1
    45   46   33 1
    46   47   34 1
    47   48   35 1
    48   49   35 1
    49   50   35 1
    50   52   37 1
    51   53   37 1
    52   54   39 1
    53   55   39 1
    54   56   39 1
    55    8   12 2
    56   36   40 2
@<TRIPOS>SUBSTRUCTURE
     1 RES1 1
     2 RES2 29

