# MOL2 file generated by ConQuest
# Please check atom types

@<TRIPOS>MOLECULE
BAZPIC
    24    24     1
SMALL
NO_CHARGES
****
Generated from CSD

@<TRIPOS>ATOM
      1 N1         7.4884    4.6037    2.4372 N.3       1 RES1    0.0000
      2 N2         4.8537    4.0612   -2.5093 N.pl3     1 RES1    0.0000
      3 N3         7.6312    6.5918    0.5482 N.pl3     1 RES1    0.0000
      4 H1         7.5988    6.7861    1.3866 H         1 RES1    0.0000
      5 H2         7.3992    7.2636    0.0175 H         1 RES1    0.0000
      6 O1         4.0867    3.1161   -2.6803 O.2       1 RES1    0.0000
      7 O2         5.0913    4.8914   -3.3705 O.2       1 RES1    0.0000
      8 C1         6.8040    4.4203    1.2191 C.ar      1 RES1    0.0000
      9 C2         6.9067    5.4535    0.2535 C.ar      1 RES1    0.0000
     10 C3         6.2803    5.3060   -0.9753 C.ar      1 RES1    0.0000
     11 H3         6.3290    6.0333   -1.6708 H         1 RES1    0.0000
     12 C4         5.5173    4.1740   -1.2086 C.ar      1 RES1    0.0000
     13 C5         5.3512    3.1824   -0.2719 C.ar      1 RES1    0.0000
     14 H4         4.8282    2.4407   -0.4596 H         1 RES1    0.0000
     15 C6         6.0052    3.3164    0.9402 C.ar      1 RES1    0.0000
     16 H5         5.9310    2.5557    1.6085 H         1 RES1    0.0000
     17 C7         8.9416    4.5465    2.3295 C.3       1 RES1    0.0000
     18 H6         9.4133    4.8295    3.1232 H         1 RES1    0.0000
     19 H7         9.2451    5.0605    1.6050 H         1 RES1    0.0000
     20 H8         9.2215    3.5406    2.1733 H         1 RES1    0.0000
     21 C8         7.0033    3.8357    3.5793 C.3       1 RES1    0.0000
     22 H9         7.4597    4.1508    4.3783 H         1 RES1    0.0000
     23 H10        7.1334    2.8652    3.4714 H         1 RES1    0.0000
     24 H11        6.0636    3.9662    3.7082 H         1 RES1    0.0000
@<TRIPOS>BOND
     1    1    8 1
     2    2    6 2
     3    3    4 1
     4    5    3 1
     5    7    2 2
     6    8    9 ar
     7    9    3 1
     8   10    9 ar
     9   11   10 1
    10   12    2 1
    11   13   12 ar
    12   14   13 1
    13   15    8 ar
    14   16   15 1
    15   17    1 1
    16   18   17 1
    17   19   17 1
    18   20   17 1
    19   21    1 1
    20   22   21 1
    21   23   21 1
    22   24   21 1
    23   10   12 ar
    24   13   15 ar
@<TRIPOS>SUBSTRUCTURE
     1 RES1 1

@<TRIPOS>CRYSIN
   9.4110   11.0540    9.4870  90.0000 112.4100  90.0000  14 1

