# MOL2 file generated by ConQuest
# Please check atom types

@<TRIPOS>MOLECULE
BAZPUO
    26    26     1
SMALL
NO_CHARGES
****
Generated from CSD

@<TRIPOS>ATOM
      1 N1         1.6382    1.2695   -2.2725 N.3       1 RES1    0.0000
      2 N2         1.9623   -2.2356    2.0823 N.pl3     1 RES1    0.0000
      3 O1         2.0450   -3.4273    1.8057 O.2       1 RES1    0.0000
      4 O2         1.9725   -1.8518    3.2293 O.2       1 RES1    0.0000
      5 O3         1.6822    0.5801    2.4652 O.3       1 RES1    0.0000
      6 C1         1.7203    0.4244   -1.2121 C.ar      1 RES1    0.0000
      7 C2         1.6679    0.9239    0.0959 C.ar      1 RES1    0.0000
      8 H1         1.5858    1.8418    0.2227 H         1 RES1    0.0000
      9 C3         1.7347    0.0990    1.2069 C.ar      1 RES1    0.0000
     10 C4         1.8650   -1.2882    1.0099 C.ar      1 RES1    0.0000
     11 C5         1.9185   -1.7867   -0.2904 C.ar      1 RES1    0.0000
     12 H2         1.9968   -2.7048   -0.4180 H         1 RES1    0.0000
     13 C6         1.8584   -0.9690   -1.3851 C.ar      1 RES1    0.0000
     14 H3         1.9091   -1.3299   -2.2399 H         1 RES1    0.0000
     15 C7         1.5174    2.7005   -2.1020 C.3       1 RES1    0.0000
     16 H4         1.3607    3.1122   -2.9552 H         1 RES1    0.0000
     17 H5         2.3293    3.0470   -1.7234 H         1 RES1    0.0000
     18 H6         0.7834    2.8918   -1.5144 H         1 RES1    0.0000
     19 C8         1.6975    0.7654   -3.6319 C.3       1 RES1    0.0000
     20 H7         1.5775    1.4913   -4.2486 H         1 RES1    0.0000
     21 H8         1.0022    0.1162   -3.7638 H         1 RES1    0.0000
     22 H9         2.5521    0.3542   -3.7835 H         1 RES1    0.0000
     23 C9         1.5456    1.9913    2.6528 C.3       1 RES1    0.0000
     24 H10        1.4989    2.1865    3.5916 H         1 RES1    0.0000
     25 H11        0.7435    2.2955    2.2228 H         1 RES1    0.0000
     26 H12        2.3040    2.4401    2.2708 H         1 RES1    0.0000
@<TRIPOS>BOND
     1    1    6 1
     2    2    3 2
     3    4    2 2
     4    5    9 1
     5    6    7 ar
     6    7    8 1
     7    9    7 ar
     8   10    2 1
     9   11   10 ar
    10   12   11 1
    11   13    6 ar
    12   14   13 1
    13   15    1 1
    14   16   15 1
    15   17   15 1
    16   18   15 1
    17   19    1 1
    18   20   19 1
    19   21   19 1
    20   22   19 1
    21   23    5 1
    22   24   23 1
    23   25   23 1
    24   26   23 1
    25    9   10 ar
    26   11   13 ar
@<TRIPOS>SUBSTRUCTURE
     1 RES1 1

@<TRIPOS>CRYSIN
   7.0170    8.1800    9.3230  72.9600  71.0500  76.7300   2 1

