# MOL2 file generated by ConQuest
# Please check atom types

@<TRIPOS>MOLECULE
BAZQAV
    25    25     1
SMALL
NO_CHARGES
****
Generated from CSD

@<TRIPOS>ATOM
      1 N1         0.8746   -2.0794    5.9834 N.3       1 RES1    0.0000
      2 N2         0.1982    1.0610    1.3857 N.pl3     1 RES1    0.0000
      3 O1        -0.8281    1.7620    1.3574 O.2       1 RES1    0.0000
      4 O2         1.0402    1.1182    0.4751 O.2       1 RES1    0.0000
      5 C1         0.7087   -1.3495    4.8512 C.ar      1 RES1    0.0000
      6 C2         1.6967   -1.3411    3.8255 C.ar      1 RES1    0.0000
      7 H1         2.4789   -1.8835    3.9252 H         1 RES1    0.0000
      8 C3         1.5790   -0.5951    2.6575 C.ar      1 RES1    0.0000
      9 C4         0.4231    0.1882    2.5104 C.ar      1 RES1    0.0000
     10 C5        -0.5739    0.1807    3.4971 C.ar      1 RES1    0.0000
     11 H2        -1.2805    0.7349    3.3741 H         1 RES1    0.0000
     12 C6        -0.4523   -0.5699    4.6368 C.ar      1 RES1    0.0000
     13 H3        -1.1913   -0.5608    5.3093 H         1 RES1    0.0000
     14 C7         2.0819   -2.8535    6.2029 C.3       1 RES1    0.0000
     15 H4         2.9157   -2.2619    6.2527 H         1 RES1    0.0000
     16 H5         2.2124   -3.5752    5.5063 H         1 RES1    0.0000
     17 H6         1.9750   -3.3340    7.0075 H         1 RES1    0.0000
     18 C8        -0.1539   -2.0798    7.0208 C.3       1 RES1    0.0000
     19 H7        -0.3069   -1.1541    7.3999 H         1 RES1    0.0000
     20 H8         0.0937   -2.6367    7.6808 H         1 RES1    0.0000
     21 H9        -1.0239   -2.4522    6.6800 H         1 RES1    0.0000
     22 C9         2.7009   -0.6843    1.6476 C.3       1 RES1    0.0000
     23 H10        3.1291    0.1101    1.4946 H         1 RES1    0.0000
     24 H11        2.3775   -0.9618    0.7855 H         1 RES1    0.0000
     25 H12        3.3505   -1.3448    1.9767 H         1 RES1    0.0000
@<TRIPOS>BOND
     1    1    5 1
     2    2    3 2
     3    4    2 2
     4    5    6 ar
     5    6    7 1
     6    8    6 ar
     7    9    2 1
     8   10    9 ar
     9   11   10 1
    10   12    5 ar
    11   13   12 1
    12   14    1 1
    13   15   14 1
    14   16   14 1
    15   17   14 1
    16   18    1 1
    17   19   18 1
    18   20   18 1
    19   21   18 1
    20   22    8 1
    21   23   22 1
    22   24   22 1
    23   25   22 1
    24    8    9 ar
    25   10   12 ar
@<TRIPOS>SUBSTRUCTURE
     1 RES1 1

@<TRIPOS>CRYSIN
   6.3390    8.4650    8.8880  74.4200  74.8200  82.9300   2 1

