# MOL2 file generated by ConQuest
# Please check atom types

@<TRIPOS>MOLECULE
BAZXAD
    92    94     2
SMALL
NO_CHARGES
****
Generated from CSD

@<TRIPOS>ATOM
      1 C1         1.8386    2.1426    6.2519 C.2       1 RES1    0.0000
      2 C2         1.4113    3.2873    7.1225 C.ar      1 RES1    0.0000
      3 C3         1.1910    4.5744    6.6308 C.ar      1 RES1    0.0000
      4 C4         0.6291    5.5827    7.3902 C.ar      1 RES1    0.0000
      5 H1         0.4657    6.4484    7.0334 H         1 RES1    0.0000
      6 C5         0.3185    5.2599    8.6970 C.ar      1 RES1    0.0000
      7 C6         0.5716    4.0283    9.2661 C.ar      1 RES1    0.0000
      8 H2         0.3821    3.8641   10.1818 H         1 RES1    0.0000
      9 C7         1.1117    3.0348    8.4568 C.ar      1 RES1    0.0000
     10 H3         1.2780    2.1730    8.8206 H         1 RES1    0.0000
     11 C8         1.3489    1.0369    4.2194 C.3       1 RES1    0.0000
     12 H4         1.3665    0.1184    4.5897 H         1 RES1    0.0000
     13 H5         2.2513    1.2533    3.8754 H         1 RES1    0.0000
     14 C9         0.3222    1.1312    3.0968 C.3       1 RES1    0.0000
     15 C10        0.2005    2.5588    2.6231 C.2       1 RES1    0.0000
     16 H6         0.9951    3.0089    2.3637 H         1 RES1    0.0000
     17 C11       -0.9357    3.2218    2.5466 C.2       1 RES1    0.0000
     18 H7        -0.8970    4.1224    2.2452 H         1 RES1    0.0000
     19 C12       -2.2837    2.6701    2.8960 C.3       1 RES1    0.0000
     20 H8        -2.6543    3.2447    3.6256 H         1 RES1    0.0000
     21 C13       -2.1484    1.2819    3.4549 C.2       1 RES1    0.0000
     22 H9        -2.9383    0.8551    3.7665 H         1 RES1    0.0000
     23 C14       -1.0156    0.6109    3.5478 C.2       1 RES1    0.0000
     24 H10       -1.0476   -0.2601    3.9267 H         1 RES1    0.0000
     25 C15        0.8531    0.2339    1.9598 C.3       1 RES1    0.0000
     26 H11        0.2005    0.2123    1.2299 H         1 RES1    0.0000
     27 H12        0.9927   -0.6756    2.2996 H         1 RES1    0.0000
     28 H13        1.7022    0.5933    1.6302 H         1 RES1    0.0000
     29 C16       -3.2873    2.7293    1.7215 C.3       1 RES1    0.0000
     30 H14       -4.1481    2.3419    2.0498 H         1 RES1    0.0000
     31 C17       -2.8444    1.8896    0.5365 C.3       1 RES1    0.0000
     32 H15       -1.9824    2.2189    0.2050 H         1 RES1    0.0000
     33 H16       -3.5132    1.9525   -0.1762 H         1 RES1    0.0000
     34 H17       -2.7517    0.9547    0.8135 H         1 RES1    0.0000
     35 C18       -3.5727    4.1761    1.3048 C.3       1 RES1    0.0000
     36 H18       -3.8552    4.6918    2.0882 H         1 RES1    0.0000
     37 H19       -4.2853    4.1880    0.6310 H         1 RES1    0.0000
     38 H20       -2.7605    4.5739    0.9288 H         1 RES1    0.0000
     39 C19        3.0416    8.0073    9.6431 C.2       2 RES2    0.0000
     40 C20        2.7626    9.1767    8.7386 C.ar      2 RES2    0.0000
     41 C21        2.1439   10.3431    9.1921 C.ar      2 RES2    0.0000
     42 C22        2.0128   11.4670    8.3988 C.ar      2 RES2    0.0000
     43 H21        1.5809   12.2549    8.7085 H         2 RES2    0.0000
     44 C23        2.5466   11.3794    7.1237 C.ar      2 RES2    0.0000
     45 C24        3.1451   10.2491    6.6244 C.ar      2 RES2    0.0000
     46 H22        3.4850   10.2263    5.7363 H         2 RES2    0.0000
     47 C25        4.0163    7.3850   11.7121 C.3       2 RES2    0.0000
     48 H23        4.6944    6.7659   11.3412 H         2 RES2    0.0000
     49 H24        3.2115    6.8628   11.9562 H         2 RES2    0.0000
     50 C26        4.5728    8.1111   12.9417 C.3       2 RES2    0.0000
     51 C27        5.7692    8.9352   12.5282 C.2       2 RES2    0.0000
     52 H25        6.4978    8.4849   12.1163 H         2 RES2    0.0000
     53 C28        5.8696   10.2451   12.7018 C.2       2 RES2    0.0000
     54 H26        6.6626   10.6728   12.3982 H         2 RES2    0.0000
     55 C29        4.8158   11.0999   13.3436 C.3       2 RES2    0.0000
     56 H27        4.5137   11.7609   12.6576 H         2 RES2    0.0000
     57 C30        3.6187   10.2837   13.7299 C.2       2 RES2    0.0000
     58 H28        2.8862   10.7331   14.1341 H         2 RES2    0.0000
     59 C31        3.5168    8.9755   13.5448 C.2       2 RES2    0.0000
     60 H29        2.7087    8.5561   13.8170 H         2 RES2    0.0000
     61 C32        5.0190    7.0146   13.9256 C.3       2 RES2    0.0000
     62 H30        5.7000    6.4523   13.4999 H         2 RES2    0.0000
     63 H31        4.2473    6.4627   14.1725 H         2 RES2    0.0000
     64 H32        5.3943    7.4297   14.7298 H         2 RES2    0.0000
     65 C33        5.3699   11.9061   14.5405 C.3       2 RES2    0.0000
     66 H33        4.6002   12.3721   14.9796 H         2 RES2    0.0000
     67 C34        6.0086   10.9877   15.5744 C.3       2 RES2    0.0000
     68 H34        5.3691   10.2908   15.8316 H         2 RES2    0.0000
     69 H35        6.2590   11.5094   16.3665 H         2 RES2    0.0000
     70 H36        6.8081   10.5714   15.1910 H         2 RES2    0.0000
     71 C35        6.3587   12.9731   14.0745 C.3       2 RES2    0.0000
     72 H37        7.1266   12.5417   13.6473 H         2 RES2    0.0000
     73 H38        6.6653   13.4942   14.8451 H         2 RES2    0.0000
     74 H39        5.9183   13.5687   13.4327 H         2 RES2    0.0000
     75 C36        3.2392    9.1409    7.4533 C.ar      2 RES2    0.0000
     76 H40        3.6397    8.3447    7.1263 H         2 RES2    0.0000
     77 N1         1.6248    4.9158    5.2651 N.pl3     1 RES1    0.0000
     78 N2        -0.3265    6.2849    9.5380 N.pl3     1 RES1    0.0000
     79 N3         1.5348   10.3838   10.5303 N.pl3     2 RES2    0.0000
     80 N4         2.4707   12.5769    6.2577 N.pl3     2 RES2    0.0000
     81 O1         0.9673    1.9849    5.2542 O.3       1 RES1    0.0000
     82 O2         2.7994    1.4558    6.4652 O.2       1 RES1    0.0000
     83 O3         2.5561    4.2731    4.7876 O.2       1 RES1    0.0000
     84 O4         1.0503    5.8257    4.6889 O.2       1 RES1    0.0000
     85 O5        -0.9265    7.1836    8.9526 O.2       1 RES1    0.0000
     86 O6        -0.2831    6.1652   10.7410 O.2       1 RES1    0.0000
     87 O7         3.6776    8.4131   10.7320 O.3       2 RES2    0.0000
     88 O8         2.7885    6.8603    9.3603 O.2       2 RES2    0.0000
     89 O9         1.0210    9.3589   10.9479 O.2       2 RES2    0.0000
     90 O10        1.5419   11.4494   11.1311 O.2       2 RES2    0.0000
     91 O11        3.0949   12.5704    5.2168 O.2       2 RES2    0.0000
     92 O12        1.7600   13.4983    6.6388 O.2       2 RES2    0.0000
@<TRIPOS>BOND
     1    1    2 1
     2    2    3 ar
     3    3    4 ar
     4    4    5 1
     5    6    4 ar
     6    7    6 ar
     7    8    7 1
     8    9    2 ar
     9   10    9 1
    10   11   12 1
    11   13   11 1
    12   14   11 1
    13   15   14 1
    14   16   15 1
    15   17   15 2
    16   18   17 1
    17   19   17 1
    18   20   19 1
    19   21   19 1
    20   22   21 1
    21   23   14 1
    22   24   23 1
    23   25   14 1
    24   26   25 1
    25   27   25 1
    26   28   25 1
    27   29   19 1
    28   30   29 1
    29   31   29 1
    30   32   31 1
    31   33   31 1
    32   34   31 1
    33   35   29 1
    34   36   35 1
    35   37   35 1
    36   38   35 1
    37   39   40 1
    38   40   41 ar
    39   41   42 ar
    40   42   43 1
    41   44   42 ar
    42   45   44 ar
    43   46   45 1
    44   47   48 1
    45   49   47 1
    46   50   47 1
    47   51   50 1
    48   52   51 1
    49   53   51 2
    50   54   53 1
    51   55   53 1
    52   56   55 1
    53   57   55 1
    54   58   57 1
    55   59   50 1
    56   60   59 1
    57   61   50 1
    58   62   61 1
    59   63   61 1
    60   64   61 1
    61   65   55 1
    62   66   65 1
    63   67   65 1
    64   68   67 1
    65   69   67 1
    66   70   67 1
    67   71   65 1
    68   72   71 1
    69   73   71 1
    70   74   71 1
    71   75   40 ar
    72   76   75 1
    73   77    3 1
    74   78    6 1
    75   79   41 1
    76   80   44 1
    77   81    1 1
    78   82    1 2
    79   83   77 2
    80   84   77 2
    81   85   78 2
    82   86   78 2
    83   87   39 1
    84   88   39 2
    85   89   79 2
    86   90   79 2
    87   91   80 2
    88   92   80 2
    89    7    9 ar
    90   11   81 1
    91   21   23 2
    92   45   75 ar
    93   47   87 1
    94   57   59 2
@<TRIPOS>SUBSTRUCTURE
     1 RES1 1
     2 RES2 39

@<TRIPOS>CRYSIN
   7.6377    7.8225   32.1299  93.7480  91.2210 109.0940   2 1

