# MOL2 file generated by ConQuest
# Please check atom types

@<TRIPOS>MOLECULE
BCAROX
    20    21     1
SMALL
NO_CHARGES
****
Generated from CSD

@<TRIPOS>ATOM
      1 C1         3.6747    6.2182    4.2717 C.2       1 RES1    0.0000
      2 C10        1.6159    0.8298    1.6261 C.3       1 RES1    0.0000
      3 C11       -0.9339    1.5176    1.4955 C.2       1 RES1    0.0000
      4 C12        3.9372    6.2456    1.7993 C.ar      1 RES1    0.0000
      5 C13        4.4336    6.7893    0.6155 C.ar      1 RES1    0.0000
      6 C14        5.2046    7.9497    0.6508 C.ar      1 RES1    0.0000
      7 C15        5.4794    8.5665    1.8690 C.ar      1 RES1    0.0000
      8 C16        4.9830    8.0218    3.0527 C.ar      1 RES1    0.0000
      9 C17        4.2119    6.8614    3.0183 C.ar      1 RES1    0.0000
     10 C2         1.4155    3.7005    5.0379 C.2       1 RES1    0.0000
     11 C3         0.4817    3.2169    6.0854 C.2       1 RES1    0.0000
     12 C4        -0.4333    2.2630    5.8209 C.2       1 RES1    0.0000
     13 C5        -0.7058    1.7518    4.4633 C.3       1 RES1    0.0000
     14 C6         1.2353    3.2256    3.6282 C.3       1 RES1    0.0000
     15 C7         0.7968    3.6814    7.4775 C.3       1 RES1    0.0000
     16 C8         0.5628    1.8317    3.6666 C.3       1 RES1    0.0000
     17 C9         0.3577    1.3118    2.1591 C.2       1 RES1    0.0000
     18 N1         2.1985    4.6688    5.3072 N.2       1 RES1    0.0000
     19 O1         2.8635    5.1956    4.1403 O.3       1 RES1    0.0000
     20 O2         3.9199    6.6559    5.3569 O.2       1 RES1    0.0000
@<TRIPOS>BOND
     1    1    9 1
     2    2   17 1
     3    3   17 2
     4    4    5 ar
     5    5    6 ar
     6    6    7 ar
     7    7    8 ar
     8    8    9 ar
     9    9    4 ar
    10   10   11 1
    11   11   12 2
    12   12   13 1
    13   13   16 1
    14   14   10 1
    15   15   11 1
    16   16   14 1
    17   17   16 1
    18   18   10 2
    19   19    1 1
    20   20    1 2
    21   18   19 1
@<TRIPOS>SUBSTRUCTURE
     1 RES1 1

@<TRIPOS>CRYSIN
   9.4500    9.8500    8.1100  94.6200  97.7500  86.4200   2 1

