# MOL2 file generated by ConQuest
# Please check atom types

@<TRIPOS>MOLECULE
BCBDNT
    22    23     1
SMALL
NO_CHARGES
****
Generated from CSD

@<TRIPOS>ATOM
      1 C1         1.5017    2.6085    3.7479 C.3       1 RES1    0.0000
      2 C2         3.0200    2.8571    4.0162 C.3       1 RES1    0.0000
      3 C3         2.9353    1.7102    4.9717 C.ar      1 RES1    0.0000
      4 C4         1.6003    1.5135    4.7864 C.ar      1 RES1    0.0000
      5 C5         0.9064    0.4830    5.3883 C.ar      1 RES1    0.0000
      6 C6         1.6667   -0.3272    6.2173 C.ar      1 RES1    0.0000
      7 C7         3.0208   -0.1353    6.3994 C.ar      1 RES1    0.0000
      8 C8         3.7089    0.8905    5.7806 C.ar      1 RES1    0.0000
      9 H1         1.2628    2.3002    2.8504 H         1 RES1    0.0000
     10 H2         3.5830    2.7942    3.2605 H         1 RES1    0.0000
     11 H3         0.0455    0.3571    5.2690 H         1 RES1    0.0000
     12 H4         1.2648   -1.0525    6.6419 H         1 RES1    0.0000
     13 H5         3.4874   -0.7693    6.9843 H         1 RES1    0.0000
     14 H6         4.6544    0.9613    5.8854 H         1 RES1    0.0000
     15 N1        -0.6006    3.7051    3.8873 N.pl3     1 RES1    0.0000
     16 N2         3.3366    5.2139    3.8857 N.pl3     1 RES1    0.0000
     17 O1         0.7662    3.8074    4.1008 O.3       1 RES1    0.0000
     18 O2        -1.0317    2.6369    3.5578 O.2       1 RES1    0.0000
     19 O3        -1.1769    4.7293    4.0823 O.2       1 RES1    0.0000
     20 O4         3.3092    4.0796    4.7252 O.3       1 RES1    0.0000
     21 O5         3.1995    5.0393    2.7086 O.2       1 RES1    0.0000
     22 O6         3.4988    6.2271    4.4875 O.2       1 RES1    0.0000
@<TRIPOS>BOND
     1    1    2 1
     2    2    3 1
     3    3    4 ar
     4    4    1 1
     5    5    4 ar
     6    6    5 ar
     7    7    6 ar
     8    8    3 ar
     9    9    1 1
    10   10    2 1
    11   11    5 1
    12   12    6 1
    13   13    7 1
    14   14    8 1
    15   15   17 1
    16   16   20 1
    17   17    1 1
    18   18   15 2
    19   19   15 2
    20   20    2 1
    21   21   16 2
    22   22   16 2
    23    7    8 ar
@<TRIPOS>SUBSTRUCTURE
     1 RES1 1

@<TRIPOS>CRYSIN
   7.4380   15.7330    8.1360  90.0000  98.0100  90.0000 231 1

