# MOL2 file generated by ConQuest
# Please check atom types

@<TRIPOS>MOLECULE
BEBDET
    37    39     1
SMALL
NO_CHARGES
****
Generated from CSD

@<TRIPOS>ATOM
      1 C1         4.0468    2.2344    1.1748 C.3       1 RES1    0.0000
      2 H1         3.1975    2.1046    0.7044 H         1 RES1    0.0000
      3 H2         4.5764    1.4122    1.1271 H         1 RES1    0.0000
      4 H3         4.5440    2.9672    0.7561 H         1 RES1    0.0000
      5 C2         3.0030    3.6269    2.7562 C.2       1 RES1    0.0000
      6 C3         2.7765    3.8784    4.2198 C.3       1 RES1    0.0000
      7 H4         3.5449    3.5269    4.7361 H         1 RES1    0.0000
      8 H5         1.9638    3.3956    4.5154 H         1 RES1    0.0000
      9 C4         2.6122    5.3647    4.5051 C.3       1 RES1    0.0000
     10 H6         1.9051    5.7498    3.9119 H         1 RES1    0.0000
     11 C5         2.3227    5.7132    5.9390 C.ar      1 RES1    0.0000
     12 C6         1.5794    4.9243    6.8032 C.ar      1 RES1    0.0000
     13 H7         1.2499    4.0823    6.5089 H         1 RES1    0.0000
     14 C7         1.3129    5.3561    8.0953 C.ar      1 RES1    0.0000
     15 H8         0.7978    4.8122    8.6809 H         1 RES1    0.0000
     16 C8         1.7948    6.5752    8.5337 C.ar      1 RES1    0.0000
     17 H9         1.6079    6.8677    9.4182 H         1 RES1    0.0000
     18 C9         2.5457    7.3676    7.6926 C.ar      1 RES1    0.0000
     19 H10        2.8850    8.2006    8.0000 H         1 RES1    0.0000
     20 C10        2.8067    6.9429    6.3889 C.ar      1 RES1    0.0000
     21 C11        3.4917    7.8789    5.4596 C.2       1 RES1    0.0000
     22 C12        4.2677    8.0141    3.0824 C.ar      1 RES1    0.0000
     23 C13        4.9944    9.1877    3.1321 C.ar      1 RES1    0.0000
     24 H11        5.2699    9.5479    3.9659 H         1 RES1    0.0000
     25 C14        5.3175    9.8363    1.9461 C.ar      1 RES1    0.0000
     26 H12        5.8097   10.6485    1.9771 H         1 RES1    0.0000
     27 C15        4.9361    9.3203    0.7277 C.ar      1 RES1    0.0000
     28 H13        5.1617    9.7701   -0.0775 H         1 RES1    0.0000
     29 C16        4.2158    8.1314    0.6950 C.ar      1 RES1    0.0000
     30 H14        3.9455    7.7707   -0.1409 H         1 RES1    0.0000
     31 C17        3.8876    7.4683    1.8620 C.ar      1 RES1    0.0000
     32 H15        3.4074    6.6485    1.8315 H         1 RES1    0.0000
     33 N1         3.8816    7.3386    4.2705 N.am      1 RES1    0.0000
     34 O1         3.7846    2.5603    2.5587 O.3       1 RES1    0.0000
     35 O2         2.5411    4.2803    1.8644 O.2       1 RES1    0.0000
     36 O3         3.8987    5.9254    4.1639 O.3       1 RES1    0.0000
     37 O4         3.6070    9.0792    5.6906 O.2       1 RES1    0.0000
@<TRIPOS>BOND
     1    1    2 1
     2    3    1 1
     3    4    1 1
     4    5    6 1
     5    6    7 1
     6    8    6 1
     7    9    6 1
     8   10    9 1
     9   11    9 1
    10   12   11 ar
    11   13   12 1
    12   14   12 ar
    13   15   14 1
    14   16   14 ar
    15   17   16 1
    16   18   16 ar
    17   19   18 1
    18   20   11 ar
    19   21   20 1
    20   22   23 ar
    21   23   24 1
    22   25   23 ar
    23   26   25 1
    24   27   25 ar
    25   28   27 1
    26   29   27 ar
    27   30   29 1
    28   31   22 ar
    29   32   31 1
    30   33   21 1
    31   34    1 1
    32   35    5 2
    33   36    9 1
    34   37   21 2
    35    5   34 1
    36   18   20 ar
    37   22   33 1
    38   29   31 ar
    39   33   36 1
@<TRIPOS>SUBSTRUCTURE
     1 RES1 1

@<TRIPOS>CRYSIN
   4.2571   14.4250   23.4810  90.0000  90.0000  90.0000  19 1

