# MOL2 file generated by ConQuest
# Please check atom types

@<TRIPOS>MOLECULE
BEBHIC
    45    49     1
SMALL
NO_CHARGES
****
Generated from CSD

@<TRIPOS>ATOM
      1 N1         5.3050    6.6687    0.2991 N.ar      1 RES1    0.0000
      2 C1         6.6652    4.6190    0.3636 C.ar      1 RES1    0.0000
      3 C2         6.4405    4.5695    1.7606 C.ar      1 RES1    0.0000
      4 C3         6.0118    5.6891   -0.3185 C.ar      1 RES1    0.0000
      5 C4         5.1991    6.6468    1.6175 C.ar      1 RES1    0.0000
      6 C5         4.4296    7.7474    2.2614 C.ar      1 RES1    0.0000
      7 C6         7.4479    3.7719   -1.8224 C.ar      1 RES1    0.0000
      8 C7         6.0570    5.7482   -1.7419 C.ar      1 RES1    0.0000
      9 H1         5.6285    6.4456   -2.1841 H         1 RES1    0.0000
     10 C8         7.4713    1.3121    4.2779 C.ar      1 RES1    0.0000
     11 C9         5.7498    5.5916    2.3666 C.ar      1 RES1    0.0000
     12 H2         5.6441    5.5849    3.2904 H         1 RES1    0.0000
     13 C10        7.4767    3.6838   -0.4091 C.ar      1 RES1    0.0000
     14 C11        6.2016    2.1817    2.4800 C.ar      1 RES1    0.0000
     15 H3         5.5687    2.0663    1.8080 H         1 RES1    0.0000
     16 C12        6.8177    3.4188    2.6399 C.ar      1 RES1    0.0000
     17 C13        4.1810    7.7857    3.6233 C.ar      1 RES1    0.0000
     18 H4         4.5191    7.1140    4.1708 H         1 RES1    0.0000
     19 C14        6.5191    1.1234    3.3077 C.ar      1 RES1    0.0000
     20 H5         6.0970    0.3008    3.2104 H         1 RES1    0.0000
     21 C15        7.7311    3.5863    3.6628 C.ar      1 RES1    0.0000
     22 H6         8.1153    4.4209    3.8035 H         1 RES1    0.0000
     23 C16        3.9122    8.7798    1.4832 C.ar      1 RES1    0.0000
     24 H7         4.0577    8.7744    0.5647 H         1 RES1    0.0000
     25 N2         7.8525    0.1822    5.1368 N.pl3     1 RES1    0.0000
     26 C17        6.7057    4.8173   -2.4553 C.ar      1 RES1    0.0000
     27 H8         6.6721    4.8521   -3.3836 H         1 RES1    0.0000
     28 C18        8.1835    2.8540   -2.5903 C.ar      1 RES1    0.0000
     29 H9         8.1339    2.8950   -3.5185 H         1 RES1    0.0000
     30 C19        8.3429    2.7205    0.1531 C.ar      1 RES1    0.0000
     31 H10        8.4312    2.6770    1.0778 H         1 RES1    0.0000
     32 C20        8.0788    2.5277    4.4772 C.ar      1 RES1    0.0000
     33 H11        8.7131    2.6353    5.1489 H         1 RES1    0.0000
     34 C21        3.1889    9.8091    2.0453 C.ar      1 RES1    0.0000
     35 H12        2.8654   10.4944    1.5065 H         1 RES1    0.0000
     36 O1         8.7649    0.3504    5.9220 O.2       1 RES1    0.0000
     37 C22        2.9420    9.8289    3.3976 C.ar      1 RES1    0.0000
     38 H13        2.4498   10.5205    3.7772 H         1 RES1    0.0000
     39 O2         7.2380   -0.8691    5.0318 O.2       1 RES1    0.0000
     40 C23        9.0543    1.8515   -0.6242 C.ar      1 RES1    0.0000
     41 H14        9.6026    1.2181   -0.2204 H         1 RES1    0.0000
     42 C24        3.4343    8.8122    4.1804 C.ar      1 RES1    0.0000
     43 H15        3.2641    8.8126    5.0951 H         1 RES1    0.0000
     44 C25        8.9692    1.9020   -2.0060 C.ar      1 RES1    0.0000
     45 H16        9.4414    1.2947   -2.5295 H         1 RES1    0.0000
@<TRIPOS>BOND
     1    1    4 ar
     2    2    3 ar
     3    3   11 ar
     4    4    2 ar
     5    5    1 ar
     6    6    5 1
     7    7   13 ar
     8    8    4 ar
     9    9    8 1
    10   10   19 ar
    11   11    5 ar
    12   12   11 1
    13   13    2 ar
    14   14   15 1
    15   16    3 1
    16   17    6 ar
    17   18   17 1
    18   19   14 ar
    19   20   19 1
    20   21   16 ar
    21   22   21 1
    22   23    6 ar
    23   24   23 1
    24   25   10 1
    25   26    7 ar
    26   27   26 1
    27   28    7 ar
    28   29   28 1
    29   30   13 ar
    30   31   30 1
    31   32   10 ar
    32   33   32 1
    33   34   23 ar
    34   35   34 1
    35   36   25 2
    36   37   34 ar
    37   38   37 1
    38   39   25 2
    39   40   30 ar
    40   41   40 1
    41   42   17 ar
    42   43   42 1
    43   44   28 ar
    44   45   44 1
    45    8   26 ar
    46   14   16 ar
    47   21   32 ar
    48   37   42 ar
    49   40   44 ar
@<TRIPOS>SUBSTRUCTURE
     1 RES1 1

@<TRIPOS>CRYSIN
   8.7263    9.7151   12.4512  69.6830  70.8020  88.9460   2 1

