# MOL2 file generated by ConQuest
# Please check atom types

@<TRIPOS>MOLECULE
BEBKUP
    46    48     1
SMALL
NO_CHARGES
****
Generated from CSD

@<TRIPOS>ATOM
      1 O1        -6.3528    6.8735   -0.5059 O.2       1 RES1    0.0000
      2 O2        -6.4525    8.9164    0.2152 O.2       1 RES1    0.0000
      3 N1         6.4140    2.7465    6.1739 N.3       1 RES1    0.0000
      4 N2        -5.9004    7.8145    0.1434 N.pl3     1 RES1    0.0000
      5 C1         2.8635    4.1442    4.2774 C.ar      1 RES1    0.0000
      6 C2         3.3816    4.7904    5.3720 C.ar      1 RES1    0.0000
      7 H1         2.9191    5.5429    5.7210 H         1 RES1    0.0000
      8 C3         4.5762    4.3767    5.9954 C.ar      1 RES1    0.0000
      9 H2         4.8998    4.8486    6.7531 H         1 RES1    0.0000
     10 C4         5.2728    3.2994    5.5177 C.ar      1 RES1    0.0000
     11 C5         4.8521    2.6674    4.3064 C.ar      1 RES1    0.0000
     12 C6         5.6325    1.6655    3.6719 C.ar      1 RES1    0.0000
     13 H3         6.4522    1.3931    4.0679 H         1 RES1    0.0000
     14 C7         5.2279    1.0876    2.5050 C.ar      1 RES1    0.0000
     15 H4         5.7654    0.4198    2.0956 H         1 RES1    0.0000
     16 C8         4.0162    1.4787    1.9078 C.ar      1 RES1    0.0000
     17 H5         3.7301    1.0647    1.1025 H         1 RES1    0.0000
     18 C9         3.2488    2.4526    2.4827 C.ar      1 RES1    0.0000
     19 H6         2.4375    2.7129    2.0629 H         1 RES1    0.0000
     20 C10        3.6375    3.0812    3.6892 C.ar      1 RES1    0.0000
     21 C11        1.5526    4.4785    3.7240 C.2       1 RES1    0.0000
     22 H7         1.0688    3.7593    3.3363 H         1 RES1    0.0000
     23 C12        0.9489    5.6752    3.6958 C.2       1 RES1    0.0000
     24 H8         1.3798    6.4209    4.0968 H         1 RES1    0.0000
     25 C13       -0.3368    5.8586    3.0728 C.2       1 RES1    0.0000
     26 H9        -0.7839    5.0760    2.7744 H         1 RES1    0.0000
     27 C14       -0.9618    7.0244    2.8742 C.2       1 RES1    0.0000
     28 H10       -0.5416    7.8042    3.2169 H         1 RES1    0.0000
     29 C15       -2.2367    7.2059    2.1746 C.ar      1 RES1    0.0000
     30 C16       -2.9169    6.1346    1.5763 C.ar      1 RES1    0.0000
     31 H11       -2.5488    5.2599    1.6254 H         1 RES1    0.0000
     32 C17       -4.1177    6.3333    0.9153 C.ar      1 RES1    0.0000
     33 H12       -4.5726    5.6051    0.5079 H         1 RES1    0.0000
     34 C18       -4.6406    7.6098    0.8592 C.ar      1 RES1    0.0000
     35 C19       -4.0070    8.6932    1.4318 C.ar      1 RES1    0.0000
     36 H13       -4.3866    9.5624    1.3815 H         1 RES1    0.0000
     37 C20       -2.7995    8.4801    2.0834 C.ar      1 RES1    0.0000
     38 H14       -2.3470    9.2174    2.4752 H         1 RES1    0.0000
     39 C21        7.1457    3.6658    7.0352 C.3       1 RES1    0.0000
     40 H15        7.3512    4.4854    6.5381 H         1 RES1    0.0000
     41 H16        7.9806    3.2447    7.3288 H         1 RES1    0.0000
     42 H17        6.5990    3.8857    7.8178 H         1 RES1    0.0000
     43 C22        6.0694    1.5077    6.8975 C.3       1 RES1    0.0000
     44 H18        5.5748    0.9080    6.3005 H         1 RES1    0.0000
     45 H19        5.5137    1.7269    7.6745 H         1 RES1    0.0000
     46 H20        6.8909    1.0652    7.1981 H         1 RES1    0.0000
@<TRIPOS>BOND
     1    1    4 2
     2    2    4 2
     3    3   10 1
     4    4   34 1
     5    5    6 ar
     6    6    7 1
     7    8    6 ar
     8    9    8 1
     9   10    8 ar
    10   11   10 ar
    11   12   11 ar
    12   13   12 1
    13   14   12 ar
    14   15   14 1
    15   16   14 ar
    16   17   16 1
    17   18   16 ar
    18   19   18 1
    19   20    5 ar
    20   21    5 1
    21   22   21 1
    22   23   21 2
    23   24   23 1
    24   25   23 1
    25   26   25 1
    26   27   25 2
    27   28   27 1
    28   29   27 1
    29   30   29 ar
    30   31   30 1
    31   32   30 ar
    32   33   32 1
    33   34   32 ar
    34   35   34 ar
    35   36   35 1
    36   37   29 ar
    37   38   37 1
    38   39    3 1
    39   40   39 1
    40   41   39 1
    41   42   39 1
    42   43    3 1
    43   44   43 1
    44   45   43 1
    45   46   43 1
    46   11   20 ar
    47   18   20 ar
    48   35   37 ar
@<TRIPOS>SUBSTRUCTURE
     1 RES1 1

@<TRIPOS>CRYSIN
   6.7383   10.3948   12.8735  79.9330  81.7540  84.1030   2 1

