# MOL2 file generated by ConQuest
# Please check atom types

@<TRIPOS>MOLECULE
BEBKOJ
    39    40     1
SMALL
NO_CHARGES
****
Generated from CSD

@<TRIPOS>ATOM
      1 O1         5.9980    4.7445    1.2413 O.2       1 RES1    0.0000
      2 O2         7.6986    5.8276    2.0341 O.2       1 RES1    0.0000
      3 N1         1.2822    5.1172    9.3769 N.2       1 RES1    0.0000
      4 N2        -0.6699    5.3330   14.6837 N.3       1 RES1    0.0000
      5 N3         6.6007    5.2842    2.1668 N.pl3     1 RES1    0.0000
      6 C1         0.8417    5.2592   10.7178 C.ar      1 RES1    0.0000
      7 C2         1.5696    5.8398   11.7732 C.ar      1 RES1    0.0000
      8 H1         2.4148    6.2347   11.5933 H         1 RES1    0.0000
      9 C3         1.0788    5.8455   13.0686 C.ar      1 RES1    0.0000
     10 H2         1.6003    6.2369   13.7601 H         1 RES1    0.0000
     11 C4        -0.1761    5.2842   13.3876 C.ar      1 RES1    0.0000
     12 C5        -0.9086    4.7108   12.3202 C.ar      1 RES1    0.0000
     13 H3        -1.7561    4.3166   12.4928 H         1 RES1    0.0000
     14 C6        -0.4057    4.7165   11.0305 C.ar      1 RES1    0.0000
     15 H4        -0.9277    4.3381   10.3326 H         1 RES1    0.0000
     16 C7         2.5071    5.3244    9.0593 C.2       1 RES1    0.0000
     17 H5         3.1099    5.6326    9.7274 H         1 RES1    0.0000
     18 C8         2.9970    5.1043    7.7237 C.2       1 RES1    0.0000
     19 H6         2.3958    4.7811    7.0623 H         1 RES1    0.0000
     20 C9         4.2715    5.3402    7.3796 C.2       1 RES1    0.0000
     21 H7         4.8612    5.5918    8.0822 H         1 RES1    0.0000
     22 C10        4.8509    5.2513    6.0374 C.ar      1 RES1    0.0000
     23 C11        4.1888    4.6506    4.9426 C.ar      1 RES1    0.0000
     24 H8         3.3472    4.2313    5.0760 H         1 RES1    0.0000
     25 C12        4.7510    4.6649    3.6773 C.ar      1 RES1    0.0000
     26 H9         4.3028    4.2642    2.9426 H         1 RES1    0.0000
     27 C13        5.9852    5.2792    3.5071 C.ar      1 RES1    0.0000
     28 C14        6.6791    5.8706    4.5534 C.ar      1 RES1    0.0000
     29 H10        7.5216    6.2849    4.4072 H         1 RES1    0.0000
     30 C15        6.1065    5.8383    5.8170 C.ar      1 RES1    0.0000
     31 H11        6.5750    6.2225    6.5473 H         1 RES1    0.0000
     32 C16        0.2509    5.6125   15.7842 C.3       1 RES1    0.0000
     33 H12        0.6293    6.5093   15.6728 H         1 RES1    0.0000
     34 H13        0.9736    4.9502   15.7832 H         1 RES1    0.0000
     35 H14       -0.2327    5.5652   16.6359 H         1 RES1    0.0000
     36 C17       -1.8341    4.5216   15.0204 C.3       1 RES1    0.0000
     37 H15       -2.5718    4.7416   14.4122 H         1 RES1    0.0000
     38 H16       -2.1046    4.7065   15.9437 H         1 RES1    0.0000
     39 H17       -1.6085    3.5725   14.9305 H         1 RES1    0.0000
@<TRIPOS>BOND
     1    1    5 2
     2    2    5 2
     3    3    6 1
     4    4   11 1
     5    5   27 1
     6    6    7 ar
     7    7    8 1
     8    9    7 ar
     9   10    9 1
    10   11    9 ar
    11   12   11 ar
    12   13   12 1
    13   14    6 ar
    14   15   14 1
    15   16    3 2
    16   17   16 1
    17   18   16 1
    18   19   18 1
    19   20   18 2
    20   21   20 1
    21   22   20 1
    22   23   22 ar
    23   24   23 1
    24   25   23 ar
    25   26   25 1
    26   27   25 ar
    27   28   27 ar
    28   29   28 1
    29   30   22 ar
    30   31   30 1
    31   32    4 1
    32   33   32 1
    33   34   32 1
    34   35   32 1
    35   36    4 1
    36   37   36 1
    37   38   36 1
    38   39   36 1
    39   12   14 ar
    40   28   30 ar
@<TRIPOS>SUBSTRUCTURE
     1 RES1 1

@<TRIPOS>CRYSIN
   6.1191    7.1680   33.4490  90.0000  91.4080  90.0000 231 1

