# MOL2 file generated by ConQuest
# Please check atom types

@<TRIPOS>MOLECULE
BEBVUZ
    64    68     2
SMALL
NO_CHARGES
****
Generated from CSD

@<TRIPOS>ATOM
      1 O1         1.2153    9.2375    0.0864 O.2       1 RES1    0.0000
      2 O2         1.0968    7.2555    0.8694 O.2       1 RES1    0.0000
      3 O3         4.7361   13.6448    4.8759 O.2       2 RES2    0.0000
      4 O4         6.2998   12.2049    5.1030 O.2       2 RES2    0.0000
      5 N1         4.1575    6.6220    7.4286 N.3       1 RES1    0.0000
      6 N2         1.4859    8.4211    0.9428 N.pl3     1 RES1    0.0000
      7 N3         6.1705    8.8820   11.5853 N.3       2 RES2    0.0000
      8 N4         5.3137   12.7972    5.5360 N.pl3     2 RES2    0.0000
      9 C1         3.2864    7.3514    5.2603 C.2       1 RES1    0.0000
     10 C2         2.5023    6.2810    4.7115 C.2       1 RES1    0.0000
     11 C3         2.0216    6.6191    3.4884 C.2       1 RES1    0.0000
     12 C4         2.4626    7.9446    3.1654 C.ar      1 RES1    0.0000
     13 C5         2.2890    8.8175    2.0914 C.ar      1 RES1    0.0000
     14 C6         2.8486   10.0898    2.0784 C.ar      1 RES1    0.0000
     15 C7         3.6055   10.5006    3.1536 C.ar      1 RES1    0.0000
     16 C8         3.8122    9.6741    4.2442 C.ar      1 RES1    0.0000
     17 C9         3.2444    8.4037    4.2643 C.ar      1 RES1    0.0000
     18 C10        3.9874    7.4705    6.4385 C.2       1 RES1    0.0000
     19 C11        4.9731    6.9369    8.6056 C.3       1 RES1    0.0000
     20 C12        5.1779    5.6619    9.2822 C.3       1 RES1    0.0000
     21 C13        4.0748    4.7450    8.8493 C.3       1 RES1    0.0000
     22 C14        3.5739    5.2897    7.5268 C.3       1 RES1    0.0000
     23 C15        5.8154   10.2887    9.6110 C.2       2 RES2    0.0000
     24 C16        6.8764   10.0319    8.6742 C.2       2 RES2    0.0000
     25 C17        6.6963   10.7482    7.5374 C.2       2 RES2    0.0000
     26 C18        5.5062   11.5405    7.6652 C.ar      2 RES2    0.0000
     27 C19        4.8327   12.4557    6.8644 C.ar      2 RES2    0.0000
     28 C20        3.6725   13.0823    7.2926 C.ar      2 RES2    0.0000
     29 C21        3.1606   12.7904    8.5453 C.ar      2 RES2    0.0000
     30 C22        3.7934   11.8854    9.3733 C.ar      2 RES2    0.0000
     31 C23        4.9529   11.2587    8.9474 C.ar      2 RES2    0.0000
     32 C24        5.5272    9.7837   10.8472 C.2       2 RES2    0.0000
     33 C25        5.6595    8.4141   12.8841 C.3       2 RES2    0.0000
     34 C26        6.5335    7.3067   13.2201 C.3       2 RES2    0.0000
     35 C27        7.6974    7.2913   12.3731 C.3       2 RES2    0.0000
     36 C28        7.4120    8.2132   11.2139 C.3       2 RES2    0.0000
     37 H1         2.3382    5.4063    5.1693 H         1 RES1    0.0000
     38 H2         1.4605    6.0305    2.8981 H         1 RES1    0.0000
     39 H3         2.7072   10.6918    1.2894 H         1 RES1    0.0000
     40 H4         4.0117   11.4200    3.1465 H         1 RES1    0.0000
     41 H5         4.3669    9.9926    5.0155 H         1 RES1    0.0000
     42 H6         4.4428    8.3556    6.5651 H         1 RES1    0.0000
     43 H7         5.8538    7.3226    8.3276 H         1 RES1    0.0000
     44 H8         4.4956    7.5878    9.2029 H         1 RES1    0.0000
     45 H9         5.1325    5.7979   10.2794 H         1 RES1    0.0000
     46 H10        6.0614    5.2816    9.0373 H         1 RES1    0.0000
     47 H11        3.3384    4.7374    9.5223 H         1 RES1    0.0000
     48 H12        4.4288    3.8157    8.7298 H         1 RES1    0.0000
     49 H13        3.8829    4.7103    6.7662 H         1 RES1    0.0000
     50 H14        2.5753    5.3431    7.5232 H         1 RES1    0.0000
     51 H15        7.6368    9.4094    8.8362 H         2 RES2    0.0000
     52 H16        7.2940   10.7276    6.7307 H         2 RES2    0.0000
     53 H17        3.2090   13.7398    6.6952 H         2 RES2    0.0000
     54 H18        2.3213   13.2469    8.8599 H         2 RES2    0.0000
     55 H19        3.4177   11.6764   10.2794 H         2 RES2    0.0000
     56 H20        4.6997   10.1593   11.2730 H         2 RES2    0.0000
     57 H21        5.7059    9.1392   13.5678 H         2 RES2    0.0000
     58 H22        4.7091    8.0957   12.7990 H         2 RES2    0.0000
     59 H23        6.8378    7.4049   14.1711 H         2 RES2    0.0000
     60 H24        6.0489    6.4518   13.1183 H         2 RES2    0.0000
     61 H25        7.8590    6.3662   12.0419 H         2 RES2    0.0000
     62 H26        8.4997    7.6097   12.8699 H         2 RES2    0.0000
     63 H27        8.1453    8.8791   11.0956 H         2 RES2    0.0000
     64 H28        7.2933    7.6908   10.3740 H         2 RES2    0.0000
@<TRIPOS>BOND
     1    1    6 2
     2    2    6 2
     3    3    8 2
     4    4    8 2
     5    5   18 1
     6    6   13 1
     7    7   32 1
     8    8   27 1
     9    9   10 1
    10   10   11 2
    11   11   12 1
    12   12   13 ar
    13   13   14 ar
    14   14   15 ar
    15   15   16 ar
    16   16   17 ar
    17   17    9 1
    18   18    9 2
    19   19    5 1
    20   20   19 1
    21   21   20 1
    22   22    5 1
    23   23   24 1
    24   24   25 2
    25   25   26 1
    26   26   27 ar
    27   27   28 ar
    28   28   29 ar
    29   29   30 ar
    30   30   31 ar
    31   31   23 1
    32   32   23 2
    33   33    7 1
    34   34   33 1
    35   35   34 1
    36   36    7 1
    37   37   10 1
    38   38   11 1
    39   39   14 1
    40   40   15 1
    41   41   16 1
    42   42   18 1
    43   43   19 1
    44   44   19 1
    45   45   20 1
    46   46   20 1
    47   47   21 1
    48   48   21 1
    49   49   22 1
    50   50   22 1
    51   51   24 1
    52   52   25 1
    53   53   28 1
    54   54   29 1
    55   55   30 1
    56   56   32 1
    57   57   33 1
    58   58   33 1
    59   59   34 1
    60   60   34 1
    61   61   35 1
    62   62   35 1
    63   63   36 1
    64   64   36 1
    65   12   17 ar
    66   21   22 1
    67   26   31 ar
    68   35   36 1
@<TRIPOS>SUBSTRUCTURE
     1 RES1 1
     2 RES2 3

@<TRIPOS>CRYSIN
   9.2620   11.0560   12.9800  66.6600  80.7300  82.7400   2 1

