# MOL2 file generated by ConQuest
# Please check atom types

@<TRIPOS>MOLECULE
BEBWEK
    26    26     1
SMALL
NO_CHARGES
****
Generated from CSD

@<TRIPOS>ATOM
      1 N1         4.0101   10.9714    4.0746 N.pl3     1 RES1    0.0000
      2 O1        -0.4707    8.4773   -1.6863 O.2       1 RES1    0.0000
      3 O2         0.2969    7.2198    0.5456 O.3       1 RES1    0.0000
      4 O3         2.1146    7.1757   -0.7724 O.2       1 RES1    0.0000
      5 O4         3.4627   11.1649    5.1307 O.2       1 RES1    0.0000
      6 O5         5.0769   11.4702    3.7720 O.2       1 RES1    0.0000
      7 C1        -1.4791    6.6184   -2.7573 C.3       1 RES1    0.0000
      8 H1        -1.6305    7.2432   -3.4688 H         1 RES1    0.0000
      9 H2        -2.3222    6.2820   -2.4438 H         1 RES1    0.0000
     10 H3        -0.9438    5.8897   -3.0795 H         1 RES1    0.0000
     11 C2        -0.7665    7.3004   -1.6369 C.2       1 RES1    0.0000
     12 C3        -0.4269    6.5145   -0.4184 C.2       1 RES1    0.0000
     13 C4        -0.8245    5.3038   -0.1361 C.2       1 RES1    0.0000
     14 H4        -0.6247    4.9310    0.6919 H         1 RES1    0.0000
     15 H5        -1.3075    4.8154   -0.7623 H         1 RES1    0.0000
     16 C5         1.5720    7.5472    0.2322 C.2       1 RES1    0.0000
     17 C6         2.1893    8.4214    1.2659 C.ar      1 RES1    0.0000
     18 C7         3.3892    9.0488    0.9538 C.ar      1 RES1    0.0000
     19 H6         3.7927    8.9020    0.1293 H         1 RES1    0.0000
     20 C8         3.9797    9.8906    1.8745 C.ar      1 RES1    0.0000
     21 H7         4.7709   10.3348    1.6694 H         1 RES1    0.0000
     22 C9         3.3811   10.0647    3.0964 C.ar      1 RES1    0.0000
     23 C10        2.2023    9.4437    3.4261 C.ar      1 RES1    0.0000
     24 H8         1.8177    9.5749    4.2622 H         1 RES1    0.0000
     25 C11        1.6001    8.6267    2.5054 C.ar      1 RES1    0.0000
     26 H9         0.7946    8.2097    2.7106 H         1 RES1    0.0000
@<TRIPOS>BOND
     1    1    5 2
     2    2   11 2
     3    3   12 1
     4    4   16 2
     5    6    1 2
     6    7    8 1
     7    9    7 1
     8   10    7 1
     9   11    7 1
    10   12   11 1
    11   13   12 2
    12   14   13 1
    13   15   13 1
    14   16    3 1
    15   17   16 1
    16   18   17 ar
    17   19   18 1
    18   20   18 ar
    19   21   20 1
    20   22    1 1
    21   23   22 ar
    22   24   23 1
    23   25   17 ar
    24   26   25 1
    25   20   22 ar
    26   23   25 ar
@<TRIPOS>SUBSTRUCTURE
     1 RES1 1

@<TRIPOS>CRYSIN
   6.2080   12.9900    6.7730  90.0000  91.8100  90.0000   4 1

