# MOL2 file generated by ConQuest
# Please check atom types

@<TRIPOS>MOLECULE
BECJUO
    26    27     1
SMALL
NO_CHARGES
****
Generated from CSD

@<TRIPOS>ATOM
      1 O1         2.7017    2.7779    4.0406 O.2       1 RES1    0.0000
      2 O2         2.6277    0.7343    3.4158 O.2       1 RES1    0.0000
      3 O3        -0.4622    4.5422    4.0977 O.2       1 RES1    0.0000
      4 O4        -0.2584    2.4101    4.0567 O.2       1 RES1    0.0000
      5 N1         2.3191    1.8992    3.2866 N.pl3     1 RES1    0.0000
      6 N2        -0.0182    3.5164    3.6406 N.pl3     1 RES1    0.0000
      7 C1         1.4698    2.2888    2.0830 C.3       1 RES1    0.0000
      8 C2         0.8231    3.6253    2.3476 C.3       1 RES1    0.0000
      9 C3         2.3385    2.1540    0.7999 C.3       1 RES1    0.0000
     10 C4         1.5449    0.9046    0.4049 C.3       1 RES1    0.0000
     11 C5         0.5977    1.1144    1.5837 C.3       1 RES1    0.0000
     12 C6         1.6895    4.9074    2.3215 C.3       1 RES1    0.0000
     13 C7         0.8266    5.4755    1.1800 C.3       1 RES1    0.0000
     14 C8        -0.0558    4.2275    1.2048 C.3       1 RES1    0.0000
     15 H1         3.2333    2.0708    0.9688 H         1 RES1    0.0000
     16 H2         2.1973    2.9428    0.1987 H         1 RES1    0.0000
     17 H3         2.0721    0.0817    0.4720 H         1 RES1    0.0000
     18 H4         1.1613    0.9401   -0.4099 H         1 RES1    0.0000
     19 H5         0.5351    0.3815    2.1861 H         1 RES1    0.0000
     20 H6        -0.3188    1.4169    1.3042 H         1 RES1    0.0000
     21 H7         2.5844    4.6867    2.0495 H         1 RES1    0.0000
     22 H8         1.7191    5.3815    3.1674 H         1 RES1    0.0000
     23 H9         1.3776    5.5450    0.3851 H         1 RES1    0.0000
     24 H10        0.3643    6.3079    1.6023 H         1 RES1    0.0000
     25 H11       -0.9677    4.4006    1.4781 H         1 RES1    0.0000
     26 H12        0.0911    3.6649    0.4596 H         1 RES1    0.0000
@<TRIPOS>BOND
     1    1    5 2
     2    2    5 2
     3    3    6 2
     4    4    6 2
     5    5    7 1
     6    6    8 1
     7    7    8 1
     8    8   12 1
     9    9    7 1
    10   10    9 1
    11   11    7 1
    12   12   13 1
    13   13   14 1
    14   14    8 1
    15   15    9 1
    16   16    9 1
    17   17   10 1
    18   18   10 1
    19   19   11 1
    20   20   11 1
    21   21   12 1
    22   22   12 1
    23   23   13 1
    24   24   13 1
    25   25   14 1
    26   26   14 1
    27   10   11 1
@<TRIPOS>SUBSTRUCTURE
     1 RES1 1

@<TRIPOS>CRYSIN
  11.3850   13.6240   12.4210  90.0000  90.0000  90.0000  61 1

