# MOL2 file generated by ConQuest
# Please check atom types

@<TRIPOS>MOLECULE
BECJEY
    24    23     1
SMALL
NO_CHARGES
****
Generated from CSD

@<TRIPOS>ATOM
      1 O1         0.2017    6.0226    3.8254 O.2       1 RES1    0.0000
      2 O2         1.9502    4.9033    4.3984 O.2       1 RES1    0.0000
      3 O3         2.0587    4.6692    1.4822 O.2       1 RES1    0.0000
      4 O4         2.3026    2.5320    1.6307 O.2       1 RES1    0.0000
      5 N1         0.7949    4.9686    3.9904 N.pl3     1 RES1    0.0000
      6 N2         1.6251    3.5462    1.7074 N.pl3     1 RES1    0.0000
      7 C1         0.0659    3.6422    3.6685 C.3       1 RES1    0.0000
      8 C2         0.1392    3.4245    2.1117 C.3       1 RES1    0.0000
      9 C3        -1.3812    3.8218    4.1202 C.3       1 RES1    0.0000
     10 C4         0.7461    2.5419    4.4670 C.3       1 RES1    0.0000
     11 C5        -0.6185    4.4678    1.2983 C.3       1 RES1    0.0000
     12 C6        -0.3184    2.0169    1.7474 C.3       1 RES1    0.0000
     13 H1        -1.8611    3.0194    3.9121 H         1 RES1    0.0000
     14 H2        -1.3997    4.0022    5.0962 H         1 RES1    0.0000
     15 H3        -1.7944    4.5865    3.6915 H         1 RES1    0.0000
     16 H4         0.2367    1.7113    4.4229 H         1 RES1    0.0000
     17 H5         1.6277    2.3124    4.1443 H         1 RES1    0.0000
     18 H6         0.8176    2.8330    5.3980 H         1 RES1    0.0000
     19 H7        -1.5591    4.3438    1.3698 H         1 RES1    0.0000
     20 H8        -0.4135    4.3640    0.3483 H         1 RES1    0.0000
     21 H9        -0.4252    5.3956    1.5439 H         1 RES1    0.0000
     22 H10       -1.2178    1.9103    1.9735 H         1 RES1    0.0000
     23 H11        0.2129    1.2973    2.1708 H         1 RES1    0.0000
     24 H12       -0.2788    1.9208    0.7662 H         1 RES1    0.0000
@<TRIPOS>BOND
     1    1    5 2
     2    2    5 2
     3    3    6 2
     4    4    6 2
     5    5    7 1
     6    6    8 1
     7    7    8 1
     8    8   11 1
     9    9    7 1
    10   10    7 1
    11   11   19 1
    12   12    8 1
    13   13    9 1
    14   14    9 1
    15   15    9 1
    16   16   10 1
    17   17   10 1
    18   18   10 1
    19   20   11 1
    20   21   11 1
    21   22   12 1
    22   23   12 1
    23   24   12 1
@<TRIPOS>SUBSTRUCTURE
     1 RES1 1

@<TRIPOS>CRYSIN
   6.3000    6.3800   11.8510 100.7300  81.0000 118.7200   2 1

