# MOL2 file generated by ConQuest
# Please check atom types

@<TRIPOS>MOLECULE
BECZAM
    64    65     1
SMALL
NO_CHARGES
****
Generated from CSD

@<TRIPOS>ATOM
      1 O1         3.4387   -3.3441   28.6713 O.2       1 RES1    0.0000
      2 O2         2.0497   -2.2827   29.9569 O.2       1 RES1    0.0000
      3 O3         3.2594    1.8659   24.1349 O.2       1 RES1    0.0000
      4 O4         1.9738    2.9729   25.6167 O.3       1 RES1    0.0000
      5 O5         1.3044    9.2132   23.4421 O.3       1 RES1    0.0000
      6 O6         0.6663   10.0675   21.4508 O.2       1 RES1    0.0000
      7 O7        -1.9675   15.4569   24.8630 O.2       1 RES1    0.0000
      8 O8        -2.5211   14.0903   26.4385 O.2       1 RES1    0.0000
      9 O9         3.6783    9.4758   22.2077 O.3       1 RES1    0.0000
     10 N1         2.7121   -2.3844   28.9249 N.pl3     1 RES1    0.0000
     11 N2        -1.9480   14.3474   25.3834 N.pl3     1 RES1    0.0000
     12 C1         2.6510   -1.2830   27.9564 C.ar      1 RES1    0.0000
     13 C2         2.0732   -0.1005   28.3306 C.ar      1 RES1    0.0000
     14 H1         1.6951    0.0023   29.1962 H         1 RES1    0.0000
     15 C3         3.1983   -1.4864   26.6963 C.ar      1 RES1    0.0000
     16 H2         3.5804   -2.3227   26.4579 H         1 RES1    0.0000
     17 C4         2.0537    0.9391   27.4200 C.ar      1 RES1    0.0000
     18 H3         1.6614    1.7697   27.6612 H         1 RES1    0.0000
     19 C5         3.1701   -0.4410   25.8026 C.ar      1 RES1    0.0000
     20 H4         3.5420   -0.5518   24.9341 H         1 RES1    0.0000
     21 C6         2.6033    0.7769   26.1582 C.ar      1 RES1    0.0000
     22 C7         2.6565    1.9045   25.1773 C.2       1 RES1    0.0000
     23 C8         2.1304    4.1861   24.8391 C.3       1 RES1    0.0000
     24 H5         1.6833    4.0890   23.9614 H         1 RES1    0.0000
     25 H6         3.0903    4.3712   24.6839 H         1 RES1    0.0000
     26 C9         1.4985    5.3251   25.6246 C.3       1 RES1    0.0000
     27 H7         0.5058    5.2063   25.6201 H         1 RES1    0.0000
     28 C10        1.9840    5.3469   27.0652 C.3       1 RES1    0.0000
     29 H8         1.6677    4.5425   27.5290 H         1 RES1    0.0000
     30 H9         1.6332    6.1432   27.5150 H         1 RES1    0.0000
     31 H10        2.9634    5.3674   27.0792 H         1 RES1    0.0000
     32 C11        1.8415    6.6573   24.9403 C.3       1 RES1    0.0000
     33 H11        2.8241    6.7761   24.9651 H         1 RES1    0.0000
     34 H12        1.4406    7.3919   25.4711 H         1 RES1    0.0000
     35 C12        1.3733    6.8001   23.4832 C.3       1 RES1    0.0000
     36 H13        1.7303    6.0129   22.9802 H         1 RES1    0.0000
     37 C13       -0.1519    6.7361   23.3974 C.3       1 RES1    0.0000
     38 H14       -0.4533    5.8290   23.6156 H         1 RES1    0.0000
     39 H15       -0.4377    6.9658   22.4882 H         1 RES1    0.0000
     40 H16       -0.5418    7.3713   24.0317 H         1 RES1    0.0000
     41 C14        1.8931    8.0568   22.7829 C.3       1 RES1    0.0000
     42 H17        1.5761    8.0408   21.8360 H         1 RES1    0.0000
     43 C15        0.7274   10.1270   22.6454 C.2       1 RES1    0.0000
     44 C16        0.1151   11.2410   23.4368 C.ar      1 RES1    0.0000
     45 C17       -0.0987   12.4589   22.7815 C.ar      1 RES1    0.0000
     46 H18        0.2145   12.5777   21.8922 H         1 RES1    0.0000
     47 C18       -0.3226   11.0719   24.7489 C.ar      1 RES1    0.0000
     48 H19       -0.1511   10.2561   25.2040 H         1 RES1    0.0000
     49 C19       -0.7618   13.4894   23.4163 C.ar      1 RES1    0.0000
     50 H20       -0.9012   14.3223   22.9802 H         1 RES1    0.0000
     51 C20       -1.0022   12.0807   25.3848 C.ar      1 RES1    0.0000
     52 H21       -1.3193   11.9664   26.2723 H         1 RES1    0.0000
     53 C21       -1.2190   13.2734   24.7061 C.ar      1 RES1    0.0000
     54 C22        3.4199    8.2168   22.7767 C.3       1 RES1    0.0000
     55 H22        3.7683    8.1894   23.7140 H         1 RES1    0.0000
     56 C23        5.0625    9.8300   22.2774 C.3       1 RES1    0.0000
     57 H23        5.1705   10.7748   22.0384 H         1 RES1    0.0000
     58 H24        5.5737    9.2747   21.6532 H         1 RES1    0.0000
     59 H25        5.3913    9.6849   23.1911 H         1 RES1    0.0000
     60 C24        4.0196    7.0869   21.9729 C.2       1 RES1    0.0000
     61 H26        3.9053    7.1451   21.0319 H         1 RES1    0.0000
     62 C25        4.6428    6.0918   22.3786 C.2       1 RES1    0.0000
     63 H27        4.7932    5.9718   23.3092 H         1 RES1    0.0000
     64 H28        4.9701    5.4497   21.7601 H         1 RES1    0.0000
@<TRIPOS>BOND
     1    1   10 2
     2    2   10 2
     3    3   22 2
     4    4   22 1
     5    5   41 1
     6    6   43 2
     7    7   11 2
     8    8   11 2
     9    9   54 1
    10   10   12 1
    11   11   53 1
    12   12   13 ar
    13   13   14 1
    14   15   12 ar
    15   16   15 1
    16   17   13 ar
    17   18   17 1
    18   19   15 ar
    19   20   19 1
    20   21   17 ar
    21   22   21 1
    22   23    4 1
    23   24   23 1
    24   25   23 1
    25   26   23 1
    26   27   26 1
    27   28   26 1
    28   29   28 1
    29   30   28 1
    30   31   28 1
    31   32   26 1
    32   33   32 1
    33   34   32 1
    34   35   32 1
    35   36   35 1
    36   37   35 1
    37   38   37 1
    38   39   37 1
    39   40   37 1
    40   41   35 1
    41   42   41 1
    42   43    5 1
    43   44   43 1
    44   45   44 ar
    45   46   45 1
    46   47   44 ar
    47   48   47 1
    48   49   45 ar
    49   50   49 1
    50   51   47 ar
    51   52   51 1
    52   53   49 ar
    53   54   41 1
    54   55   54 1
    55   56    9 1
    56   57   56 1
    57   58   56 1
    58   59   56 1
    59   60   54 1
    60   61   60 1
    61   62   60 2
    62   63   62 1
    63   64   62 1
    64   19   21 ar
    65   51   53 ar
@<TRIPOS>SUBSTRUCTURE
     1 RES1 1

@<TRIPOS>CRYSIN
   7.8294   11.4249   28.1138  90.0000  90.0000  90.0000  19 1

