# MOL2 file generated by ConQuest
# Please check atom types

@<TRIPOS>MOLECULE
BEDNIJ
    49    48     2
SMALL
NO_CHARGES
****
Generated from CSD

@<TRIPOS>ATOM
      1 N1        15.1332   11.9389   -3.6750 N.pl3     1 RES1    0.0000
      2 C1        16.1406   11.0321   -3.9950 C.2       1 RES1    0.0000
      3 C2        16.1494   10.8777   -5.3640 C.2       1 RES1    0.0000
      4 H1        16.7371   10.3218   -5.8616 H         1 RES1    0.0000
      5 C3        15.1266   11.6926   -5.8945 C.2       1 RES1    0.0000
      6 C4        14.5212   12.3188   -4.8202 C.2       1 RES1    0.0000
      7 H2        13.7891   12.9219   -4.8766 H         1 RES1    0.0000
      8 C5        17.0734   10.5318   -3.0009 C.2       1 RES1    0.0000
      9 O1        17.2349   11.0869   -1.9156 O.2       1 RES1    0.0000
     10 C6        17.8682    9.3113   -3.3331 C.ar      1 RES1    0.0000
     11 C7        17.2786    8.2050   -3.9348 C.ar      1 RES1    0.0000
     12 H3        16.3578    8.2306   -4.1666 H         1 RES1    0.0000
     13 C8        18.0205    7.0680   -4.2006 C.ar      1 RES1    0.0000
     14 H4        17.6232    6.3069   -4.6068 H         1 RES1    0.0000
     15 C9        19.3613    7.0755   -3.8542 C.ar      1 RES1    0.0000
     16 C10       19.9831    8.1596   -3.2637 C.ar      1 RES1    0.0000
     17 H5        20.9103    8.1390   -3.0544 H         1 RES1    0.0000
     18 C11       19.2191    9.2722   -2.9867 C.ar      1 RES1    0.0000
     19 H6        19.6156   10.0201   -2.5558 H         1 RES1    0.0000
     20 N2        20.1745    5.8884   -4.1614 N.pl3     1 RES1    0.0000
     21 O2        21.3812    5.9509   -3.9510 O.2       1 RES1    0.0000
     22 O3        19.6155    4.9001   -4.6155 O.2       1 RES1    0.0000
     23 C12       14.6342   12.2684   -2.3633 C.ar      1 RES1    0.0000
     24 C13       14.7186   13.5841   -1.9546 C.ar      1 RES1    0.0000
     25 H7        15.1203   14.2319   -2.5209 H         1 RES1    0.0000
     26 C14       14.2153   13.9620   -0.7131 C.ar      1 RES1    0.0000
     27 H8        14.2680   14.8688   -0.4340 H         1 RES1    0.0000
     28 C15       13.6432   13.0200    0.1077 C.ar      1 RES1    0.0000
     29 H9        13.2867   13.2770    0.9511 H         1 RES1    0.0000
     30 C16       13.5854   11.6971   -0.2945 C.ar      1 RES1    0.0000
     31 H10       13.2015   11.0513    0.2852 H         1 RES1    0.0000
     32 C17       14.0815   11.2909   -1.5380 C.ar      1 RES1    0.0000
     33 C18       14.0075    9.8443   -1.9494 C.2       1 RES1    0.0000
     34 O4        13.7452    9.5089   -3.0999 O.2       1 RES1    0.0000
     35 N3        14.2532    8.9541   -0.9838 N.am      1 RES1    0.0000
     36 H11       14.4430    9.2502   -0.1775 H         1 RES1    0.0000
     37 C19       14.2192    7.5172   -1.2066 C.3       1 RES1    0.0000
     38 H12       14.4283    7.0513   -0.3704 H         1 RES1    0.0000
     39 H13       14.8816    7.2767   -1.8889 H         1 RES1    0.0000
     40 H14       13.3264    7.2542   -1.5123 H         1 RES1    0.0000
     41 C20       14.7420   11.7645   -7.3124 C.2       1 RES1    0.0000
     42 O5        15.3326   11.0883   -8.1481 O.2       1 RES1    0.0000
     43 C21       13.5968   12.6498   -7.7156 C.3       1 RES1    0.0000
     44 H15       13.8094   13.0958   -8.5621 H         1 RES1    0.0000
     45 H16       13.4451   13.3245   -7.0210 H         1 RES1    0.0000
     46 H17       12.7871   12.1089   -7.8254 H         1 RES1    0.0000
     47 H18       13.9958    7.3364   -2.1444 Du        2 SUP2    0.0000
     48 H19       13.5427    7.1120   -0.6259 Du        2 SUP2    0.0000
     49 H20       15.0977    7.1339   -1.0014 Du        2 SUP2    0.0000
@<TRIPOS>BOND
     1    1    2 1
     2    2    3 2
     3    3    4 1
     4    5    3 1
     5    6    1 1
     6    7    6 1
     7    8    2 1
     8    9    8 2
     9   10    8 1
    10   11   10 ar
    11   12   11 1
    12   13   11 ar
    13   14   13 1
    14   15   13 ar
    15   16   15 ar
    16   17   16 1
    17   18   10 ar
    18   19   18 1
    19   20   15 1
    20   21   20 2
    21   22   20 2
    22   23    1 1
    23   24   23 ar
    24   25   24 1
    25   26   24 ar
    26   27   26 1
    27   28   26 ar
    28   29   28 1
    29   30   28 ar
    30   31   30 1
    31   32   23 ar
    32   33   32 1
    33   34   33 2
    34   35   33 1
    35   36   35 1
    36   37   35 1
    37   38   37 1
    38   39   37 1
    39   40   37 1
    40   41    5 1
    41   42   41 2
    42   43   41 1
    43   44   43 1
    44   45   43 1
    45   46   43 1
    46    5    6 2
    47   16   18 ar
    48   30   32 ar
@<TRIPOS>SUBSTRUCTURE
     1 RES1 1
     2 SUP2 47

@<TRIPOS>CRYSIN
   9.1765   10.3279   11.2474  66.1660  89.3520  78.9280   2 1

