# MOL2 file generated by ConQuest
# Please check atom types

@<TRIPOS>MOLECULE
BEDROT
    38    40     1
SMALL
NO_CHARGES
****
Generated from CSD

@<TRIPOS>ATOM
      1 O1        11.3225    3.6817   10.5146 O.2       1 RES1    0.0000
      2 O2        10.1634    4.6011    8.9478 O.2       1 RES1    0.0000
      3 O3        10.5141    7.2416   12.7722 O.2       1 RES1    0.0000
      4 N1        10.3127    4.2289   10.1059 N.pl3     1 RES1    0.0000
      5 N2        10.7207    4.9761   12.8814 N.am      1 RES1    0.0000
      6 C1         9.4017    4.7571   12.3708 C.ar      1 RES1    0.0000
      7 C2         9.1805    4.4241   11.0315 C.ar      1 RES1    0.0000
      8 C3         7.9056    4.2946   10.5158 C.ar      1 RES1    0.0000
      9 H1         7.7797    4.0899    9.6170 H         1 RES1    0.0000
     10 C4         6.8212    4.4736   11.3475 C.ar      1 RES1    0.0000
     11 H2         5.9602    4.3563   11.0174 H         1 RES1    0.0000
     12 C5         7.0110    4.8242   12.6647 C.ar      1 RES1    0.0000
     13 H3         6.2771    4.9672   13.2164 H         1 RES1    0.0000
     14 C6         8.2962    4.9659   13.1711 C.ar      1 RES1    0.0000
     15 H4         8.4135    5.2046   14.0628 H         1 RES1    0.0000
     16 C7        11.1834    6.2460   12.9997 C.2       1 RES1    0.0000
     17 C8        11.5008    3.8512   13.4179 C.3       1 RES1    0.0000
     18 H5        11.1177    3.0172   13.1025 H         1 RES1    0.0000
     19 H6        11.4475    3.8573   14.3862 H         1 RES1    0.0000
     20 O1A       12.8080    6.4887   10.5146 O.2       1 RES1    0.0000
     21 O2A       13.9671    5.5693    8.9478 O.2       1 RES1    0.0000
     22 O3A       13.6164    2.9289   12.7722 O.2       1 RES1    0.0000
     23 N1A       13.8178    5.9416   10.1059 N.pl3     1 RES1    0.0000
     24 N2A       13.4098    5.1944   12.8814 N.am      1 RES1    0.0000
     25 C1A       14.7288    5.4134   12.3708 C.ar      1 RES1    0.0000
     26 C2A       14.9500    5.7463   11.0315 C.ar      1 RES1    0.0000
     27 C3A       16.2249    5.8758   10.5158 C.ar      1 RES1    0.0000
     28 H1A       16.3508    6.0806    9.6170 H         1 RES1    0.0000
     29 C4A       17.3093    5.6968   11.3475 C.ar      1 RES1    0.0000
     30 H2A       18.1703    5.8141   11.0174 H         1 RES1    0.0000
     31 C5A       17.1195    5.3463   12.6647 C.ar      1 RES1    0.0000
     32 H3A       17.8534    5.2032   13.2164 H         1 RES1    0.0000
     33 C6A       15.8343    5.2046   13.1711 C.ar      1 RES1    0.0000
     34 H4A       15.7170    4.9659   14.0628 H         1 RES1    0.0000
     35 C7A       12.9471    3.9244   12.9997 C.2       1 RES1    0.0000
     36 C8A       12.6297    6.3192   13.4179 C.3       1 RES1    0.0000
     37 H5A       13.0128    7.1532   13.1025 H         1 RES1    0.0000
     38 H6A       12.6830    6.3131   14.3862 H         1 RES1    0.0000
@<TRIPOS>BOND
     1    1    4 2
     2    2    4 2
     3    3   16 2
     4    4    7 1
     5    5    6 1
     6    6    7 ar
     7    7    8 ar
     8    8    9 1
     9   10    8 ar
    10   11   10 1
    11   12   10 ar
    12   13   12 1
    13   14    6 ar
    14   15   14 1
    15   16    5 1
    16   17    5 1
    17   18   17 1
    18   19   17 1
    19   20   23 2
    20   21   23 2
    21   22   35 2
    22   23   26 1
    23   24   25 1
    24   25   26 ar
    25   26   27 ar
    26   27   28 1
    27   29   27 ar
    28   30   29 1
    29   31   29 ar
    30   32   31 1
    31   33   25 ar
    32   34   33 1
    33   35   17 1
    34   36   16 1
    35   37   36 1
    36   38   36 1
    37   12   14 ar
    38   24   35 1
    39   24   36 1
    40   31   33 ar
@<TRIPOS>SUBSTRUCTURE
     1 RES1 1

@<TRIPOS>CRYSIN
  16.0870    6.7803   14.0600  90.0000  90.0000  90.0000  56 1

