# MOL2 file generated by ConQuest
# Please check atom types

@<TRIPOS>MOLECULE
BEDTEK
    60    64     2
SMALL
NO_CHARGES
****
Generated from CSD

@<TRIPOS>ATOM
      1 O1         0.8336    3.2893    3.7220 O.2       1 RES1    0.0000
      2 N1         0.1673    1.2993    1.6626 N.3       1 RES1    0.0000
      3 N2         0.3404    4.2867    3.2038 N.pl3     1 RES1    0.0000
      4 C1         0.6021    4.5604    1.7849 C.ar      1 RES1    0.0000
      5 O2        -0.3685    5.0768    3.8135 O.2       1 RES1    0.0000
      6 C2         0.9865    3.5440    0.9078 C.ar      1 RES1    0.0000
      7 N3         2.3782    1.5461    1.2695 N.2       1 RES1    0.0000
      8 C3         0.7514    0.0846    1.9592 C.ar      1 RES1    0.0000
      9 C4         0.7817    6.2213    0.0870 C.ar      1 RES1    0.0000
     10 H1         0.7262    7.1281   -0.1936 H         1 RES1    0.0000
     11 C5         0.2070   -1.1019    2.4417 C.ar      1 RES1    0.0000
     12 H2        -0.7233   -1.1966    2.6092 H         1 RES1    0.0000
     13 C6         1.1891    2.1230    1.2858 C.2       1 RES1    0.0000
     14 C7         1.2518    3.9155   -0.4072 C.ar      1 RES1    0.0000
     15 H3         1.5014    3.2500   -1.0387 H         1 RES1    0.0000
     16 C8         2.1157    0.2387    1.6998 C.ar      1 RES1    0.0000
     17 C9         0.4853    5.8824    1.3946 C.ar      1 RES1    0.0000
     18 H4         0.2055    6.5469    2.0130 H         1 RES1    0.0000
     19 C10        1.1033   -2.1376    2.6632 C.ar      1 RES1    0.0000
     20 H5         0.7759   -2.9658    2.9933 H         1 RES1    0.0000
     21 C11        2.4611   -2.0002    2.4186 C.ar      1 RES1    0.0000
     22 H6         3.0416   -2.7329    2.5938 H         1 RES1    0.0000
     23 C12        1.1595    5.2422   -0.8132 C.ar      1 RES1    0.0000
     24 H7         1.3564    5.4764   -1.7118 H         1 RES1    0.0000
     25 C13        2.9912   -0.8169    1.9251 C.ar      1 RES1    0.0000
     26 H8         3.9207   -0.7308    1.7487 H         1 RES1    0.0000
     27 C14       -1.2598    1.5760    1.6568 C.3       1 RES1    0.0000
     28 H9        -1.7018    1.2521    2.4862 H         1 RES1    0.0000
     29 H10       -1.4422    2.5448    1.6319 H         1 RES1    0.0000
     30 H11       -1.6297    1.1581    0.8421 H         1 RES1    0.0000
     31 O3         1.8396    3.3286   11.5479 O.2       2 RES2    0.0000
     32 O4         0.5466    5.0638   11.6103 O.2       2 RES2    0.0000
     33 N4         1.2915    4.2852   11.0141 N.pl3     2 RES2    0.0000
     34 N5         0.2070    1.6256    9.5429 N.2       2 RES2    0.0000
     35 N6         2.3638    1.1196    9.1096 N.3       2 RES2    0.0000
     36 C15        1.7826   -0.0447    9.5853 C.ar      2 RES2    0.0000
     37 C16        1.5446    4.5373    9.5921 C.ar      2 RES2    0.0000
     38 C17        1.6340    3.4688    8.7098 C.ar      2 RES2    0.0000
     39 C18        1.4163   -2.2579   10.2992 C.ar      2 RES2    0.0000
     40 H12        1.7249   -3.1431   10.4520 H         2 RES2    0.0000
     41 C19        1.3795    2.0688    9.1333 C.2       2 RES2    0.0000
     42 C20        0.4449    0.2833    9.8555 C.ar      2 RES2    0.0000
     43 C21        1.7148    5.8478    9.2033 C.ar      2 RES2    0.0000
     44 H13        1.6218    6.5555    9.8312 H         2 RES2    0.0000
     45 C22        2.2939   -1.3156    9.8075 C.ar      2 RES2    0.0000
     46 H14        3.2032   -1.5256    9.6284 H         2 RES2    0.0000
     47 C23        2.0220    6.1117    7.8877 C.ar      2 RES2    0.0000
     48 H15        2.1698    7.0063    7.6031 H         2 RES2    0.0000
     49 C24        3.7865    1.3047    8.8447 C.3       2 RES2    0.0000
     50 H16        3.9949    1.9786    8.2915 H         2 RES2    0.0000
     51 H17        4.1536    0.4808    8.4083 H         2 RES2    0.0000
     52 H18        4.3339    1.4145    9.7206 H         2 RES2    0.0000
     53 C25       -0.4168   -0.6861   10.3579 C.ar      2 RES2    0.0000
     54 H19       -1.3268   -0.4872   10.5442 H         2 RES2    0.0000
     55 C26        1.9095    3.7722    7.3849 C.ar      2 RES2    0.0000
     56 H20        1.9578    3.0726    6.7426 H         2 RES2    0.0000
     57 C27        2.1143    5.0788    6.9845 C.ar      2 RES2    0.0000
     58 H21        2.3213    5.2649    6.0757 H         2 RES2    0.0000
     59 C28        0.0988   -1.9455   10.5752 C.ar      2 RES2    0.0000
     60 H22       -0.4694   -2.6218   10.9253 H         2 RES2    0.0000
@<TRIPOS>BOND
     1    1    3 2
     2    2    8 1
     3    3    4 1
     4    4    6 ar
     5    5    3 2
     6    6   13 1
     7    7   13 2
     8    8   11 ar
     9    9   10 1
    10   11   12 1
    11   13    2 1
    12   14    6 ar
    13   15   14 1
    14   16    7 1
    15   17    4 ar
    16   18   17 1
    17   19   11 ar
    18   20   19 1
    19   21   19 ar
    20   22   21 1
    21   23    9 ar
    22   24   23 1
    23   25   16 ar
    24   26   25 1
    25   27    2 1
    26   28   27 1
    27   29   27 1
    28   30   27 1
    29   31   33 2
    30   32   33 2
    31   33   37 1
    32   34   41 2
    33   35   36 1
    34   36   42 ar
    35   37   38 ar
    36   38   41 1
    37   39   40 1
    38   41   35 1
    39   42   34 1
    40   43   37 ar
    41   44   43 1
    42   45   36 ar
    43   46   45 1
    44   47   43 ar
    45   48   47 1
    46   49   35 1
    47   50   49 1
    48   51   49 1
    49   52   49 1
    50   53   42 ar
    51   54   53 1
    52   55   38 ar
    53   56   55 1
    54   57   47 ar
    55   58   57 1
    56   59   39 ar
    57   60   59 1
    58    8   16 ar
    59    9   17 ar
    60   14   23 ar
    61   21   25 ar
    62   39   45 ar
    63   53   59 ar
    64   55   57 ar
@<TRIPOS>SUBSTRUCTURE
     1 RES1 1
     2 RES2 31

@<TRIPOS>CRYSIN
   7.2111   21.3672   30.7321  90.0000  90.0000  90.0000  61 3

