# MOL2 file generated by ConQuest
# Please check atom types

@<TRIPOS>MOLECULE
BEFQOT
    44    47     1
SMALL
NO_CHARGES
****
Generated from CSD

@<TRIPOS>ATOM
      1 O1         1.0680    1.2720    1.9630 O.3       1 RES1    0.0000
      2 O2         2.0391    1.3483    4.6171 O.3       1 RES1    0.0000
      3 O3         3.7331    2.0942    7.0457 O.2       1 RES1    0.0000
      4 O4         2.5539   -1.0015    7.9998 O.2       1 RES1    0.0000
      5 N1         2.0508    0.3125    2.4416 N.3       1 RES1    0.0000
      6 C1         2.8168    0.9973    3.4588 C.3       1 RES1    0.0000
      7 C2         4.0022    0.1814    3.9769 C.3       1 RES1    0.0000
      8 C3         3.5390   -0.3859    5.3342 C.3       1 RES1    0.0000
      9 C4         2.3849    0.5097    5.7589 C.3       1 RES1    0.0000
     10 C5         2.6595    1.5961    6.8170 C.2       1 RES1    0.0000
     11 C6         1.3278    1.9642    7.4468 C.3       1 RES1    0.0000
     12 C7         0.2637    1.0969    6.7366 C.3       1 RES1    0.0000
     13 C8        -0.9577    0.7446    7.5823 C.3       1 RES1    0.0000
     14 C9         1.3028   -0.8746    2.8797 C.3       1 RES1    0.0000
     15 C10        0.1299   -0.6827    3.8673 C.3       1 RES1    0.0000
     16 C11        0.3779   -1.1189    5.3225 C.3       1 RES1    0.0000
     17 C12        1.0954   -0.1500    6.2821 C.3       1 RES1    0.0000
     18 C13        1.4022   -0.8861    7.5910 C.2       1 RES1    0.0000
     19 C14        0.2152   -1.3318    8.3907 C.3       1 RES1    0.0000
     20 C15       -0.6479   -0.1269    8.8053 C.3       1 RES1    0.0000
     21 C16       -1.9201   -0.6103    9.4832 C.3       1 RES1    0.0000
     22 H1         3.1564    1.7995    3.0802 H         1 RES1    0.0000
     23 H2         1.1815    1.2374    1.0737 H         1 RES1    0.0000
     24 H3         4.2111   -0.5233    3.3741 H         1 RES1    0.0000
     25 H4         4.7651    0.7372    4.0905 H         1 RES1    0.0000
     26 H5         3.2472   -1.2846    5.2381 H         1 RES1    0.0000
     27 H6         4.2432   -0.3471    5.9703 H         1 RES1    0.0000
     28 H7         1.3403    1.7743    8.3781 H         1 RES1    0.0000
     29 H8         1.1439    2.8859    7.3132 H         1 RES1    0.0000
     30 H9        -0.0313    1.5594    5.9615 H         1 RES1    0.0000
     31 H10       -1.3536    1.5531    7.8852 H         1 RES1    0.0000
     32 H11       -1.5759    0.2768    7.0334 H         1 RES1    0.0000
     33 H12        0.9491   -1.2867    2.0998 H         1 RES1    0.0000
     34 H13        1.9248   -1.4608    3.2931 H         1 RES1    0.0000
     35 H14       -0.6087   -1.1819    3.5378 H         1 RES1    0.0000
     36 H15       -0.0908    0.2412    3.8775 H         1 RES1    0.0000
     37 H16        0.8975   -1.9138    5.2909 H         1 RES1    0.0000
     38 H17       -0.4703   -1.3108    5.7045 H         1 RES1    0.0000
     39 H18        0.5164   -1.7827    9.1701 H         1 RES1    0.0000
     40 H19       -0.3091   -1.9254    7.8659 H         1 RES1    0.0000
     41 H20       -0.1557    0.3953    9.4289 H         1 RES1    0.0000
     42 H21       -2.4193   -1.1431    8.8762 H         1 RES1    0.0000
     43 H22       -1.6940   -1.1273   10.2473 H         1 RES1    0.0000
     44 H23       -2.4405    0.1384    9.7492 H         1 RES1    0.0000
@<TRIPOS>BOND
     1    1    5 1
     2    2    6 1
     3    3   10 2
     4    4   18 2
     5    5    6 1
     6    6    7 1
     7    7    8 1
     8    8    9 1
     9    9    2 1
    10   10    9 1
    11   11   10 1
    12   12   11 1
    13   13   12 1
    14   14    5 1
    15   15   14 1
    16   16   15 1
    17   17    9 1
    18   18   17 1
    19   19   18 1
    20   20   13 1
    21   21   20 1
    22   22    6 1
    23   23    1 1
    24   24    7 1
    25   25    7 1
    26   26    8 1
    27   27    8 1
    28   28   11 1
    29   29   11 1
    30   30   12 1
    31   31   13 1
    32   32   13 1
    33   33   14 1
    34   34   14 1
    35   35   15 1
    36   36   15 1
    37   37   16 1
    38   38   16 1
    39   39   19 1
    40   40   19 1
    41   41   20 1
    42   42   21 1
    43   43   21 1
    44   44   21 1
    45   12   17 1
    46   16   17 1
    47   19   20 1
@<TRIPOS>SUBSTRUCTURE
     1 RES1 1

@<TRIPOS>CRYSIN
   7.8245   10.4867   17.6010  90.0000  90.0000  90.0000  19 1

