# MOL2 file generated by ConQuest
# Please check atom types

@<TRIPOS>MOLECULE
BEFRAG
    65    66     2
SMALL
NO_CHARGES
****
Generated from CSD

@<TRIPOS>ATOM
      1 O1         2.3581    2.6568   13.4262 O.3       1 RES1    0.0000
      2 O2         0.2076    3.1974   13.9524 O.3       1 RES1    0.0000
      3 O3        -1.1609    1.1653   12.6619 O.2       1 RES1    0.0000
      4 O4        -0.0654    1.4813   10.8065 O.3       1 RES1    0.0000
      5 O5         2.4744    0.0113    9.1919 O.3       1 RES1    0.0000
      6 N1         0.9205    2.3604   10.1704 N.3       1 RES1    0.0000
      7 C1         5.0131    1.5797   11.7741 C.3       1 RES1    0.0000
      8 C2         5.7306    3.5995   10.4933 C.3       1 RES1    0.0000
      9 C3         4.6016    2.9523   11.2262 C.3       1 RES1    0.0000
     10 C4         3.3655    2.8599   10.3397 C.3       1 RES1    0.0000
     11 C5         2.1326    2.3132   11.0315 C.3       1 RES1    0.0000
     12 C6         1.7500    3.1677   12.2325 C.3       1 RES1    0.0000
     13 C7         0.2620    3.1154   12.5591 C.3       1 RES1    0.0000
     14 C8        -0.3903    1.8413   12.0523 C.2       1 RES1    0.0000
     15 C9         1.5094    2.9769   14.5172 C.3       1 RES1    0.0000
     16 C10        1.9153    4.2550   15.2005 C.3       1 RES1    0.0000
     17 C11        1.4858    1.7900   15.4122 C.3       1 RES1    0.0000
     18 C12        0.9888    1.8505    8.7916 C.3       1 RES1    0.0000
     19 C13        1.1881    0.3436    8.6743 C.3       1 RES1    0.0000
     20 C14        2.6524   -1.3869    9.3576 C.3       1 RES1    0.0000
     21 C15        2.9155   -2.1255    8.0974 C.ar      1 RES1    0.0000
     22 C16        3.3914   -1.4669    6.9677 C.ar      1 RES1    0.0000
     23 C17        3.6888   -2.1850    5.8236 C.ar      1 RES1    0.0000
     24 C18        3.5384   -3.5339    5.7982 C.ar      1 RES1    0.0000
     25 C19        3.0507   -4.1791    6.9133 C.ar      1 RES1    0.0000
     26 C20        2.7352   -3.4980    8.0538 C.ar      1 RES1    0.0000
     27 C21       -0.2562    2.3122    7.9945 C.3       1 RES1    0.0000
     28 C22       -0.1016    2.1039    6.5275 C.3       1 RES1    0.0000
     29 C23       -0.5750    3.7780    8.2437 C.3       1 RES1    0.0000
     30 H1         4.3900    3.5062   11.9676 Du        2 SUP2    0.0000
     31 H2         5.1866    0.9919   11.0533 H         1 RES1    0.0000
     32 H3         5.7932    1.6690   12.3184 H         1 RES1    0.0000
     33 H4         4.3067    1.2248   12.2978 H         1 RES1    0.0000
     34 H5         6.4974    3.6385   11.0617 H         1 RES1    0.0000
     35 H6         5.4774    4.4797   10.2357 H         1 RES1    0.0000
     36 H7         5.9280    3.0897    9.7192 H         1 RES1    0.0000
     37 H8         4.3900    3.5062   11.9676 H         1 RES1    0.0000
     38 H9         3.1624    3.7308   10.0180 H         1 RES1    0.0000
     39 H10        3.5633    2.2906    9.6080 H         1 RES1    0.0000
     40 H11        2.0199    4.0673   12.0946 H         1 RES1    0.0000
     41 H12       -0.1782    3.8673   12.1732 H         1 RES1    0.0000
     42 H13        2.7874    4.1555   15.5767 H         1 RES1    0.0000
     43 H14        1.3017    4.4530   15.8899 H         1 RES1    0.0000
     44 H15        1.9164    4.9628   14.5668 H         1 RES1    0.0000
     45 H16        1.1679    1.0361   14.9248 H         1 RES1    0.0000
     46 H17        2.3604    1.6167   15.7460 H         1 RES1    0.0000
     47 H18        0.9044    1.9603   16.1403 H         1 RES1    0.0000
     48 H19        1.7406    2.2619    8.3900 H         1 RES1    0.0000
     49 H20        1.1243    0.0841    7.7599 H         1 RES1    0.0000
     50 H21        0.5219   -0.1087    9.1701 H         1 RES1    0.0000
     51 H22        1.8629   -1.7418    9.7410 H         1 RES1    0.0000
     52 H23        3.3876   -1.5264    9.9527 H         1 RES1    0.0000
     53 H24        3.5114   -0.5242    6.9834 H         1 RES1    0.0000
     54 H25        3.9989   -1.7295    5.0531 H         1 RES1    0.0000
     55 H26        3.7645   -4.0304    5.0241 H         1 RES1    0.0000
     56 H27        2.9272   -5.1208    6.8867 H         1 RES1    0.0000
     57 H28        2.3951   -3.9616    8.8049 H         1 RES1    0.0000
     58 H29       -0.9973    1.7962    8.2788 H         1 RES1    0.0000
     59 H30       -0.7002    3.9186    9.1714 H         1 RES1    0.0000
     60 H31        0.1465    4.3145    7.9438 H         1 RES1    0.0000
     61 H32       -1.3669    4.0150    7.7648 H         1 RES1    0.0000
     62 H33       -0.9050    2.3552    6.0751 H         1 RES1    0.0000
     63 H34        0.6156    2.6353    6.2142 H         1 RES1    0.0000
     64 H35        0.0794    1.1879    6.3581 H         1 RES1    0.0000
     65 H36        2.2941    1.4197   11.3133 H         1 RES1    0.0000
@<TRIPOS>BOND
     1    1   12 1
     2    2   13 1
     3    3   14 2
     4    4    6 1
     5    5   19 1
     6    6   11 1
     7    7    9 1
     8    8    9 1
     9    9   10 1
    10   10   11 1
    11   11   12 1
    12   12   13 1
    13   13   14 1
    14   14    4 1
    15   15    1 1
    16   16   15 1
    17   17   15 1
    18   18    6 1
    19   19   18 1
    20   20    5 1
    21   21   20 1
    22   22   21 ar
    23   23   22 ar
    24   24   23 ar
    25   25   24 ar
    26   26   21 ar
    27   27   18 1
    28   28   27 1
    29   29   27 1
    30   31    7 1
    31   32    7 1
    32   33    7 1
    33   34    8 1
    34   35    8 1
    35   36    8 1
    36   37    9 1
    37   38   10 1
    38   39   10 1
    39   40   12 1
    40   41   13 1
    41   42   16 1
    42   43   16 1
    43   44   16 1
    44   45   17 1
    45   46   17 1
    46   47   17 1
    47   48   18 1
    48   49   19 1
    49   50   19 1
    50   51   20 1
    51   52   20 1
    52   53   22 1
    53   54   23 1
    54   55   24 1
    55   56   25 1
    56   57   26 1
    57   58   27 1
    58   59   29 1
    59   60   29 1
    60   61   29 1
    61   62   28 1
    62   63   28 1
    63   64   28 1
    64   65   11 1
    65    2   15 1
    66   25   26 ar
@<TRIPOS>SUBSTRUCTURE
     1 RES1 1
     2 SUP2 30

@<TRIPOS>CRYSIN
   9.5700   10.2580   12.1020  90.0000  92.0000  90.0000   4 1

