# MOL2 file generated by ConQuest
# Please check atom types

@<TRIPOS>MOLECULE
BEFXIU
    23    26     1
SMALL
USER_CHARGES
****
Generated from CSD

@<TRIPOS>ATOM
      1 O1        10.4419    2.4242   10.9576 O.3       1 RES1    0.0000
      2 O2        10.3072    3.7966   12.7637 O.2       1 RES1   -1.0000
      3 O3        12.1441   -0.2952   16.5653 O.2       1 RES1    0.0000
      4 N1        10.9588    0.5904   11.8634 N.pl3     1 RES1    1.0000
      5 N2        10.7472    1.1144   10.6815 N.2       1 RES1    0.0000
      6 N3        10.7304    1.0753   17.7638 N.am      1 RES1    0.0000
      7 C1        10.4779    2.6842   12.3531 C.2       1 RES1    0.0000
      8 C2        10.7881    1.4154   12.9312 C.2       1 RES1    0.0000
      9 C3        11.4012   -0.7996   11.8929 C.ar      1 RES1    0.0000
     10 C4        10.6991   -1.6969   12.6698 C.ar      1 RES1    0.0000
     11 C5        11.1560   -3.0146   12.6900 C.ar      1 RES1    0.0000
     12 C6        12.2547   -3.3704   11.9591 C.ar      1 RES1    0.0000
     13 C7        12.9159   -2.4653   11.1767 C.ar      1 RES1    0.0000
     14 C8        12.4855   -1.1534   11.1362 C.ar      1 RES1    0.0000
     15 C9        11.1079    0.9892   14.2530 C.2       1 RES1    0.0000
     16 C10       11.3218    0.6217   16.6334 C.2       1 RES1    0.0000
     17 C11       10.7761    1.4272   15.4828 C.2       1 RES1    0.0000
     18 C12        9.9346    2.4457   16.1051 C.ar      1 RES1    0.0000
     19 C13        9.2061    3.5366   15.6356 C.ar      1 RES1    0.0000
     20 C14        8.5136    4.3127   16.5377 C.ar      1 RES1    0.0000
     21 C15        8.4944    4.0136   17.8780 C.ar      1 RES1    0.0000
     22 C16        9.1892    2.9188   18.3677 C.ar      1 RES1    0.0000
     23 C17        9.9250    2.1818   17.4785 C.ar      1 RES1    0.0000
@<TRIPOS>BOND
     1    1    5 1
     2    2    7 1
     3    3   16 2
     4    4    5 2
     5    6   16 1
     6    7    1 1
     7    8    4 1
     8    9    4 1
     9   10    9 ar
    10   11   10 ar
    11   12   11 ar
    12   13   12 ar
    13   14    9 ar
    14   15    8 1
    15   16   17 1
    16   17   15 2
    17   18   17 1
    18   19   18 ar
    19   20   19 ar
    20   21   20 ar
    21   22   21 ar
    22   23    6 1
    23    7    8 2
    24   13   14 ar
    25   18   23 ar
    26   22   23 ar
@<TRIPOS>SUBSTRUCTURE
     1 RES1 1

@<TRIPOS>CRYSIN
  24.0430   19.5500   18.4100  90.0000  90.0000  90.0000  61 1

