# MOL2 file generated by ConQuest
# Please check atom types

@<TRIPOS>MOLECULE
BEFXEQ
    20    21     1
SMALL
USER_CHARGES
****
Generated from CSD

@<TRIPOS>ATOM
      1 O1         4.7458    1.7745    5.3164 O.3       1 RES1    0.0000
      2 O2         3.6781    3.0331    6.8838 O.2       1 RES1   -1.0000
      3 O3         3.6266    7.9210    4.2670 O.2       1 RES1    0.0000
      4 N1         5.3041    3.2591    3.9126 N.pl3     1 RES1    1.0000
      5 N2         5.3478    1.9692    4.0995 N.2       1 RES1    0.0000
      6 N3         4.4116    5.7527    8.3285 N.1       1 RES1    0.0000
      7 N4         2.9324    8.2686    6.3766 N.am      1 RES1    0.0000
      8 C1         4.3315    3.0037    5.8733 C.2       1 RES1    0.0000
      9 C2         4.7614    3.9726    4.9338 C.2       1 RES1    0.0000
     10 C3         5.7765    3.7673    2.6490 C.ar      1 RES1    0.0000
     11 C4         6.7979    4.6824    2.6315 C.ar      1 RES1    0.0000
     12 C5         7.2266    5.1580    1.4009 C.ar      1 RES1    0.0000
     13 C6         6.6611    4.7162    0.2152 C.ar      1 RES1    0.0000
     14 C7         5.6254    3.7941    0.2852 C.ar      1 RES1    0.0000
     15 C8         5.1661    3.3135    1.4934 C.ar      1 RES1    0.0000
     16 C9         7.1563    5.2064   -1.1127 C.3       1 RES1    0.0000
     17 C10        4.4187    5.3525    4.8268 C.2       1 RES1    0.0000
     18 C11        4.0500    6.1895    5.8198 C.2       1 RES1    0.0000
     19 C12        4.2198    5.8958    7.2090 C.1       1 RES1    0.0000
     20 C13        3.5153    7.5426    5.4255 C.2       1 RES1    0.0000
@<TRIPOS>BOND
     1    1    5 1
     2    2    8 1
     3    3   20 2
     4    4    5 2
     5    6   19 3
     6    7   20 1
     7    8    1 1
     8    9    4 1
     9   10    4 1
    10   11   10 ar
    11   12   11 ar
    12   13   12 ar
    13   14   13 ar
    14   15   10 ar
    15   16   13 1
    16   17    9 1
    17   18   17 2
    18   19   18 1
    19   20   18 1
    20    8    9 2
    21   14   15 ar
@<TRIPOS>SUBSTRUCTURE
     1 RES1 1

@<TRIPOS>CRYSIN
  11.0660   11.9560   11.9700 114.3600 113.6300  91.3100   2 1

