# MOL2 file generated by ConQuest
# Please check atom types

@<TRIPOS>MOLECULE
BEGFAV
    42    44     1
SMALL
USER_CHARGES
****
Generated from CSD

@<TRIPOS>ATOM
      1 O1        10.1729   -1.2124   10.4871 O.2       1 RES1    0.0000
      2 O2         5.7235   -2.1717   10.0399 O.2       1 RES1   -1.0000
      3 O3         6.7628    3.0504   17.8497 O.2       1 RES1    0.0000
      4 N1         9.0615   -1.6775   10.0560 N.3       1 RES1    0.0000
      5 N2         6.9690   -2.0890    9.8231 N.pl3     1 RES1    1.0000
      6 H1         4.6220    2.9774   16.8403 H         1 RES1    0.0000
      7 H2         7.9768    1.4206   16.2406 H         1 RES1    0.0000
      8 H3         4.5142    2.4617   14.9261 H         1 RES1    0.0000
      9 H4         4.7676    1.3719   13.0359 H         1 RES1    0.0000
     10 H5         5.7824    0.0107   11.4402 H         1 RES1    0.0000
     11 H6         8.9760   -1.5004   12.7708 H         1 RES1    0.0000
     12 H7         9.3510   -0.0097   14.8457 H         1 RES1    0.0000
     13 H8         6.3251   -1.3135    7.5741 H         1 RES1    0.0000
     14 H9         7.4107   -1.6638    6.7709 H         1 RES1    0.0000
     15 H10        7.6200   -0.4476    7.6437 H         1 RES1    0.0000
     16 H11        6.0036   -3.6487    8.1016 H         1 RES1    0.0000
     17 H12        7.1473   -4.5342    8.6879 H         1 RES1    0.0000
     18 H13        7.4045   -4.3318    7.1592 H         1 RES1    0.0000
     19 H14        9.1029   -4.3882    9.6651 H         1 RES1    0.0000
     20 H15       10.4129   -3.7169    9.8713 H         1 RES1    0.0000
     21 H16        9.7704   -4.6023    8.3880 H         1 RES1    0.0000
     22 H17       10.7152   -1.9752    8.0721 H         1 RES1    0.0000
     23 H18        9.7051   -0.7521    7.6357 H         1 RES1    0.0000
     24 H19        9.9062   -2.5006    7.1859 H         1 RES1    0.0000
     25 C1         6.0407    2.9832   16.8859 C.2       1 RES1    0.0000
     26 C2         6.3489    2.1387   15.7266 C.ar      1 RES1    0.0000
     27 C3         7.4671    1.3933   15.5070 C.ar      1 RES1    0.0000
     28 C4         7.4843    0.5634   14.1898 C.ar      1 RES1    0.0000
     29 C5         5.2709    2.1221   14.7279 C.ar      1 RES1    0.0000
     30 C6         5.3511    1.3184   13.3946 C.ar      1 RES1    0.0000
     31 C7         6.4406    0.7142   13.4000 C.ar      1 RES1    0.0000
     32 C8         6.5223   -0.1236   12.0479 C.ar      1 RES1    0.0000
     33 C9         7.6385   -0.8212   11.8686 C.ar      1 RES1    0.0000
     34 C10        8.6565   -0.7910   12.8618 C.ar      1 RES1    0.0000
     35 C11        8.6198   -0.1498   14.0827 C.ar      1 RES1    0.0000
     36 C12        7.8654   -1.5237   10.6102 C.2       1 RES1    0.0000
     37 C13        7.5350   -2.5103    8.5192 C.3       1 RES1    0.0000
     38 C14        7.1682   -1.4050    7.5340 C.3       1 RES1    0.0000
     39 C15        6.9365   -3.8103    8.0668 C.3       1 RES1    0.0000
     40 C16        9.0390   -2.5483    8.8593 C.3       1 RES1    0.0000
     41 C17        9.5809   -3.8920    9.3090 C.3       1 RES1    0.0000
     42 C18        9.9558   -1.9392    7.7723 C.3       1 RES1    0.0000
@<TRIPOS>BOND
     1    1    4 1
     2    2    5 1
     3    3   25 2
     4    4   36 1
     5    5   36 2
     6    6   25 1
     7    7   27 1
     8    8   29 1
     9    9   30 1
    10   10   32 1
    11   11   34 1
    12   12   35 1
    13   13   38 1
    14   14   38 1
    15   15   38 1
    16   16   39 1
    17   17   39 1
    18   18   39 1
    19   19   41 1
    20   20   41 1
    21   21   41 1
    22   22   42 1
    23   23   42 1
    24   24   42 1
    25   25   26 1
    26   26   27 ar
    27   27   28 ar
    28   28   31 ar
    29   29   26 ar
    30   30   29 ar
    31   31   30 ar
    32   32   31 ar
    33   33   32 ar
    34   34   33 ar
    35   35   28 ar
    36   36   33 1
    37   37    5 1
    38   38   37 1
    39   39   37 1
    40   40    4 1
    41   41   40 1
    42   42   40 1
    43   34   35 ar
    44   37   40 1
@<TRIPOS>SUBSTRUCTURE
     1 RES1 1

@<TRIPOS>CRYSIN
  12.4040    9.7300   27.0490  90.0000  98.1890  90.0000  15 1

