# MOL2 file generated by ConQuest
# Please check atom types

@<TRIPOS>MOLECULE
BEGGAV
    94   100     2
SMALL
NO_CHARGES
****
Generated from CSD

@<TRIPOS>ATOM
      1 O1         4.0341   10.3487    8.7087 O.3       1 RES1    0.0000
      2 N1         6.9647    7.2091    8.2349 N.3       1 RES1    0.0000
      3 N2         5.6165    6.9007    6.3470 N.2       1 RES1    0.0000
      4 N3         5.4947   10.0016    7.0038 N.3       1 RES1    0.0000
      5 N4         4.5257    8.9736    8.7507 N.2       1 RES1    0.0000
      6 C1         4.7897   11.0696    7.7051 C.3       1 RES1    0.0000
      7 C2         5.3419    8.8855    7.7597 C.2       1 RES1    0.0000
      8 C3         3.8552   11.8543    6.8209 C.ar      1 RES1    0.0000
      9 C4         3.6713   13.2285    7.0242 C.ar      1 RES1    0.0000
     10 C5         2.8172   13.9146    6.1603 C.ar      1 RES1    0.0000
     11 C6         2.1682   13.2684    5.1401 C.ar      1 RES1    0.0000
     12 C7         2.3342   11.9088    4.9534 C.ar      1 RES1    0.0000
     13 C8         3.1723   11.2101    5.8071 C.ar      1 RES1    0.0000
     14 C9         6.6018   10.3017    6.1222 C.3       1 RES1    0.0000
     15 C10        5.9739    7.5678    7.3875 C.2       1 RES1    0.0000
     16 C11        7.6643    5.9670    8.3403 C.ar      1 RES1    0.0000
     17 C12        8.4354    5.7803    9.4748 C.ar      1 RES1    0.0000
     18 C13        9.1239    4.5864    9.6679 C.ar      1 RES1    0.0000
     19 C14        9.0171    3.5794    8.7278 C.ar      1 RES1    0.0000
     20 C15        8.2511    3.7745    7.5971 C.ar      1 RES1    0.0000
     21 C16        7.5621    4.9704    7.3888 C.ar      1 RES1    0.0000
     22 C17        4.4616    7.3182    5.6127 C.ar      1 RES1    0.0000
     23 C18        3.1900    7.1398    6.1095 C.ar      1 RES1    0.0000
     24 C19        2.0694    7.4839    5.3434 C.ar      1 RES1    0.0000
     25 C20        2.2100    8.0189    4.0908 C.ar      1 RES1    0.0000
     26 C21        3.4833    8.2036    3.5800 C.ar      1 RES1    0.0000
     27 C22        4.6123    7.8238    4.3220 C.ar      1 RES1    0.0000
     28 O2         0.2724   10.5471    9.2220 O.3       2 RES2    0.0000
     29 N5         3.1943    8.0609   11.2407 N.3       2 RES2    0.0000
     30 N6         1.8542    8.8141   13.0206 N.2       2 RES2    0.0000
     31 N7         1.7046   11.1325   10.8774 N.3       2 RES2    0.0000
     32 N8         0.7845    9.3470    9.8801 N.2       2 RES2    0.0000
     33 C23        1.0918   11.6570    9.6641 C.3       2 RES2    0.0000
     34 C24        1.5791    9.7750   10.7884 C.2       2 RES2    0.0000
     35 C25        0.2079   12.8697    9.8763 C.ar      2 RES2    0.0000
     36 C26        0.3395   13.9754    9.0721 C.ar      2 RES2    0.0000
     37 C27       -0.4734   15.0895    9.2512 C.ar      2 RES2    0.0000
     38 C28       -1.4166   15.0874   10.2460 C.ar      2 RES2    0.0000
     39 C29       -1.5684   13.9859   11.0717 C.ar      2 RES2    0.0000
     40 C30       -0.7452   12.8739   10.8926 C.ar      2 RES2    0.0000
     41 C31        2.8782   11.8123   11.4109 C.3       2 RES2    0.0000
     42 C32        2.2022    8.8267   11.7832 C.2       2 RES2    0.0000
     43 C33        3.8779    6.9720   11.8162 C.ar      2 RES2    0.0000
     44 C34        4.7734    6.3027   10.9968 C.ar      2 RES2    0.0000
     45 C35        5.5087    5.2159   11.4630 C.ar      2 RES2    0.0000
     46 C36        5.3307    4.7984   12.7627 C.ar      2 RES2    0.0000
     47 C37        4.4339    5.4278   13.5694 C.ar      2 RES2    0.0000
     48 C38        3.6918    6.5209   13.1158 C.ar      2 RES2    0.0000
     49 C39        0.7016    9.5526   13.4220 C.ar      2 RES2    0.0000
     50 C40       -0.5765    9.0995   13.1247 C.ar      2 RES2    0.0000
     51 C41       -1.6878    9.8002   13.6011 C.ar      2 RES2    0.0000
     52 C42       -1.5361   10.9332   14.3532 C.ar      2 RES2    0.0000
     53 C43       -0.2669   11.3969   14.6556 C.ar      2 RES2    0.0000
     54 C44        0.8491   10.6877   14.2071 C.ar      2 RES2    0.0000
     55 H1         7.0920    7.7420    8.8675 H         1 RES1    0.0000
     56 H2         5.4100   11.6445    8.1180 H         1 RES1    0.0000
     57 H3         4.1181   13.6796    7.7242 H         1 RES1    0.0000
     58 H4         2.6825   14.8545    6.2759 H         1 RES1    0.0000
     59 H5         1.6035   13.7635    4.5608 H         1 RES1    0.0000
     60 H6         1.8803   11.4556    4.2432 H         1 RES1    0.0000
     61 H7         3.2792   10.2807    5.6915 H         1 RES1    0.0000
     62 H8         8.4941    6.4621   10.1253 H         1 RES1    0.0000
     63 H9         9.6626    4.4690   10.4429 H         1 RES1    0.0000
     64 H10        9.4691    2.7485    8.8548 H         1 RES1    0.0000
     65 H11        8.1952    3.0842    6.9492 H         1 RES1    0.0000
     66 H12        7.0346    5.0984    6.6062 H         1 RES1    0.0000
     67 H13        3.0743    6.7769    6.9746 H         1 RES1    0.0000
     68 H14        1.1958    7.3434    5.6915 H         1 RES1    0.0000
     69 H15        1.4438    8.2665    3.5826 H         1 RES1    0.0000
     70 H16        3.5931    8.5812    2.7187 H         1 RES1    0.0000
     71 H17        5.4798    7.9098    3.9510 H         1 RES1    0.0000
     72 H18        6.2782   10.7213    5.3358 H         1 RES1    0.0000
     73 H19        7.2113   10.8682    6.5681 H         1 RES1    0.0000
     74 H20        7.0467    9.5044    5.8821 H         1 RES1    0.0000
     75 H21        3.3765    8.2455   10.3920 H         2 RES2    0.0000
     76 H22        1.7562   11.8543    9.0200 H         2 RES2    0.0000
     77 H23        0.9966   13.9733    8.3848 H         2 RES2    0.0000
     78 H24       -0.3730   15.8407    8.6897 H         2 RES2    0.0000
     79 H25       -1.9710   15.8407   10.3666 H         2 RES2    0.0000
     80 H26       -2.2290   13.9943   11.7514 H         2 RES2    0.0000
     81 H27       -0.8376   12.1270   11.4592 H         2 RES2    0.0000
     82 H28        4.8853    6.5880   10.0999 H         2 RES2    0.0000
     83 H29        6.1263    4.7627   10.9002 H         2 RES2    0.0000
     84 H30        5.8327    4.0703   13.0980 H         2 RES2    0.0000
     85 H31        4.3134    5.1194   14.4574 H         2 RES2    0.0000
     86 H32        3.0646    6.9447   13.6824 H         2 RES2    0.0000
     87 H33       -0.6954    8.3085   12.6026 H         2 RES2    0.0000
     88 H34       -2.5648    9.4834   13.4029 H         2 RES2    0.0000
     89 H35       -2.3000   11.3927   14.6734 H         2 RES2    0.0000
     90 H36       -0.1588   12.1900   15.1688 H         2 RES2    0.0000
     91 H37        1.7167   10.9940   14.4447 H         2 RES2    0.0000
     92 H38        3.6327   11.6235   10.8621 H         2 RES2    0.0000
     93 H39        3.0438   11.5186   12.2977 H         2 RES2    0.0000
     94 H40        2.7283   12.7564   11.4211 H         2 RES2    0.0000
@<TRIPOS>BOND
     1    1    5 1
     2    2   15 1
     3    3   15 2
     4    4    6 1
     5    5    7 2
     6    6    1 1
     7    7    4 1
     8    8    6 1
     9    9    8 ar
    10   10    9 ar
    11   11   10 ar
    12   12   11 ar
    13   13    8 ar
    14   14    4 1
    15   15    7 1
    16   16    2 1
    17   17   16 ar
    18   18   17 ar
    19   19   18 ar
    20   20   19 ar
    21   21   16 ar
    22   22    3 1
    23   23   22 ar
    24   24   23 ar
    25   25   24 ar
    26   26   25 ar
    27   27   22 ar
    28   28   32 1
    29   29   42 1
    30   30   42 2
    31   31   33 1
    32   32   34 2
    33   33   28 1
    34   34   31 1
    35   35   33 1
    36   36   35 ar
    37   37   36 ar
    38   38   37 ar
    39   39   38 ar
    40   40   35 ar
    41   41   31 1
    42   42   34 1
    43   43   29 1
    44   44   43 ar
    45   45   44 ar
    46   46   45 ar
    47   47   46 ar
    48   48   43 ar
    49   49   30 1
    50   50   49 ar
    51   51   50 ar
    52   52   51 ar
    53   53   52 ar
    54   54   49 ar
    55   55    2 1
    56   56    6 1
    57   57    9 1
    58   58   10 1
    59   59   11 1
    60   60   12 1
    61   61   13 1
    62   62   17 1
    63   63   18 1
    64   64   19 1
    65   65   20 1
    66   66   21 1
    67   67   23 1
    68   68   24 1
    69   69   25 1
    70   70   26 1
    71   71   27 1
    72   72   14 1
    73   73   14 1
    74   74   14 1
    75   75   29 1
    76   76   33 1
    77   77   36 1
    78   78   37 1
    79   79   38 1
    80   80   39 1
    81   81   40 1
    82   82   44 1
    83   83   45 1
    84   84   46 1
    85   85   47 1
    86   86   48 1
    87   87   50 1
    88   88   51 1
    89   89   52 1
    90   90   53 1
    91   91   54 1
    92   92   41 1
    93   93   41 1
    94   94   41 1
    95   12   13 ar
    96   20   21 ar
    97   26   27 ar
    98   39   40 ar
    99   47   48 ar
   100   53   54 ar
@<TRIPOS>SUBSTRUCTURE
     1 RES1 1
     2 RES2 28

@<TRIPOS>CRYSIN
   7.3360   20.9810   12.7060  90.0000  90.9600  90.0000   4 1

