# MOL2 file generated by ConQuest
# Please check atom types

@<TRIPOS>MOLECULE
BEGHIG
    80    72     2
SMALL
NO_CHARGES
****
Generated from CSD

@<TRIPOS>ATOM
      1 O1         2.3037   26.7100   -1.4680 O.3       1 RES1    0.0000
      2 C1         2.0975   25.4040   -0.8580 C.3       1 RES1    0.0000
      3 H1         2.2026   25.4696    0.1240 H         1 RES1    0.0000
      4 H2         2.7699   24.7621   -1.1996 H         1 RES1    0.0000
      5 O2         4.3605   26.7173   -0.5643 O.2       1 RES1    0.0000
      6 C2         0.7056   24.9201   -1.1953 C.3       1 RES1    0.0000
      7 H3         0.6195   24.8431   -2.1788 H         1 RES1    0.0000
      8 H4         0.0461   25.5885   -0.8849 H         1 RES1    0.0000
      9 C3         0.3853   23.5662   -0.5556 C.3       1 RES1    0.0000
     10 O3         1.0227   30.1906   -4.5251 O.2       1 RES1    0.0000
     11 N1         6.3002   31.2198   -2.0018 N.pl3     1 RES1    0.0000
     12 O4         6.4489   32.2825   -2.5835 O.2       1 RES1    0.0000
     13 O5         2.3923   31.7678   -5.0480 O.2       1 RES1    0.0000
     14 C4         1.4826   22.5467   -0.8624 C.3       1 RES1    0.0000
     15 H5         2.3194   22.7960   -0.3960 H         1 RES1    0.0000
     16 H6         1.6609   22.5206   -1.8350 H         1 RES1    0.0000
     17 N2         2.0778   30.7872   -4.4003 N.pl3     1 RES1    0.0000
     18 O6         7.1120   30.7186   -1.2286 O.2       1 RES1    0.0000
     19 C5        -0.6963   24.2689    1.5637 C.3       1 RES1    0.0000
     20 H7        -1.1765   24.8836    0.9371 H         1 RES1    0.0000
     21 O7         0.4442   23.7167    0.9006 O.3       1 RES1    0.0000
     22 C6        -0.1846   25.0718    2.7648 C.3       1 RES1    0.0000
     23 H8        -0.9651   25.4156    3.2674 H         1 RES1    0.0000
     24 H9         0.3086   24.4569    3.3653 H         1 RES1    0.0000
     25 C7        -0.9839   23.0934   -1.0350 C.3       1 RES1    0.0000
     26 H10       -1.6389   23.8115   -0.9102 H         1 RES1    0.0000
     27 H11       -1.2571   22.3072   -0.5179 H         1 RES1    0.0000
     28 H12       -0.9338   22.8581   -1.9851 H         1 RES1    0.0000
     29 C8         3.5051   27.2458   -1.2236 C.2       1 RES1    0.0000
     30 C9         4.8480   29.2786   -1.6167 C.ar      1 RES1    0.0000
     31 H13        5.4950   28.9373   -1.0118 H         1 RES1    0.0000
     32 C10        5.0583   30.4761   -2.2593 C.ar      1 RES1    0.0000
     33 C11        4.1711   31.0019   -3.1782 C.ar      1 RES1    0.0000
     34 H14        4.3440   31.8188   -3.6330 H         1 RES1    0.0000
     35 C12        3.0239   30.2778   -3.3958 C.ar      1 RES1    0.0000
     36 C13        2.7471   29.0866   -2.7626 C.ar      1 RES1    0.0000
     37 H15        1.9366   28.6240   -2.9367 H         1 RES1    0.0000
     38 C14       -1.6453   23.1925    2.0286 C.ar      1 RES1    0.0000
     39 C15       -1.1790   21.9823    2.5436 C.ar      1 RES1    0.0000
     40 H16       -0.2443   21.8184    2.5828 H         1 RES1    0.0000
     41 C16       -2.0589   21.0177    2.9976 C.ar      1 RES1    0.0000
     42 H17       -1.7260   20.1899    3.3255 H         1 RES1    0.0000
     43 C17       -3.4238   21.2523    2.9751 C.ar      1 RES1    0.0000
     44 H18       -4.0299   20.5923    3.2921 H         1 RES1    0.0000
     45 C18       -3.8963   22.4601    2.4863 C.ar      1 RES1    0.0000
     46 H19       -4.8308   22.6286    2.4674 H         1 RES1    0.0000
     47 C19       -3.0152   23.4164    2.0257 C.ar      1 RES1    0.0000
     48 H20       -3.3520   24.2436    1.7008 H         1 RES1    0.0000
     49 C20        0.7117   26.2282    2.4246 C.ar      1 RES1    0.0000
     50 C21        1.9893   26.3271    2.9802 C.ar      1 RES1    0.0000
     51 H21        2.2921   25.6560    3.5793 H         1 RES1    0.0000
     52 C22        2.8218   27.3941    2.6705 C.ar      1 RES1    0.0000
     53 H22        3.6872   27.4465    3.0593 H         1 RES1    0.0000
     54 C23        2.3977   28.3834    1.7965 C.ar      1 RES1    0.0000
     55 H23        2.9733   29.1047    1.5724 H         1 RES1    0.0000
     56 C24        1.1259   28.3088    1.2555 C.ar      1 RES1    0.0000
     57 H24        0.8252   28.9859    0.6615 H         1 RES1    0.0000
     58 C25        0.2870   27.2504    1.5746 C.ar      1 RES1    0.0000
     59 H25       -0.5896   27.2224    1.2091 H         1 RES1    0.0000
     60 C26        3.6738   28.5770   -1.8662 C.ar      1 RES1    0.0000
     61 C27        1.3663   21.0919   -0.5077 C.3       1 RES1    0.0000
     62 H26        0.6006   20.6949   -0.9951 H         1 RES1    0.0000
     63 H27        1.1912   21.0028    0.4620 H         1 RES1    0.0000
     64 C28        2.6259   20.3384   -0.8609 C.2       1 RES1    0.0000
     65 O8         2.8131   19.3408    0.0065 O.3       1 RES1    0.0000
     66 O9         3.3748   20.5966   -1.7741 O.2       1 RES1    0.0000
     67 C29        4.0043   18.5774   -0.2531 C.3       1 RES1    0.0000
     68 H28        3.9671   18.2130   -1.1619 H         1 RES1    0.0000
     69 H29        4.0681   17.8431    0.3917 H         1 RES1    0.0000
     70 H30        4.7898   19.1583   -0.1661 H         1 RES1    0.0000
     71 C30        4.2207   19.4364   -0.9371 Du        2 SUP2    0.0000
     72 C31        0.9823   21.1405   -0.3626 Du        2 SUP2    0.0000
     73 C32        2.0667   20.0738   -0.2277 Du        2 SUP2    0.0000
     74 H31        4.5501   19.3851   -0.0152 Du        2 SUP2    0.0000
     75 H32        4.9468   19.7281   -1.5267 Du        2 SUP2    0.0000
     76 H33        3.9040   18.5533   -1.2214 Du        2 SUP2    0.0000
     77 H34        0.5436   21.2567    0.5179 Du        2 SUP2    0.0000
     78 H35        0.2933   20.8084   -0.9944 Du        2 SUP2    0.0000
     79 O10        3.1261   20.3898   -1.0067 Du        2 SUP2    0.0000
     80 O11        2.0272   19.0972    0.4816 Du        2 SUP2    0.0000
@<TRIPOS>BOND
     1    1    2 1
     2    2    3 1
     3    4    2 1
     4    5   29 2
     5    6    2 1
     6    7    6 1
     7    8    6 1
     8    9    6 1
     9   10   17 2
    10   11   12 2
    11   13   17 2
    12   14    9 1
    13   15   14 1
    14   16   14 1
    15   17   35 1
    16   18   11 2
    17   19   20 1
    18   21    9 1
    19   22   19 1
    20   23   22 1
    21   24   22 1
    22   25    9 1
    23   26   25 1
    24   27   25 1
    25   28   25 1
    26   29    1 1
    27   30   31 1
    28   32   11 1
    29   33   32 ar
    30   34   33 1
    31   35   33 ar
    32   36   35 ar
    33   37   36 1
    34   38   19 1
    35   39   38 ar
    36   40   39 1
    37   41   39 ar
    38   42   41 1
    39   43   41 ar
    40   44   43 1
    41   45   43 ar
    42   46   45 1
    43   47   38 ar
    44   48   47 1
    45   49   22 1
    46   50   49 ar
    47   51   50 1
    48   52   50 ar
    49   53   52 1
    50   54   52 ar
    51   55   54 1
    52   56   54 ar
    53   57   56 1
    54   58   49 ar
    55   59   58 1
    56   60   29 1
    57   61   14 1
    58   62   61 1
    59   63   61 1
    60   64   61 1
    61   65   64 1
    62   66   64 2
    63   67   65 1
    64   68   67 1
    65   69   67 1
    66   70   67 1
    67   19   21 1
    68   30   32 ar
    69   30   60 ar
    70   36   60 ar
    71   45   47 ar
    72   56   58 ar
@<TRIPOS>SUBSTRUCTURE
     1 RES1 1
     2 SUP2 71

@<TRIPOS>CRYSIN
   6.8209   27.0063    7.7986  90.0000 111.5610  90.0000   4 1

