# MOL2 file generated by ConQuest
# Please check atom types

@<TRIPOS>MOLECULE
BEGKAB
   104    84     3
SMALL
NO_CHARGES
****
Generated from CSD

@<TRIPOS>ATOM
      1 O1         0.6276   11.2108    7.5274 O.3       1 RES1    0.0000
      2 O2        -2.8081   14.9072    6.8122 O.3       1 RES1    0.0000
      3 O3        -3.5118   16.1115    8.5772 O.2       1 RES1    0.0000
      4 O4        -0.4080   20.4189    3.6239 O.2       1 RES1    0.0000
      5 O5        -1.2264   21.7067    5.1532 O.2       1 RES1    0.0000
      6 N1        -1.0213   20.5922    4.6793 N.pl3     1 RES1    0.0000
      7 C1        -1.2262   12.4278    6.7017 C.3       1 RES1    0.0000
      8 H1        -0.8459   13.3287    6.4993 H         1 RES1    0.0000
      9 C2         0.6878   11.2471    6.1629 C.3       1 RES1    0.0000
     10 H2         1.0511   10.3971    5.8148 H         1 RES1    0.0000
     11 H3         1.2788   11.9846    5.8667 H         1 RES1    0.0000
     12 C3        -0.7163   11.4651    5.6470 C.3       1 RES1    0.0000
     13 C4        -0.5768   11.9337    7.9249 C.3       1 RES1    0.0000
     14 H4        -0.3406   12.6930    8.5161 H         1 RES1    0.0000
     15 H5        -1.1891   11.3307    8.4174 H         1 RES1    0.0000
     16 C5        -2.7553   12.5586    6.7153 C.3       1 RES1    0.0000
     17 H6        -3.0738   12.6530    5.7827 H         1 RES1    0.0000
     18 H7        -3.1425   11.7267    7.0825 H         1 RES1    0.0000
     19 C6        -3.2544   13.6848    7.4929 C.3       1 RES1    0.0000
     20 H8        -2.8932   13.6557    8.4143 H         1 RES1    0.0000
     21 H9        -4.2429   13.6593    7.5404 H         1 RES1    0.0000
     22 C7        -3.0033   16.0399    7.4787 C.2       1 RES1    0.0000
     23 C8        -2.4860   17.2093    6.7208 C.ar      1 RES1    0.0000
     24 C9        -1.6884   17.0320    5.5661 C.ar      1 RES1    0.0000
     25 H10       -1.4854   16.1587    5.2477 H         1 RES1    0.0000
     26 C10       -1.2078   18.1567    4.9064 C.ar      1 RES1    0.0000
     27 H11       -0.6718   18.0623    4.1275 H         1 RES1    0.0000
     28 C11       -1.5151   19.4173    5.3921 C.ar      1 RES1    0.0000
     29 C12       -2.3176   19.6037    6.5270 C.ar      1 RES1    0.0000
     30 H12       -2.5348   20.4781    6.8301 H         1 RES1    0.0000
     31 C13       -2.7834   18.4917    7.1917 C.ar      1 RES1    0.0000
     32 H13       -3.3098   18.5963    7.9749 H         1 RES1    0.0000
     33 C14       -0.7016   12.0609    4.2337 C.3       1 RES1    0.0000
     34 H14       -1.6181   12.2752    3.9603 H         1 RES1    0.0000
     35 H15       -0.3188   11.4106    3.6091 H         1 RES1    0.0000
     36 H16       -0.1602   12.8783    4.2287 H         1 RES1    0.0000
     37 C15       -1.5204   10.1646    5.6667 C.2       1 RES1    0.0000
     38 H17       -1.4634    9.6560    6.4659 H         1 RES1    0.0000
     39 C16       -2.2855    9.6596    4.7095 C.2       1 RES1    0.0000
     40 H18       -2.3838   10.1210    3.8856 H         1 RES1    0.0000
     41 H19       -2.7363    8.8350    4.8471 H         1 RES1    0.0000
     42 O6         3.8866   21.2562    2.2538 O.3       2 RES2    0.0000
     43 O7         4.5593   20.0051    0.5054 O.2       2 RES2    0.0000
     44 O8         2.3197   14.4771    4.0374 O.2       2 RES2    0.0000
     45 O9         1.4260   15.7776    5.5112 O.2       2 RES2    0.0000
     46 N2         2.0770   15.5814    4.4756 N.pl3     2 RES2    0.0000
     47 C17        4.2672   23.5696    2.5414 C.3       2 RES2    0.0000
     48 H20        4.7218   24.3652    2.1681 H         2 RES2    0.0000
     49 H21        4.7275   23.3189    3.3814 H         2 RES2    0.0000
     50 C18        2.7295   23.9256    2.8574 C.3       2 RES2    0.0000
     51 H22        2.1828   23.8348    2.0243 H         2 RES2    0.0000
     52 C19        2.1659   22.9629    3.9868 C.3       2 RES2    0.0000
     53 H23        1.5864   22.2618    3.5937 H         2 RES2    0.0000
     54 H24        2.9022   22.5270    4.4818 H         2 RES2    0.0000
     55 O10        1.3858   23.8275    4.8780 O.3       2 RES2    0.0000
     56 C20        1.2966   25.0300    4.3571 C.3       2 RES2    0.0000
     57 H25        1.3011   25.7130    5.0730 H         2 RES2    0.0000
     58 H26        0.4618   25.1208    3.8375 H         2 RES2    0.0000
     59 C21        2.4893   25.2044    3.4622 C.3       2 RES2    0.0000
     60 C22        2.4729   26.3269    2.5365 C.3       2 RES2    0.0000
     61 H27        2.3129   27.1588    3.0321 H         2 RES2    0.0000
     62 H28        1.7565   26.1961    1.8799 H         2 RES2    0.0000
     63 H29        3.3342   26.3850    2.0736 H         2 RES2    0.0000
     64 C23        3.6791   25.5277    4.5669 C.2       2 RES2    0.0000
     65 H30        3.7538   24.9464    5.3137 H         2 RES2    0.0000
     66 C24        4.5288   26.5158    4.4867 C.2       2 RES2    0.0000
     67 H31        4.4844   27.1189    3.7566 H         2 RES2    0.0000
     68 H32        5.1813   26.6321    5.1656 H         2 RES2    0.0000
     69 C25        4.3602   22.4398    1.5663 C.3       2 RES2    0.0000
     70 H33        3.7997   22.6251    0.7714 H         2 RES2    0.0000
     71 H34        5.2961   22.3163    1.2707 H         2 RES2    0.0000
     72 C26        4.0505   20.1188    1.6139 C.2       2 RES2    0.0000
     73 C27        3.5325   18.9458    2.3902 C.ar      2 RES2    0.0000
     74 C28        3.8379   17.6758    1.9348 C.ar      2 RES2    0.0000
     75 H35        4.3672   17.5610    1.1541 H         2 RES2    0.0000
     76 C29        3.3659   16.5685    2.6248 C.ar      2 RES2    0.0000
     77 H36        3.5763   15.6901    2.3359 H         2 RES2    0.0000
     78 C30        2.5795   16.7799    3.7461 C.ar      2 RES2    0.0000
     79 C31        2.2550   18.0220    4.2115 C.ar      2 RES2    0.0000
     80 H37        1.7082   18.1277    4.9817 H         2 RES2    0.0000
     81 C32        2.7451   19.1249    3.5295 C.ar      2 RES2    0.0000
     82 H38        2.5459   20.0022    3.8369 H         2 RES2    0.0000
     83 C33        2.9575   23.8857    3.4190 Du        3 SUP3    0.0000
     84 C34        3.2351   25.0845    4.4312 Du        3 SUP3    0.0000
     85 C35        1.1021   25.2988    3.6782 Du        3 SUP3    0.0000
     86 C36        1.8388   24.4342    2.6970 Du        3 SUP3    0.0000
     87 C37        4.2672   23.5696    2.5414 Du        3 SUP3    0.0000
     88 C38        1.0635   23.4606    1.9440 Du        3 SUP3    0.0000
     89 C39        2.3868   25.5531    1.6108 Du        3 SUP3    0.0000
     90 C40        2.2826   25.4478    0.3209 Du        3 SUP3    0.0000
     91 H39        2.6749   23.0683    3.9214 Du        3 SUP3    0.0000
     92 H40        3.3961   24.7394    5.3439 Du        3 SUP3    0.0000
     93 H41        4.0199   25.6112    4.1423 Du        3 SUP3    0.0000
     94 H42        0.5443   25.9600    3.1987 Du        3 SUP3    0.0000
     95 H43        0.5182   24.7466    4.2534 Du        3 SUP3    0.0000
     96 H44        4.4688   24.3943    2.0329 Du        3 SUP3    0.0000
     97 H45        5.0119   23.4461    3.1827 Du        3 SUP3    0.0000
     98 H46        1.6544   22.9956    1.3078 Du        3 SUP3    0.0000
     99 H47        0.3547   23.9184    1.4509 Du        3 SUP3    0.0000
    100 H48        0.6719   22.8104    2.5575 Du        3 SUP3    0.0000
    101 H49        2.8070   26.3342    1.9570 Du        3 SUP3    0.0000
    102 H50        1.8737   24.6812   -0.0629 Du        3 SUP3    0.0000
    103 H51        2.6250   26.1344   -0.2425 Du        3 SUP3    0.0000
    104 O11        2.0222   25.9019    4.3941 Du        3 SUP3    0.0000
@<TRIPOS>BOND
     1    1    9 1
     2    2   19 1
     3    3   22 2
     4    4    6 2
     5    5    6 2
     6    6   28 1
     7    7    8 1
     8    9   10 1
     9   11    9 1
    10   12    7 1
    11   13    1 1
    12   14   13 1
    13   15   13 1
    14   16    7 1
    15   17   16 1
    16   18   16 1
    17   19   16 1
    18   20   19 1
    19   21   19 1
    20   22    2 1
    21   23   22 1
    22   24   23 ar
    23   25   24 1
    24   26   24 ar
    25   27   26 1
    26   28   26 ar
    27   29   28 ar
    28   30   29 1
    29   31   23 ar
    30   32   31 1
    31   33   12 1
    32   34   33 1
    33   35   33 1
    34   36   33 1
    35   37   12 1
    36   38   37 1
    37   39   37 2
    38   40   39 1
    39   41   39 1
    40   42   69 1
    41   43   72 2
    42   44   46 2
    43   45   46 2
    44   46   78 1
    45   47   48 1
    46   49   47 1
    47   50   47 1
    48   51   50 1
    49   52   50 1
    50   53   52 1
    51   54   52 1
    52   55   52 1
    53   56   55 1
    54   57   56 1
    55   58   56 1
    56   59   50 1
    57   60   59 1
    58   61   60 1
    59   62   60 1
    60   63   60 1
    61   64   59 1
    62   65   64 1
    63   66   64 2
    64   67   66 1
    65   68   66 1
    66   69   47 1
    67   70   69 1
    68   71   69 1
    69   72   42 1
    70   73   72 1
    71   74   73 ar
    72   75   74 1
    73   76   74 ar
    74   77   76 1
    75   78   76 ar
    76   79   78 ar
    77   80   79 1
    78   81   73 ar
    79   82   81 1
    80    7   13 1
    81    9   12 1
    82   29   31 ar
    83   56   59 1
    84   79   81 ar
@<TRIPOS>SUBSTRUCTURE
     1 RES1 1
     2 RES2 42
     3 SUP3 83

@<TRIPOS>CRYSIN
   6.9621   36.3280    6.9667  90.0000 117.6420  90.0000   4 1

