# MOL2 file generated by ConQuest
# Please check atom types

@<TRIPOS>MOLECULE
BEGLAA
    66    72     2
SMALL
NO_CHARGES
****
Generated from CSD

@<TRIPOS>ATOM
      1 N1         6.1756    4.5662    6.5049 N.ar      1 RES1    0.0000
      2 C1         7.0359    3.6384    6.7161 C.ar      1 RES1    0.0000
      3 C2         6.9391    2.3217    6.2196 C.ar      1 RES1    0.0000
      4 H1         7.6076    1.7114    6.4306 H         1 RES1    0.0000
      5 N2         5.9496    1.9349    5.4809 N.ar      1 RES1    0.0000
      6 C3         4.9934    2.8895    5.2099 C.ar      1 RES1    0.0000
      7 C4         3.8927    2.5296    4.4092 C.ar      1 RES1    0.0000
      8 H2         3.8127    1.6622    4.0843 H         1 RES1    0.0000
      9 C5         2.9529    3.4551    4.1195 C.ar      1 RES1    0.0000
     10 H3         2.2333    3.2249    3.5774 H         1 RES1    0.0000
     11 C6         3.0470    4.7518    4.6243 C.ar      1 RES1    0.0000
     12 H4         2.3841    5.3710    4.4195 H         1 RES1    0.0000
     13 C7         4.0981    5.1251    5.4085 C.ar      1 RES1    0.0000
     14 H5         4.1542    5.9959    5.7313 H         1 RES1    0.0000
     15 C8         5.0965    4.1862    5.7313 C.ar      1 RES1    0.0000
     16 O1         8.1916    3.8575    7.4080 O.3       1 RES1    0.0000
     17 N3        10.6030    4.4857    7.9410 N.pl3     1 RES1    0.0000
     18 H6        10.4037    3.6988    7.6596 H         1 RES1    0.0000
     19 C9         9.6148    5.4057    8.0941 C.2       1 RES1    0.0000
     20 C10       10.0243    6.6900    8.5969 C.2       1 RES1    0.0000
     21 H7         9.3603    7.3317    8.7086 H         1 RES1    0.0000
     22 N4        11.2224    7.0321    8.9031 N.2       1 RES1    0.0000
     23 C11       12.2189    6.0562    8.7211 C.ar      1 RES1    0.0000
     24 C12       13.5413    6.3625    9.0356 C.ar      1 RES1    0.0000
     25 H8        13.7500    7.2009    9.3790 H         1 RES1    0.0000
     26 C13       14.5394    5.4426    8.8473 C.ar      1 RES1    0.0000
     27 H9        15.4174    5.6550    9.0666 H         1 RES1    0.0000
     28 C14       14.2337    4.1918    8.3279 C.ar      1 RES1    0.0000
     29 H10       14.9137    3.5736    8.1769 H         1 RES1    0.0000
     30 C15       12.9297    3.8631    8.0321 C.ar      1 RES1    0.0000
     31 H11       12.7254    3.0192    7.6969 H         1 RES1    0.0000
     32 C16       11.9264    4.7887    8.2307 C.ar      1 RES1    0.0000
     33 N5         8.3474    5.2324    7.8417 N.2       1 RES1    0.0000
     34 N6        10.3222    1.3715    7.8334 N.ar      2 RES2    0.0000
     35 C17        9.9989    0.6930    6.7844 C.ar      2 RES2    0.0000
     36 C18        9.3815   -0.5824    6.8155 C.ar      2 RES2    0.0000
     37 H12        9.2003   -1.0127    6.0106 H         2 RES2    0.0000
     38 N7         9.0583   -1.1748    7.9286 N.ar      2 RES2    0.0000
     39 C19        9.3688   -0.4784    9.0811 C.ar      2 RES2    0.0000
     40 C20        9.0400   -1.0574   10.3287 C.ar      2 RES2    0.0000
     41 H13        8.6020   -1.8768   10.3680 H         2 RES2    0.0000
     42 C21        9.3748   -0.3935   11.4750 C.ar      2 RES2    0.0000
     43 H14        9.1357   -0.7545   12.2964 H         2 RES2    0.0000
     44 C22       10.0681    0.8138   11.4357 C.ar      2 RES2    0.0000
     45 H15       10.3180    1.2273   12.2302 H         2 RES2    0.0000
     46 C23       10.3850    1.3950   10.2439 C.ar      2 RES2    0.0000
     47 H16       10.8329    2.2099   10.2273 H         2 RES2    0.0000
     48 C24       10.0287    0.7556    9.0397 C.ar      2 RES2    0.0000
     49 O2        10.1913    1.1938    5.5316 O.3       2 RES2    0.0000
     50 N8        11.0203    2.0556    3.2646 N.pl3     2 RES2    0.0000
     51 H17       10.7225    1.2531    3.3353 H         2 RES2    0.0000
     52 C25       10.9983    2.8817    4.3429 C.2       2 RES2    0.0000
     53 C26       11.4641    4.2298    4.1257 C.2       2 RES2    0.0000
     54 H18       11.4103    4.8211    4.8416 H         2 RES2    0.0000
     55 N9        11.9448    4.6813    3.0291 N.2       2 RES2    0.0000
     56 C27       12.0063    3.7860    1.9532 C.ar      2 RES2    0.0000
     57 C28       12.5913    4.2208    0.7718 C.ar      2 RES2    0.0000
     58 H19       12.9556    5.0748    0.7180 H         2 RES2    0.0000
     59 C29       12.6315    3.3925   -0.3104 C.ar      2 RES2    0.0000
     60 H20       13.0263    3.6887   -1.0987 H         2 RES2    0.0000
     61 C30       12.1029    2.1439   -0.2545 C.ar      2 RES2    0.0000
     62 H21       12.1081    1.6074   -1.0138 H         2 RES2    0.0000
     63 C31       11.5579    1.6644    0.9166 C.ar      2 RES2    0.0000
     64 H22       11.2204    0.7992    0.9600 H         2 RES2    0.0000
     65 C32       11.5204    2.5005    2.0484 C.ar      2 RES2    0.0000
     66 N10       10.6125    2.5654    5.5492 N.2       2 RES2    0.0000
@<TRIPOS>BOND
     1    1    2 ar
     2    2    3 ar
     3    3    4 1
     4    5    3 ar
     5    6    5 ar
     6    7    6 ar
     7    8    7 1
     8    9    7 ar
     9   10    9 1
    10   11    9 ar
    11   12   11 1
    12   13   11 ar
    13   14   13 1
    14   15    1 ar
    15   16    2 1
    16   17   18 1
    17   19   17 1
    18   20   19 1
    19   21   20 1
    20   22   20 2
    21   23   22 1
    22   24   23 ar
    23   25   24 1
    24   26   24 ar
    25   27   26 1
    26   28   26 ar
    27   29   28 1
    28   30   28 ar
    29   31   30 1
    30   32   17 1
    31   33   16 1
    32   34   35 ar
    33   35   36 ar
    34   36   37 1
    35   38   36 ar
    36   39   38 ar
    37   40   39 ar
    38   41   40 1
    39   42   40 ar
    40   43   42 1
    41   44   42 ar
    42   45   44 1
    43   46   44 ar
    44   47   46 1
    45   48   34 ar
    46   49   35 1
    47   50   51 1
    48   52   50 1
    49   53   52 1
    50   54   53 1
    51   55   53 2
    52   56   55 1
    53   57   56 ar
    54   58   57 1
    55   59   57 ar
    56   60   59 1
    57   61   59 ar
    58   62   61 1
    59   63   61 ar
    60   64   63 1
    61   65   50 1
    62   66   49 1
    63    6   15 ar
    64   13   15 ar
    65   19   33 2
    66   23   32 ar
    67   30   32 ar
    68   39   48 ar
    69   46   48 ar
    70   52   66 2
    71   56   65 ar
    72   63   65 ar
@<TRIPOS>SUBSTRUCTURE
     1 RES1 1
     2 RES2 34

@<TRIPOS>CRYSIN
  11.9880   11.1780   20.7084  90.0000  92.3800  90.0000 231 1

