# MOL2 file generated by ConQuest
# Please check atom types

@<TRIPOS>MOLECULE
BEGYUH
    55    58     1
SMALL
NO_CHARGES
****
Generated from CSD

@<TRIPOS>ATOM
      1 N1         3.2062    5.9564    5.1560 N.3       1 RES1    0.0000
      2 N2         1.8141    8.4463    5.9114 N.3       1 RES1    0.0000
      3 N3         1.5021    7.1212    3.8166 N.3       1 RES1    0.0000
      4 N4         0.3043    6.6235    6.5780 N.3       1 RES1    0.0000
      5 O1         1.1197   -0.5018    9.6330 O.2       1 RES1    0.0000
      6 O2         2.1267    0.4112   11.3006 O.2       1 RES1    0.0000
      7 O3        -0.0329    3.1221   13.8782 O.2       1 RES1    0.0000
      8 O4        -0.9108    1.3759   12.9559 O.2       1 RES1    0.0000
      9 N5         2.8799    4.8504    5.7954 N.2       1 RES1    0.0000
     10 N6         3.3266    4.8006    6.9990 N.2       1 RES1    0.0000
     11 N7         1.7922    0.3923   10.1221 N.pl3     1 RES1    0.0000
     12 N8         0.2121    6.0938    7.7892 N.2       1 RES1    0.0000
     13 N9        -0.2355    4.8972    7.7991 N.2       1 RES1    0.0000
     14 N10       -0.4236    2.4999   12.8940 N.pl3     1 RES1    0.0000
     15 C1         3.9221    7.0595    5.7799 C.3       1 RES1    0.0000
     16 H1         4.3663    7.5752    5.0887 H         1 RES1    0.0000
     17 H2         4.6065    6.6981    6.3642 H         1 RES1    0.0000
     18 C2         3.0306    7.9864    6.5852 C.3       1 RES1    0.0000
     19 H3         2.7730    7.5294    7.4011 H         1 RES1    0.0000
     20 H4         3.5506    8.7649    6.8403 H         1 RES1    0.0000
     21 C3         0.5884    8.0630    6.5448 C.3       1 RES1    0.0000
     22 H5        -0.1428    8.5061    6.0872 H         1 RES1    0.0000
     23 H6         0.6012    8.3916    7.4575 H         1 RES1    0.0000
     24 C4        -0.0842    5.8668    5.3929 C.3       1 RES1    0.0000
     25 H7        -1.0302    5.6568    5.4519 H         1 RES1    0.0000
     26 H8         0.4033    5.0286    5.3822 H         1 RES1    0.0000
     27 C5         0.1730    6.6006    4.0888 C.3       1 RES1    0.0000
     28 H9        -0.0581    5.9982    3.3647 H         1 RES1    0.0000
     29 H10       -0.4458    7.3462    4.0460 H         1 RES1    0.0000
     30 C6         2.5886    6.1824    3.8314 C.3       1 RES1    0.0000
     31 H11        3.2749    6.4960    3.2217 H         1 RES1    0.0000
     32 H12        2.2645    5.3322    3.4941 H         1 RES1    0.0000
     33 C7         1.7802    8.4055    4.4531 C.3       1 RES1    0.0000
     34 H13        2.6380    8.7201    4.1263 H         1 RES1    0.0000
     35 H14        1.1103    9.0387    4.1528 H         1 RES1    0.0000
     36 C8         2.9485    3.6129    7.6643 C.ar      1 RES1    0.0000
     37 C9         3.3820    3.5283    8.9876 C.ar      1 RES1    0.0000
     38 H15        3.9245    4.1993    9.3346 H         1 RES1    0.0000
     39 C10        3.0219    2.4710    9.7875 C.ar      1 RES1    0.0000
     40 H16        3.3058    2.4262   10.6719 H         1 RES1    0.0000
     41 C11        2.2331    1.4794    9.2533 C.ar      1 RES1    0.0000
     42 C12        1.8253    1.5133    7.9291 C.ar      1 RES1    0.0000
     43 H17        1.3203    0.8174    7.5760 H         1 RES1    0.0000
     44 C13        2.1759    2.5835    7.1443 C.ar      1 RES1    0.0000
     45 H18        1.8932    2.6183    6.2588 H         1 RES1    0.0000
     46 C14       -0.2501    4.3586    9.1156 C.ar      1 RES1    0.0000
     47 C15        0.4384    4.8932   10.2038 C.ar      1 RES1    0.0000
     48 H19        0.9430    5.6667   10.0943 H         1 RES1    0.0000
     49 C16        0.3802    4.2869   11.4391 C.ar      1 RES1    0.0000
     50 H20        0.8265    4.6552   12.1673 H         1 RES1    0.0000
     51 C17       -0.3430    3.1340   11.5788 C.ar      1 RES1    0.0000
     52 C18       -0.9878    3.2027    9.2967 C.ar      1 RES1    0.0000
     53 H21       -1.4562    2.8413    8.5794 H         1 RES1    0.0000
     54 C19       -1.0387    2.5755   10.5246 C.ar      1 RES1    0.0000
     55 H22       -1.5300    1.7950   10.6398 H         1 RES1    0.0000
@<TRIPOS>BOND
     1    1    9 1
     2    2   18 1
     3    3   27 1
     4    4   12 1
     5    5   11 2
     6    6   11 2
     7    7   14 2
     8    8   14 2
     9    9   10 2
    10   10   36 1
    11   11   41 1
    12   12   13 2
    13   13   46 1
    14   14   51 1
    15   15    1 1
    16   16   15 1
    17   17   15 1
    18   18   15 1
    19   19   18 1
    20   20   18 1
    21   21    2 1
    22   22   21 1
    23   23   21 1
    24   24    4 1
    25   25   24 1
    26   26   24 1
    27   27   24 1
    28   28   27 1
    29   29   27 1
    30   30    1 1
    31   31   30 1
    32   32   30 1
    33   33    2 1
    34   34   33 1
    35   35   33 1
    36   36   37 ar
    37   37   38 1
    38   39   37 ar
    39   40   39 1
    40   41   39 ar
    41   42   41 ar
    42   43   42 1
    43   44   36 ar
    44   45   44 1
    45   46   47 ar
    46   47   48 1
    47   49   47 ar
    48   50   49 1
    49   51   49 ar
    50   52   46 ar
    51   53   52 1
    52   54   51 ar
    53   55   54 1
    54    3   30 1
    55    3   33 1
    56    4   21 1
    57   42   44 ar
    58   52   54 ar
@<TRIPOS>SUBSTRUCTURE
     1 RES1 1

@<TRIPOS>CRYSIN
  10.1846    9.9556   20.8189  90.0000  98.7250  90.0000  14 1

