# MOL2 file generated by ConQuest
# Please check atom types

@<TRIPOS>MOLECULE
BEHDUN
    42    47     1
SMALL
NO_CHARGES
****
Generated from CSD

@<TRIPOS>ATOM
      1 O1        -2.6570    9.4106    3.3475 O.2       1 RES1    0.0000
      2 O2        -2.1582   10.8675    1.8584 O.2       1 RES1    0.0000
      3 O3         3.8184    7.4244    0.9664 O.2       1 RES1    0.0000
      4 O4         2.5319    5.5979    1.0915 O.3       1 RES1    0.0000
      5 O5         6.2992    3.9132    2.6277 O.2       1 RES1    0.0000
      6 N1        -1.9469    9.8466    2.4602 N.pl3     1 RES1    0.0000
      7 C1        -0.7294    9.0769    2.1156 C.ar      1 RES1    0.0000
      8 C2         0.3390    9.7479    1.5764 C.ar      1 RES1    0.0000
      9 C3         1.4778    9.0194    1.2838 C.ar      1 RES1    0.0000
     10 C4         1.5023    7.6541    1.4867 C.ar      1 RES1    0.0000
     11 C5         0.3914    7.0081    1.9988 C.ar      1 RES1    0.0000
     12 C6        -0.7387    7.7276    2.3410 C.ar      1 RES1    0.0000
     13 C7         2.7517    6.9059    1.1457 C.2       1 RES1    0.0000
     14 C8         3.7051    4.7475    0.8885 C.3       1 RES1    0.0000
     15 C9         4.0763    4.6219   -0.5853 C.3       1 RES1    0.0000
     16 C10        2.7742    3.9383   -1.0903 C.3       1 RES1    0.0000
     17 C11        2.9123    2.7451   -0.1581 C.3       1 RES1    0.0000
     18 C12        3.2868    3.3193    1.2083 C.3       1 RES1    0.0000
     19 C13        4.5496    2.4814    1.7109 C.3       1 RES1    0.0000
     20 C14        4.9176    1.5035    0.5982 C.3       1 RES1    0.0000
     21 C15        4.2590    2.1835   -0.5959 C.3       1 RES1    0.0000
     22 C16        5.1185    3.4772   -0.7469 C.3       1 RES1    0.0000
     23 C17        6.2599    3.2959    0.2714 C.3       1 RES1    0.0000
     24 C18        5.7573    3.3964    1.6861 C.2       1 RES1    0.0000
     25 C19        6.3935    1.7655    0.3021 C.3       1 RES1    0.0000
     26 H1         0.3515   10.6863    1.4242 H         1 RES1    0.0000
     27 H2         2.2746    9.4178    0.9156 H         1 RES1    0.0000
     28 H3         0.3780    6.0805    2.1180 H         1 RES1    0.0000
     29 H4        -1.5078    7.3616    2.6820 H         1 RES1    0.0000
     30 H5         4.3995    5.0919    1.4702 H         1 RES1    0.0000
     31 H6         4.3488    5.4526   -0.8897 H         1 RES1    0.0000
     32 H7         1.9446    4.4478   -0.9794 H         1 RES1    0.0000
     33 H8         2.8374    3.6709   -2.0979 H         1 RES1    0.0000
     34 H9         2.0972    2.0956   -0.1699 H         1 RES1    0.0000
     35 H10        2.5485    3.2601    1.8584 H         1 RES1    0.0000
     36 H11        4.4137    2.0759    2.6584 H         1 RES1    0.0000
     37 H12        4.6405    0.4719    0.7670 H         1 RES1    0.0000
     38 H13        4.1968    1.6578   -1.3735 H         1 RES1    0.0000
     39 H14        5.5632    3.4843   -1.5210 H         1 RES1    0.0000
     40 H15        7.0297    3.8647    0.1440 H         1 RES1    0.0000
     41 H16        6.9931    1.4102    0.9770 H         1 RES1    0.0000
     42 H17        6.6547    1.3995   -0.5357 H         1 RES1    0.0000
@<TRIPOS>BOND
     1    1    6 2
     2    2    6 2
     3    3   13 2
     4    4   13 1
     5    5   24 2
     6    6    7 1
     7    7    8 ar
     8    8    9 ar
     9    9   10 ar
    10   10   11 ar
    11   11   12 ar
    12   12    7 ar
    13   13   10 1
    14   14    4 1
    15   15   14 1
    16   16   15 1
    17   17   16 1
    18   18   14 1
    19   19   18 1
    20   20   19 1
    21   21   17 1
    22   22   15 1
    23   23   22 1
    24   24   19 1
    25   25   20 1
    26   26    8 1
    27   27    9 1
    28   28   11 1
    29   29   12 1
    30   30   14 1
    31   31   15 1
    32   32   16 1
    33   33   16 1
    34   34   17 1
    35   35   18 1
    36   36   19 1
    37   37   20 1
    38   38   21 1
    39   39   22 1
    40   40   23 1
    41   41   25 1
    42   42   25 1
    43   17   18 1
    44   20   21 1
    45   21   22 1
    46   23   24 1
    47   23   25 1
@<TRIPOS>SUBSTRUCTURE
     1 RES1 1

@<TRIPOS>CRYSIN
   7.3210   17.9420   11.8660  90.0000  96.0700  90.0000  14 1

