# MOL2 file generated by ConQuest
# Please check atom types

@<TRIPOS>MOLECULE
BEHDAW
    94    98     2
SMALL
NO_CHARGES
****
Generated from CSD

@<TRIPOS>ATOM
      1 O1        10.1641    2.9879   -2.9677 O.2       1 RES1    0.0000
      2 O2         8.0719    2.9296   -0.1301 O.2       1 RES1    0.0000
      3 O3        10.0734   -1.1471   -2.9291 O.2       1 RES1    0.0000
      4 O4         7.9799   -1.4601   -2.4930 O.2       1 RES1    0.0000
      5 N1         9.0087   -0.7905   -2.4503 N.pl3     1 RES1    0.0000
      6 C1        10.2920    3.3714   -1.8226 C.2       1 RES1    0.0000
      7 C2        10.3133    2.3834   -0.6500 C.3       1 RES1    0.0000
      8 H1        11.1834    2.4996   -0.1693 H         1 RES1    0.0000
      9 C3         9.1931    2.7214    0.3317 C.2       1 RES1    0.0000
     10 C4        10.2324    0.9048   -1.1284 C.3       1 RES1    0.0000
     11 H2        10.9547    0.7844   -1.8091 H         1 RES1    0.0000
     12 C5         8.9229    0.5704   -1.8182 C.3       1 RES1    0.0000
     13 H3         8.1857    0.5855   -1.1570 H         1 RES1    0.0000
     14 H4         8.7293    1.2487   -2.5115 H         1 RES1    0.0000
     15 C6        10.4888    4.8245   -1.5251 C.ar      1 RES1    0.0000
     16 C7        10.2909    5.7386   -2.5598 C.ar      1 RES1    0.0000
     17 H5        10.0026    5.4304   -3.4113 H         1 RES1    0.0000
     18 C8        10.5090    7.0905   -2.3594 C.ar      1 RES1    0.0000
     19 H6        10.3728    7.7048   -3.0727 H         1 RES1    0.0000
     20 C9        10.9249    7.5488   -1.1184 C.ar      1 RES1    0.0000
     21 H7        11.0717    8.4766   -0.9814 H         1 RES1    0.0000
     22 C10       11.1281    6.6520   -0.0756 C.ar      1 RES1    0.0000
     23 H8        11.4185    6.9661    0.7713 H         1 RES1    0.0000
     24 C11       10.9047    5.2917   -0.2759 C.ar      1 RES1    0.0000
     25 H9        11.0355    4.6803    0.4390 H         1 RES1    0.0000
     26 C12        9.4420    2.7581    1.7966 C.ar      1 RES1    0.0000
     27 C13        8.3985    3.1639    2.6275 C.ar      1 RES1    0.0000
     28 H10        7.5666    3.4224    2.2481 H         1 RES1    0.0000
     29 C14        8.5655    3.1915    4.0017 C.ar      1 RES1    0.0000
     30 H11        7.8506    3.4773    4.5589 H         1 RES1    0.0000
     31 C15        9.7665    2.8072    4.5636 C.ar      1 RES1    0.0000
     32 H12        9.8750    2.8164    5.5090 H         1 RES1    0.0000
     33 C16       10.8143    2.4082    3.7493 C.ar      1 RES1    0.0000
     34 H13       11.6408    2.1463    4.1356 H         1 RES1    0.0000
     35 C17       10.6590    2.3908    2.3688 C.ar      1 RES1    0.0000
     36 H14       11.3845    2.1280    1.8123 H         1 RES1    0.0000
     37 C18       10.5515   -0.0488    0.0182 C.ar      1 RES1    0.0000
     38 C19        9.5665   -0.5451    0.8629 C.ar      1 RES1    0.0000
     39 H15        8.6580   -0.3156    0.7086 H         1 RES1    0.0000
     40 C20        9.8931   -1.3733    1.9311 C.ar      1 RES1    0.0000
     41 H16        9.2112   -1.7061    2.5021 H         1 RES1    0.0000
     42 C21       11.2185   -1.7118    2.1606 C.ar      1 RES1    0.0000
     43 H17       11.4451   -2.2744    2.8909 H         1 RES1    0.0000
     44 C22       12.2078   -1.2292    1.3263 C.ar      1 RES1    0.0000
     45 H18       13.1152   -1.4614    1.4799 H         1 RES1    0.0000
     46 C23       11.8749   -0.4033    0.2615 C.ar      1 RES1    0.0000
     47 H19       12.5599   -0.0755   -0.3104 H         1 RES1    0.0000
     48 O5         2.5707    0.5253    5.1863 O.2       2 RES2    0.0000
     49 O6         0.4938    1.0442    7.6840 O.2       2 RES2    0.0000
     50 O7         3.1577    4.6663    5.0368 O.2       2 RES2    0.0000
     51 O8         5.2557    4.8129    5.5538 O.2       2 RES2    0.0000
     52 N2         4.1870    4.2127    5.5190 N.pl3     2 RES2    0.0000
     53 C24        2.7488    0.1559    6.3361 C.2       2 RES2    0.0000
     54 C25        2.8392    1.1720    7.4821 C.3       2 RES2    0.0000
     55 H20        3.6306    0.9697    8.0581 H         2 RES2    0.0000
     56 C26        1.5425    1.0394    8.2995 C.2       2 RES2    0.0000
     57 C27        2.9200    2.6363    6.9575 C.3       2 RES2    0.0000
     58 H21        2.1105    2.8072    6.3963 H         2 RES2    0.0000
     59 C28        4.1498    2.8173    6.0771 C.3       2 RES2    0.0000
     60 H22        4.9667    2.6494    6.6095 H         2 RES2    0.0000
     61 H23        4.1253    2.1623    5.3334 H         2 RES2    0.0000
     62 C29        2.8775   -1.2990    6.6509 C.ar      2 RES2    0.0000
     63 C30        2.9190   -2.2004    5.5883 C.ar      2 RES2    0.0000
     64 H24        2.8573   -1.8810    4.6969 H         2 RES2    0.0000
     65 C31        3.0498   -3.5551    5.8244 C.ar      2 RES2    0.0000
     66 H25        3.0977   -4.1623    5.0951 H         2 RES2    0.0000
     67 C32        3.1105   -4.0296    7.1275 C.ar      2 RES2    0.0000
     68 H26        3.1924   -4.9616    7.2899 H         2 RES2    0.0000
     69 C33        3.0509   -3.1473    8.1888 C.ar      2 RES2    0.0000
     70 H27        3.0754   -3.4762    9.0802 H         2 RES2    0.0000
     71 C34        2.9562   -1.7794    7.9571 C.ar      2 RES2    0.0000
     72 H28        2.9445   -1.1732    8.6883 H         2 RES2    0.0000
     73 C35        1.5637    0.9499    9.7879 C.ar      2 RES2    0.0000
     74 C36        0.3553    0.6929   10.4357 C.ar      2 RES2    0.0000
     75 H29       -0.4351    0.5592    9.9268 H         2 RES2    0.0000
     76 C37        0.3010    0.6335   11.8209 C.ar      2 RES2    0.0000
     77 H30       -0.5202    0.4391   12.2595 H         2 RES2    0.0000
     78 C38        1.4435    0.8553   12.5608 C.ar      2 RES2    0.0000
     79 H31        1.3999    0.8359   13.5106 H         2 RES2    0.0000
     80 C39        2.6488    1.1065   11.9391 C.ar      2 RES2    0.0000
     81 H32        3.4328    1.2533   12.4571 H         2 RES2    0.0000
     82 C40        2.7094    1.1438   10.5526 C.ar      2 RES2    0.0000
     83 H33        3.5413    1.3036   10.1212 H         2 RES2    0.0000
     84 C41        2.8956    3.6157    8.1286 C.ar      2 RES2    0.0000
     85 C42        4.0455    3.9013    8.8545 C.ar      2 RES2    0.0000
     86 H34        4.8742    3.5185    8.5911 H         2 RES2    0.0000
     87 C43        3.9976    4.7397    9.9588 C.ar      2 RES2    0.0000
     88 H35        4.7955    4.9387   10.4347 H         2 RES2    0.0000
     89 C44        2.7998    5.2840   10.3717 C.ar      2 RES2    0.0000
     90 H36        2.7647    5.8352   11.1433 H         2 RES2    0.0000
     91 C45        1.6499    5.0222    9.6512 C.ar      2 RES2    0.0000
     92 H37        0.8223    5.4029    9.9205 H         2 RES2    0.0000
     93 C46        1.7042    4.1974    8.5274 C.ar      2 RES2    0.0000
     94 H38        0.9127    4.0331    8.0298 H         2 RES2    0.0000
@<TRIPOS>BOND
     1    1    6 2
     2    2    9 2
     3    3    5 2
     4    4    5 2
     5    5   12 1
     6    6    7 1
     7    7    8 1
     8    9    7 1
     9   10    7 1
    10   11   10 1
    11   12   10 1
    12   13   12 1
    13   14   12 1
    14   15    6 1
    15   16   15 ar
    16   17   16 1
    17   18   16 ar
    18   19   18 1
    19   20   18 ar
    20   21   20 1
    21   22   20 ar
    22   23   22 1
    23   24   15 ar
    24   25   24 1
    25   26    9 1
    26   27   26 ar
    27   28   27 1
    28   29   27 ar
    29   30   29 1
    30   31   29 ar
    31   32   31 1
    32   33   31 ar
    33   34   33 1
    34   35   26 ar
    35   36   35 1
    36   37   10 1
    37   38   37 ar
    38   39   38 1
    39   40   38 ar
    40   41   40 1
    41   42   40 ar
    42   43   42 1
    43   44   42 ar
    44   45   44 1
    45   46   37 ar
    46   47   46 1
    47   48   53 2
    48   49   56 2
    49   50   52 2
    50   51   52 2
    51   52   59 1
    52   53   54 1
    53   54   55 1
    54   56   54 1
    55   57   54 1
    56   58   57 1
    57   59   57 1
    58   60   59 1
    59   61   59 1
    60   62   53 1
    61   63   62 ar
    62   64   63 1
    63   65   63 ar
    64   66   65 1
    65   67   65 ar
    66   68   67 1
    67   69   67 ar
    68   70   69 1
    69   71   62 ar
    70   72   71 1
    71   73   56 1
    72   74   73 ar
    73   75   74 1
    74   76   74 ar
    75   77   76 1
    76   78   76 ar
    77   79   78 1
    78   80   78 ar
    79   81   80 1
    80   82   73 ar
    81   83   82 1
    82   84   57 1
    83   85   84 ar
    84   86   85 1
    85   87   85 ar
    86   88   87 1
    87   89   87 ar
    88   90   89 1
    89   91   89 ar
    90   92   91 1
    91   93   84 ar
    92   94   93 1
    93   22   24 ar
    94   33   35 ar
    95   44   46 ar
    96   69   71 ar
    97   80   82 ar
    98   91   93 ar
@<TRIPOS>SUBSTRUCTURE
     1 RES1 1
     2 RES2 48

@<TRIPOS>CRYSIN
  10.6377   11.4348   31.3543  90.0000  90.0000  90.0000  19 1

