# MOL2 file generated by ConQuest
# Please check atom types

@<TRIPOS>MOLECULE
BEHROX
    55    59     1
SMALL
NO_CHARGES
****
Generated from CSD

@<TRIPOS>ATOM
      1 O1         0.1688    6.1741    5.5050 O.3       1 RES1    0.0000
      2 O2        -4.1568    4.1559    5.1246 O.2       1 RES1    0.0000
      3 N1         0.6567    5.5691    4.2914 N.3       1 RES1    0.0000
      4 C1         0.1674    7.9407    0.8703 C.ar      1 RES1    0.0000
      5 H1         0.0672    8.4630    0.1074 H         1 RES1    0.0000
      6 C2         0.5341    6.6177    0.7664 C.ar      1 RES1    0.0000
      7 H2         0.6931    6.2493   -0.0716 H         1 RES1    0.0000
      8 C3         0.6655    5.8347    1.8927 C.ar      1 RES1    0.0000
      9 H3         0.9097    4.9420    1.8082 H         1 RES1    0.0000
     10 C4         0.4335    6.3734    3.1577 C.ar      1 RES1    0.0000
     11 C5         0.2243    4.1477    4.2602 C.3       1 RES1    0.0000
     12 H4        -0.3674    4.0110    3.4904 H         1 RES1    0.0000
     13 C6         1.4178    3.2180    4.1396 C.ar      1 RES1    0.0000
     14 C7         1.3623    2.1118    3.3213 C.ar      1 RES1    0.0000
     15 H5         0.6065    1.9599    2.8003 H         1 RES1    0.0000
     16 C8         2.4284    1.2210    3.2679 C.ar      1 RES1    0.0000
     17 H6         2.3745    0.4694    2.7230 H         1 RES1    0.0000
     18 C9         3.5471    1.4406    4.0058 C.ar      1 RES1    0.0000
     19 H7         4.2581    0.8438    3.9657 H         1 RES1    0.0000
     20 C10       -0.9575    5.3853    5.9450 C.3       1 RES1    0.0000
     21 C11       -1.1108    5.6240    7.4409 C.3       1 RES1    0.0000
     22 H8        -1.6061    4.8842    7.8269 H         1 RES1    0.0000
     23 H9        -0.2308    5.6358    7.8483 H         1 RES1    0.0000
     24 C12       -1.8243    6.9205    7.7758 C.3       1 RES1    0.0000
     25 H10       -1.9259    6.9970    8.7374 H         1 RES1    0.0000
     26 H11       -1.2944    7.6722    7.4675 H         1 RES1    0.0000
     27 C13       -3.1876    6.9568    7.1165 C.3       1 RES1    0.0000
     28 H12       -3.6347    7.7868    7.3473 H         1 RES1    0.0000
     29 H13       -3.7262    6.2228    7.4503 H         1 RES1    0.0000
     30 C14       -3.0721    6.8500    5.6061 C.3       1 RES1    0.0000
     31 H14       -2.6600    7.6575    5.2599 H         1 RES1    0.0000
     32 H15       -3.9610    6.7824    5.2227 H         1 RES1    0.0000
     33 C15       -2.2495    5.6474    5.1776 C.3       1 RES1    0.0000
     34 H16       -1.9995    5.7946    4.2420 H         1 RES1    0.0000
     35 C16       -2.9482    4.2996    5.2384 C.2       1 RES1    0.0000
     36 C17       -1.9208    3.2441    5.4234 C.2       1 RES1    0.0000
     37 C18       -2.1508    1.9237    5.5046 C.2       1 RES1    0.0000
     38 C19       -1.0416    0.9320    5.6834 C.3       1 RES1    0.0000
     39 H17       -0.9817    0.3743    4.9034 H         1 RES1    0.0000
     40 H18       -1.2196    0.3871    6.4539 H         1 RES1    0.0000
     41 H19       -0.2109    1.3984    5.8068 H         1 RES1    0.0000
     42 C20       -3.5219    1.3102    5.4324 C.3       1 RES1    0.0000
     43 H20       -3.8391    1.1279    6.3208 H         1 RES1    0.0000
     44 H21       -3.4795    0.4910    4.9335 H         1 RES1    0.0000
     45 H22       -4.1233    1.9188    4.9979 H         1 RES1    0.0000
     46 C21       -0.5923    3.9514    5.5646 C.3       1 RES1    0.0000
     47 H23       -0.0444    3.5328    6.2606 H         1 RES1    0.0000
     48 C22        2.5682    3.4289    4.8757 C.ar      1 RES1    0.0000
     49 H24        2.6292    4.1776    5.4246 H         1 RES1    0.0000
     50 C23        3.6217    2.5489    4.8101 C.ar      1 RES1    0.0000
     51 H25        4.3888    2.7067    5.3129 H         1 RES1    0.0000
     52 C24        0.0988    7.7104    3.2587 C.ar      1 RES1    0.0000
     53 H26       -0.0259    8.0975    4.0960 H         1 RES1    0.0000
     54 C25       -0.0501    8.4758    2.1107 C.ar      1 RES1    0.0000
     55 H27       -0.3034    9.3685    2.1861 H         1 RES1    0.0000
@<TRIPOS>BOND
     1    1    3 1
     2    2   35 2
     3    3   10 1
     4    4    5 1
     5    6    4 ar
     6    7    6 1
     7    8    6 ar
     8    9    8 1
     9   10    8 ar
    10   11    3 1
    11   12   11 1
    12   13   11 1
    13   14   13 ar
    14   15   14 1
    15   16   14 ar
    16   17   16 1
    17   18   16 ar
    18   19   18 1
    19   20    1 1
    20   21   20 1
    21   22   21 1
    22   23   21 1
    23   24   21 1
    24   25   24 1
    25   26   24 1
    26   27   24 1
    27   28   27 1
    28   29   27 1
    29   30   27 1
    30   31   30 1
    31   32   30 1
    32   33   20 1
    33   34   33 1
    34   35   33 1
    35   36   35 1
    36   37   36 2
    37   38   37 1
    38   39   38 1
    39   40   38 1
    40   41   38 1
    41   42   37 1
    42   43   42 1
    43   44   42 1
    44   45   42 1
    45   46   11 1
    46   47   46 1
    47   48   13 ar
    48   49   48 1
    49   50   18 ar
    50   51   50 1
    51   52   10 ar
    52   53   52 1
    53   54    4 ar
    54   55   54 1
    55   20   46 1
    56   30   33 1
    57   36   46 1
    58   48   50 ar
    59   52   54 ar
@<TRIPOS>SUBSTRUCTURE
     1 RES1 1

@<TRIPOS>CRYSIN
  28.5260    9.7997   19.4070  90.0000 132.4640  90.0000  15 1

