# MOL2 file generated by ConQuest
# Please check atom types

@<TRIPOS>MOLECULE
BEHRIR
    56    60     1
SMALL
NO_CHARGES
****
Generated from CSD

@<TRIPOS>ATOM
      1 O1        12.4859    6.6996    9.9847 O.3       1 RES1    0.0000
      2 O2        11.6854    4.6414    6.0050 O.3       1 RES1    0.0000
      3 O3        13.3970    2.7691    8.5413 O.3       1 RES1    0.0000
      4 N1        10.9958    5.8736    5.7376 N.3       1 RES1    0.0000
      5 C1        11.3685    6.1889   10.6757 C.3       1 RES1    0.0000
      6 H1        10.6481    5.9997   10.0388 H         1 RES1    0.0000
      7 H2        11.0592    6.8488   11.3312 H         1 RES1    0.0000
      8 H3        11.6203    5.3618   11.1391 H         1 RES1    0.0000
      9 C2        12.7078    6.2582    8.7163 C.2       1 RES1    0.0000
     10 C3        12.6004    5.0139    8.2397 C.2       1 RES1    0.0000
     11 C4        12.8927    4.9866    6.7806 C.3       1 RES1    0.0000
     12 C5        10.0743    6.1983    6.7739 C.ar      1 RES1    0.0000
     13 C6         9.3876    5.1569    7.3972 C.ar      1 RES1    0.0000
     14 H4         9.6102    4.2562    7.1952 H         1 RES1    0.0000
     15 C7         8.3861    5.4280    8.3072 C.ar      1 RES1    0.0000
     16 H5         7.9281    4.7081    8.7249 H         1 RES1    0.0000
     17 C8         8.0387    6.7301    8.6211 C.ar      1 RES1    0.0000
     18 H6         7.3494    6.9108    9.2513 H         1 RES1    0.0000
     19 C9        13.1369    7.2282    7.6990 C.2       1 RES1    0.0000
     20 C10       13.4555    8.5314    7.8295 C.2       1 RES1    0.0000
     21 C11       13.9143    9.3490    6.6572 C.3       1 RES1    0.0000
     22 H7        14.0584    8.7626    5.8856 H         1 RES1    0.0000
     23 H8        14.7522    9.8030    6.8846 H         1 RES1    0.0000
     24 H9        13.2314   10.0163    6.4358 H         1 RES1    0.0000
     25 C12       13.4311    9.3112    9.1236 C.3       1 RES1    0.0000
     26 H10       12.8058    8.8887    9.7476 H         1 RES1    0.0000
     27 H11       13.1441   10.2307    8.9450 H         1 RES1    0.0000
     28 H12       14.3294    9.3196    9.5167 H         1 RES1    0.0000
     29 C13       13.2119    6.4411    6.3907 C.3       1 RES1    0.0000
     30 H13       14.1175    6.5157    5.9719 H         1 RES1    0.0000
     31 C14        9.7198    7.5067    7.0854 C.ar      1 RES1    0.0000
     32 H14       10.1723    8.2298    6.6667 H         1 RES1    0.0000
     33 C15        8.7126    7.7621    8.0015 C.ar      1 RES1    0.0000
     34 H15        8.4834    8.6606    8.2049 H         1 RES1    0.0000
     35 C16       12.0888    6.7847    5.3745 C.3       1 RES1    0.0000
     36 H16       11.7954    7.7316    5.5016 H         1 RES1    0.0000
     37 C17       12.4820    6.5546    3.9199 C.ar      1 RES1    0.0000
     38 C18       13.6915    7.0349    3.4198 C.ar      1 RES1    0.0000
     39 H17       14.3131    7.4395    4.0129 H         1 RES1    0.0000
     40 C19       13.9994    6.9319    2.0839 C.ar      1 RES1    0.0000
     41 H18       14.8300    7.2619    1.7648 H         1 RES1    0.0000
     42 C20       13.1044    6.3507    1.2017 C.ar      1 RES1    0.0000
     43 H19       13.3082    6.2971    0.2762 H         1 RES1    0.0000
     44 C21       11.9185    5.8526    1.6837 C.ar      1 RES1    0.0000
     45 H20       11.3072    5.4364    1.0874 H         1 RES1    0.0000
     46 C22       11.6077    5.9514    3.0272 C.ar      1 RES1    0.0000
     47 H21       10.7835    5.6004    3.3441 H         1 RES1    0.0000
     48 C23       12.3555    3.6793    8.8837 C.3       1 RES1    0.0000
     49 H22       12.3185    3.7875    9.8662 H         1 RES1    0.0000
     50 H23       11.4843    3.3188    8.5803 H         1 RES1    0.0000
     51 C24       13.5344    2.6157    7.1368 C.3       1 RES1    0.0000
     52 H24       12.6796    2.2900    6.7573 H         1 RES1    0.0000
     53 H25       14.2299    1.9358    6.9493 H         1 RES1    0.0000
     54 C25       13.9157    3.9231    6.4649 C.3       1 RES1    0.0000
     55 H26       14.8071    4.2142    6.7832 H         1 RES1    0.0000
     56 H27       13.9675    3.7917    5.4843 H         1 RES1    0.0000
@<TRIPOS>BOND
     1    1    5 1
     2    2    4 1
     3    3   48 1
     4    4   12 1
     5    5    6 1
     6    7    5 1
     7    8    5 1
     8    9    1 1
     9   10    9 2
    10   11    2 1
    11   12   13 ar
    12   13   14 1
    13   15   13 ar
    14   16   15 1
    15   17   15 ar
    16   18   17 1
    17   19    9 1
    18   20   19 2
    19   21   20 1
    20   22   21 1
    21   23   21 1
    22   24   21 1
    23   25   20 1
    24   26   25 1
    25   27   25 1
    26   28   25 1
    27   29   11 1
    28   30   29 1
    29   31   12 ar
    30   32   31 1
    31   33   17 ar
    32   34   33 1
    33   35    4 1
    34   36   35 1
    35   37   35 1
    36   38   37 ar
    37   39   38 1
    38   40   38 ar
    39   41   40 1
    40   42   40 ar
    41   43   42 1
    42   44   42 ar
    43   45   44 1
    44   46   37 ar
    45   47   46 1
    46   48   10 1
    47   49   48 1
    48   50   48 1
    49   51    3 1
    50   52   51 1
    51   53   51 1
    52   54   11 1
    53   55   54 1
    54   56   54 1
    55   10   11 1
    56   19   29 1
    57   29   35 1
    58   31   33 ar
    59   44   46 ar
    60   51   54 1
@<TRIPOS>SUBSTRUCTURE
     1 RES1 1

@<TRIPOS>CRYSIN
  17.4493   10.5092   23.1318  90.0000 111.1410  90.0000  15 1

