# MOL2 file generated by ConQuest
# Please check atom types

@<TRIPOS>MOLECULE
BEHVOB
    49    52     1
SMALL
NO_CHARGES
****
Generated from CSD

@<TRIPOS>ATOM
      1 C1         1.8520   11.2809    4.3334 C.3       1 RES1    0.0000
      2 H1         2.3218   11.1202    5.1781 H         1 RES1    0.0000
      3 H2         0.9257   11.5426    4.5194 H         1 RES1    0.0000
      4 H3         2.3013   11.9984    3.8402 H         1 RES1    0.0000
      5 H4         3.0018    8.1285    5.3748 H         1 RES1    0.0000
      6 H5         2.2291    7.0558    2.9655 H         1 RES1    0.0000
      7 O1         4.0155    6.2185    8.9212 O.2       1 RES1    0.0000
      8 O2         2.8270    6.7559    7.1836 O.2       1 RES1    0.0000
      9 O3         1.5738    4.8701    2.9383 O.2       1 RES1    0.0000
     10 O4         1.6751    3.1553    1.6153 O.2       1 RES1    0.0000
     11 N1         3.8804    6.8070    7.8474 N.pl3     1 RES1    0.0000
     12 N2         3.7834    8.4948    5.2785 N.pl3     1 RES1    0.0000
     13 N3         2.7964    7.2575    2.2981 N.pl3     1 RES1    0.0000
     14 N4         1.9545    4.3213    1.8976 N.pl3     1 RES1    0.0000
     15 C2         4.9662    7.6003    7.3302 C.ar      1 RES1    0.0000
     16 C3         6.1843    7.6037    8.0070 C.ar      1 RES1    0.0000
     17 H6         6.2916    7.0837    8.7951 H         1 RES1    0.0000
     18 C4         7.2413    8.3672    7.5294 C.ar      1 RES1    0.0000
     19 H7         8.0665    8.3717    8.0000 H         1 RES1    0.0000
     20 C5         7.1077    9.1250    6.3722 C.ar      1 RES1    0.0000
     21 H8         7.8354    9.6496    6.0600 H         1 RES1    0.0000
     22 C6         5.9072    9.1139    5.6727 C.ar      1 RES1    0.0000
     23 C7         4.8106    8.3431    6.1557 C.ar      1 RES1    0.0000
     24 C8         4.1884    9.3280    4.2355 C.2       1 RES1    0.0000
     25 C9         5.4744    9.7324    4.4499 C.2       1 RES1    0.0000
     26 C10        6.3202   10.6132    3.5869 C.3       1 RES1    0.0000
     27 H9         7.0043   10.0724    3.1404 H         1 RES1    0.0000
     28 H10        6.7533   11.2954    4.1418 H         1 RES1    0.0000
     29 H11        5.7573   11.0487    2.9136 H         1 RES1    0.0000
     30 C11        3.2880    9.6248    3.0651 C.3       1 RES1    0.0000
     31 H12        3.6696   10.4338    2.6180 H         1 RES1    0.0000
     32 C12        1.8616   10.0061    3.4964 C.3       1 RES1    0.0000
     33 H13        1.3002   10.1384    2.6916 H         1 RES1    0.0000
     34 H14        1.4700    9.2656    4.0235 H         1 RES1    0.0000
     35 C13        3.3557    8.5114    2.0494 C.2       1 RES1    0.0000
     36 C14        4.0019    8.4958    0.8454 C.2       1 RES1    0.0000
     37 C15        4.6964    9.6286    0.1507 C.3       1 RES1    0.0000
     38 H15        4.0294   10.2204   -0.2558 H         1 RES1    0.0000
     39 H16        5.2858    9.2722   -0.5465 H         1 RES1    0.0000
     40 H17        5.2283   10.1341    0.8011 H         1 RES1    0.0000
     41 C16        3.8531    7.1618    0.3207 C.ar      1 RES1    0.0000
     42 C17        4.3189    6.5366   -0.8360 C.ar      1 RES1    0.0000
     43 H18        4.8536    7.0174   -1.4574 H         1 RES1    0.0000
     44 C18        3.9969    5.2081   -1.0742 C.ar      1 RES1    0.0000
     45 H19        4.3130    4.7868   -1.8652 H         1 RES1    0.0000
     46 C19        3.2272    4.4882   -0.1854 C.ar      1 RES1    0.0000
     47 H20        3.0120    3.5817   -0.3704 H         1 RES1    0.0000
     48 C20        2.7652    5.0879    0.9810 C.ar      1 RES1    0.0000
     49 C21        3.0786    6.4289    1.2530 C.ar      1 RES1    0.0000
@<TRIPOS>BOND
     1    1    2 1
     2    3    1 1
     3    4    1 1
     4    5   12 1
     5    6   13 1
     6    7   11 2
     7    8   11 2
     8    9   14 2
     9   10   14 2
    10   11   15 1
    11   12   23 1
    12   13   35 1
    13   14   48 1
    14   15   16 ar
    15   16   17 1
    16   18   16 ar
    17   19   18 1
    18   20   18 ar
    19   21   20 1
    20   22   20 ar
    21   23   15 ar
    22   24   12 1
    23   25   22 1
    24   26   25 1
    25   27   26 1
    26   28   26 1
    27   29   26 1
    28   30   24 1
    29   31   30 1
    30   32    1 1
    31   33   32 1
    32   34   32 1
    33   35   30 1
    34   36   35 2
    35   37   36 1
    36   38   37 1
    37   39   37 1
    38   40   37 1
    39   41   36 1
    40   42   41 ar
    41   43   42 1
    42   44   42 ar
    43   45   44 1
    44   46   44 ar
    45   47   46 1
    46   48   46 ar
    47   49   13 1
    48   22   23 ar
    49   24   25 2
    50   30   32 1
    51   41   49 ar
    52   48   49 ar
@<TRIPOS>SUBSTRUCTURE
     1 RES1 1

@<TRIPOS>CRYSIN
   8.2185    9.7308   12.8238  70.1940  84.5090  75.2110   2 1

