# MOL2 file generated by ConQuest
# Please check atom types

@<TRIPOS>MOLECULE
BEHWER
    38    39     1
SMALL
NO_CHARGES
****
Generated from CSD

@<TRIPOS>ATOM
      1 O1         5.5457    5.5836    5.6875 O.3       1 RES1    0.0000
      2 O2         7.7139    5.9733    6.0125 O.2       1 RES1    0.0000
      3 N1         6.6668    5.5287    6.5722 N.pl3     1 RES1    0.0000
      4 O3         4.1890    6.8894    7.0824 O.3       1 RES1    0.0000
      5 C1         6.5605    5.0476    7.7780 C.2       1 RES1    0.0000
      6 O4         5.6467   -0.6568   10.6350 O.3       1 RES1    0.0000
      7 C2         5.2605    4.5689    8.3607 C.3       1 RES1    0.0000
      8 H1         5.0080    5.2428    9.0751 H         1 RES1    0.0000
      9 C3         4.1323    4.5470    7.3248 C.3       1 RES1    0.0000
     10 H2         4.1386    3.6876    6.7930 H         1 RES1    0.0000
     11 H3         3.2432    4.5610    7.7483 H         1 RES1    0.0000
     12 C4         4.2502    5.6911    6.3451 C.3       1 RES1    0.0000
     13 C5         7.7937    5.0713    8.6176 C.3       1 RES1    0.0000
     14 H4         8.5668    4.5743    8.2365 H         1 RES1    0.0000
     15 H5         8.0623    5.8978    8.5337 H         1 RES1    0.0000
     16 H6         7.5699    4.6777    9.3616 H         1 RES1    0.0000
     17 C6         5.4229    3.1966    9.0241 C.ar      1 RES1    0.0000
     18 C7         5.8417    2.0818    8.2673 C.ar      1 RES1    0.0000
     19 H7         6.0699    2.2018    7.3450 H         1 RES1    0.0000
     20 C8         5.9142    0.8305    8.8394 C.ar      1 RES1    0.0000
     21 H8         6.2706    0.0579    8.3214 H         1 RES1    0.0000
     22 C9         5.5687    0.6337   10.1715 C.ar      1 RES1    0.0000
     23 C10        5.1812    1.7264   10.9453 C.ar      1 RES1    0.0000
     24 H9         4.9820    1.5357   11.9090 H         1 RES1    0.0000
     25 C11        5.1283    2.9862   10.3594 C.ar      1 RES1    0.0000
     26 H10        4.8797    3.7990   10.8688 H         1 RES1    0.0000
     27 C12        3.2674    5.6162    5.1988 C.3       1 RES1    0.0000
     28 H11        3.3625    4.7974    4.8825 H         1 RES1    0.0000
     29 H12        3.5431    6.2882    4.5110 H         1 RES1    0.0000
     30 H13        2.3440    5.7829    5.5087 H         1 RES1    0.0000
     31 C13        4.3338    8.0913    6.2995 C.3       1 RES1    0.0000
     32 H14        3.6121    8.2478    5.6467 H         1 RES1    0.0000
     33 H15        5.2671    8.0835    5.8378 H         1 RES1    0.0000
     34 H16        4.4779    8.7970    6.8461 H         1 RES1    0.0000
     35 C14        5.2383   -0.8936   11.9812 C.3       1 RES1    0.0000
     36 H17        5.3188   -1.8724   12.1001 H         1 RES1    0.0000
     37 H18        4.2927   -0.6372   12.1213 H         1 RES1    0.0000
     38 H19        5.7986   -0.3931   12.4928 H         1 RES1    0.0000
@<TRIPOS>BOND
     1    1    3 1
     2    2    3 1
     3    3    5 2
     4    4   12 1
     5    5    7 1
     6    6   22 1
     7    7    8 1
     8    9    7 1
     9   10    9 1
    10   11    9 1
    11   12    1 1
    12   13    5 1
    13   14   13 1
    14   15   13 1
    15   16   13 1
    16   17    7 1
    17   18   17 ar
    18   19   18 1
    19   20   18 ar
    20   21   20 1
    21   22   20 ar
    22   23   22 ar
    23   24   23 1
    24   25   17 ar
    25   26   25 1
    26   27   12 1
    27   28   27 1
    28   29   27 1
    29   30   27 1
    30   31    4 1
    31   32   31 1
    32   33   31 1
    33   34   31 1
    34   35    6 1
    35   36   35 1
    36   37   35 1
    37   38   35 1
    38    9   12 1
    39   23   25 ar
@<TRIPOS>SUBSTRUCTURE
     1 RES1 1

@<TRIPOS>CRYSIN
   7.8310    8.0970   11.1930  87.0220  71.5560  85.2610   2 1

