# MOL2 file generated by ConQuest
# Please check atom types

@<TRIPOS>MOLECULE
BEJBUN
    76    82     2
SMALL
NO_CHARGES
****
Generated from CSD

@<TRIPOS>ATOM
      1 O1         8.3203   14.0892    9.3380 O.3       1 RES1    0.0000
      2 O2         6.1953   13.9580   10.2867 O.3       1 RES1    0.0000
      3 O3         5.2456    8.8938   13.7687 O.2       1 RES1    0.0000
      4 O4         5.7935    7.9558   11.9061 O.2       1 RES1    0.0000
      5 N1         5.5658    8.9473   12.5925 N.pl3     1 RES1    0.0000
      6 C1         7.7712   16.2713    8.7739 C.ar      1 RES1    0.0000
      7 C2         6.6622   15.4937    8.5583 C.ar      1 RES1    0.0000
      8 C3         5.4955   15.9967    7.9929 C.ar      1 RES1    0.0000
      9 C4         5.4957   17.3454    7.6264 C.ar      1 RES1    0.0000
     10 C5         6.5994   18.1303    7.8312 C.ar      1 RES1    0.0000
     11 C6         7.7646   17.6224    8.4157 C.ar      1 RES1    0.0000
     12 C7         8.8650   15.4500    9.4099 C.3       1 RES1    0.0000
     13 C8         6.9416   14.0965    9.0470 C.3       1 RES1    0.0000
     14 C9         6.6501   12.9641    8.1175 C.2       1 RES1    0.0000
     15 C10        6.2754   11.7758    8.5846 C.2       1 RES1    0.0000
     16 C11        6.0714   11.5790    9.9992 C.ar      1 RES1    0.0000
     17 C12        6.0394   12.7114   10.8197 C.ar      1 RES1    0.0000
     18 C13        5.8011   12.6360   12.1816 C.ar      1 RES1    0.0000
     19 C14        5.6226   11.3870   12.7685 C.ar      1 RES1    0.0000
     20 C15        5.6855   10.2595   11.9588 C.ar      1 RES1    0.0000
     21 C16        5.8815   10.3348   10.6017 C.ar      1 RES1    0.0000
     22 C17        9.1255   15.8242   10.8473 C.3       1 RES1    0.0000
     23 C18       10.1520   15.4378    8.6122 C.3       1 RES1    0.0000
     24 H1         4.6989   15.3820    7.8456 H         1 RES1    0.0000
     25 H2         4.6555   17.6905    7.1509 H         1 RES1    0.0000
     26 H3         6.5677   19.0999    7.5821 H         1 RES1    0.0000
     27 H4         8.5806   18.1765    8.6242 H         1 RES1    0.0000
     28 H5         6.8208   13.1220    7.1030 H         1 RES1    0.0000
     29 H6         6.1505   11.0565    7.9414 H         1 RES1    0.0000
     30 H7         5.7725   13.4379   12.7925 H         1 RES1    0.0000
     31 H8         5.4417   11.3481   13.7627 H         1 RES1    0.0000
     32 H9         5.9221    9.5499   10.1334 H         1 RES1    0.0000
     33 H10        9.4863   16.7185   10.9000 H         1 RES1    0.0000
     34 H11        9.8145   15.1876   11.2354 H         1 RES1    0.0000
     35 H12        8.3723   15.7951   11.3432 H         1 RES1    0.0000
     36 H13       10.4428   16.3540    8.5523 H         1 RES1    0.0000
     37 H14       10.8461   14.9202    9.0314 H         1 RES1    0.0000
     38 H15        9.9468   15.2605    7.6779 H         1 RES1    0.0000
     39 O5         0.1940    8.3860    8.7236 O.3       2 RES2    0.0000
     40 O6         2.0760    8.7019   10.0555 O.3       2 RES2    0.0000
     41 O7         3.5431    4.0460   13.8933 O.2       2 RES2    0.0000
     42 O8         4.1715    3.1687   12.0379 O.2       2 RES2    0.0000
     43 N2         3.6952    4.0897   12.6871 N.pl3     2 RES2    0.0000
     44 C19        0.4197   10.5900    8.0624 C.ar      2 RES2    0.0000
     45 C20        1.6817   10.0627    8.1690 C.ar      2 RES2    0.0000
     46 C21        2.8086   10.7819    7.8456 C.ar      2 RES2    0.0000
     47 C22        2.6313   12.0990    7.4084 C.ar      2 RES2    0.0000
     48 C23        1.3599   12.6409    7.3162 C.ar      2 RES2    0.0000
     49 C24        0.2486   11.9095    7.6396 C.ar      2 RES2    0.0000
     50 C25       -0.6133    9.5815    8.4649 C.3       2 RES2    0.0000
     51 C26        1.5801    8.6557    8.6936 C.3       2 RES2    0.0000
     52 C27        2.2595    7.5913    7.8971 C.2       2 RES2    0.0000
     53 C28        2.8601    6.5513    8.4732 C.2       2 RES2    0.0000
     54 C29        2.8997    6.4492    9.9166 C.ar      2 RES2    0.0000
     55 C30        2.4642    7.5427   10.6676 C.ar      2 RES2    0.0000
     56 C31        2.4702    7.5379   12.0475 C.ar      2 RES2    0.0000
     57 C32        2.8783    6.3934   12.7206 C.ar      2 RES2    0.0000
     58 C33        3.2926    5.3047   11.9756 C.ar      2 RES2    0.0000
     59 C34        3.3288    5.3193   10.6029 C.ar      2 RES2    0.0000
     60 C35       -1.3195    9.9849    9.7453 C.3       2 RES2    0.0000
     61 C36       -1.5682    9.2219    7.3605 C.3       2 RES2    0.0000
     62 H16        3.6961   10.3518    7.9055 H         2 RES2    0.0000
     63 H17        3.4465   12.6603    7.1149 H         2 RES2    0.0000
     64 H18        1.3201   13.5351    6.9472 H         2 RES2    0.0000
     65 H19       -0.6396   12.2472    7.5701 H         2 RES2    0.0000
     66 H20        2.1446    7.6788    6.8634 H         2 RES2    0.0000
     67 H21        3.3090    5.8806    7.9654 H         2 RES2    0.0000
     68 H22        2.1838    8.3349   12.5889 H         2 RES2    0.0000
     69 H23        2.8292    6.3423   13.7627 H         2 RES2    0.0000
     70 H24        3.5622    4.5198   10.1334 H         2 RES2    0.0000
     71 H25       -1.8214   10.8135    9.5824 H         2 RES2    0.0000
     72 H26       -1.8948    9.2826    9.9657 H         2 RES2    0.0000
     73 H27       -0.5016   10.2303   10.3969 H         2 RES2    0.0000
     74 H28       -2.0402    9.9387    7.1748 H         2 RES2    0.0000
     75 H29       -2.2143    8.4321    7.7258 H         2 RES2    0.0000
     76 H30       -1.0764    8.8938    6.5520 H         2 RES2    0.0000
@<TRIPOS>BOND
     1    1   12 1
     2    2   13 1
     3    3    5 2
     4    4    5 2
     5    5   20 1
     6    6    7 ar
     7    7    8 ar
     8    8    9 ar
     9    9   10 ar
    10   10   11 ar
    11   11    6 ar
    12   12    6 1
    13   13    1 1
    14   14   13 1
    15   15   14 2
    16   16   15 1
    17   17    2 1
    18   18   17 ar
    19   19   18 ar
    20   20   19 ar
    21   21   16 ar
    22   22   12 1
    23   23   12 1
    24   24    8 1
    25   25    9 1
    26   26   10 1
    27   27   11 1
    28   28   14 1
    29   29   15 1
    30   30   18 1
    31   31   19 1
    32   32   21 1
    33   33   22 1
    34   34   22 1
    35   35   22 1
    36   36   23 1
    37   37   23 1
    38   38   23 1
    39   39   50 1
    40   40   51 1
    41   41   43 2
    42   42   43 2
    43   43   58 1
    44   44   45 ar
    45   45   46 ar
    46   46   47 ar
    47   47   48 ar
    48   48   49 ar
    49   49   44 ar
    50   50   44 1
    51   51   39 1
    52   52   51 1
    53   53   52 2
    54   54   53 1
    55   55   40 1
    56   56   55 ar
    57   57   56 ar
    58   58   57 ar
    59   59   54 ar
    60   60   50 1
    61   61   50 1
    62   62   46 1
    63   63   47 1
    64   64   48 1
    65   65   49 1
    66   66   52 1
    67   67   53 1
    68   68   56 1
    69   69   57 1
    70   70   59 1
    71   71   60 1
    72   72   60 1
    73   73   60 1
    74   74   61 1
    75   75   61 1
    76   76   61 1
    77    7   13 1
    78   16   17 ar
    79   20   21 ar
    80   45   51 1
    81   54   55 ar
    82   58   59 ar
@<TRIPOS>SUBSTRUCTURE
     1 RES1 1
     2 RES2 39

@<TRIPOS>CRYSIN
  10.8570   24.4810   11.9780  90.0000  90.0000  96.9700  14 3

