# MOL2 file generated by ConQuest
# Please check atom types

@<TRIPOS>MOLECULE
BEJLIO
    64    64     3
SMALL
NO_CHARGES
****
Generated from CSD

@<TRIPOS>ATOM
      1 C1        11.8582    5.1797   13.8330 C.3       1 RES1    0.0000
      2 H1        11.5173    5.7616   13.1081 H         1 RES1    0.0000
      3 O1        12.9111    4.3845   13.3381 O.3       1 RES1    0.0000
      4 C2        13.8251    3.8846   14.2246 C.ar      1 RES1    0.0000
      5 C3        13.7339    3.9822   15.6106 C.ar      1 RES1    0.0000
      6 H2        12.9792    4.3949   16.0149 H         1 RES1    0.0000
      7 C4        14.7559    3.4707   16.3927 C.ar      1 RES1    0.0000
      8 H3        14.7211    3.5470   17.3392 H         1 RES1    0.0000
      9 C5        15.8231    2.8494   15.7811 C.ar      1 RES1    0.0000
     10 N1        16.9099    2.3158   16.6025 N.pl3     1 RES1    0.0000
     11 O2        16.9953    2.6726   17.7708 O.2       1 RES1    0.0000
     12 O3        17.7065    1.5439   16.0752 O.2       1 RES1    0.0000
     13 C6        15.9048    2.7016   14.4116 C.ar      1 RES1    0.0000
     14 H4        16.6376    2.2451   14.0156 H         1 RES1    0.0000
     15 C7        14.9011    3.2296   13.6290 C.ar      1 RES1    0.0000
     16 H5        14.9419    3.1468   12.6839 H         1 RES1    0.0000
     17 H6        11.5173    5.7616   13.1081 Du        3 SUP3    0.0000
     18 C8        12.4505    5.5743    4.6110 C.3       2 RES2    0.0000
     19 H7        12.1646    6.1574    5.3580 H         2 RES2    0.0000
     20 O4        13.5510    4.7923    5.0321 O.3       2 RES2    0.0000
     21 C9        13.5260    4.2579    6.3025 C.ar      2 RES2    0.0000
     22 C10       12.3907    4.2105    7.0980 C.ar      2 RES2    0.0000
     23 H8        11.5730    4.5822    6.7892 H         2 RES2    0.0000
     24 C11       12.4594    3.6166    8.3476 C.ar      2 RES2    0.0000
     25 H9        11.6888    3.5760    8.9029 H         2 RES2    0.0000
     26 C12       13.6557    3.0857    8.7762 C.ar      2 RES2    0.0000
     27 N2        13.7042    2.4046   10.0719 N.pl3     2 RES2    0.0000
     28 O5        12.6698    2.3009   10.7128 O.2       2 RES2    0.0000
     29 O6        14.7815    1.9481   10.4533 O.2       2 RES2    0.0000
     30 C13       14.8039    3.1319    7.9955 C.ar      2 RES2    0.0000
     31 H10       15.6205    2.7639    8.3109 H         2 RES2    0.0000
     32 C14       14.7294    3.7247    6.7509 C.ar      2 RES2    0.0000
     33 H11       15.5012    3.7685    6.1990 H         2 RES2    0.0000
     34 H12       12.1646    6.1578    5.3580 Du        3 SUP3    0.0000
     35 H1A       12.1992    5.7616   14.5578 H         1 RES1    0.0000
     36 O1A       10.8053    4.3845   14.3278 O.3       1 RES1    0.0000
     37 C2A        9.8913    3.8846   13.4414 C.ar      1 RES1    0.0000
     38 C3A        9.9826    3.9822   12.0554 C.ar      1 RES1    0.0000
     39 H2A       10.7373    4.3949   11.6511 H         1 RES1    0.0000
     40 C4A        8.9605    3.4707   11.2733 C.ar      1 RES1    0.0000
     41 H3A        8.9953    3.5470   10.3268 H         1 RES1    0.0000
     42 C5A        7.8934    2.8494   11.8849 C.ar      1 RES1    0.0000
     43 N1A        6.8066    2.3158   11.0634 N.pl3     1 RES1    0.0000
     44 O2A        6.7212    2.6726    9.8952 O.2       1 RES1    0.0000
     45 O3A        6.0099    1.5439   11.5908 O.2       1 RES1    0.0000
     46 C6A        7.8117    2.7016   13.2544 C.ar      1 RES1    0.0000
     47 H4A        7.0789    2.2451   13.6504 H         1 RES1    0.0000
     48 C7A        8.8153    3.2296   14.0370 C.ar      1 RES1    0.0000
     49 H5A        8.7745    3.1468   14.9821 H         1 RES1    0.0000
     50 H7A       12.7365    6.1574    3.8640 H         2 RES2    0.0000
     51 O4A       11.3501    4.7923    4.1899 O.3       2 RES2    0.0000
     52 C9A       11.3751    4.2579    2.9195 C.ar      2 RES2    0.0000
     53 C10A      12.5103    4.2105    2.1240 C.ar      2 RES2    0.0000
     54 H8A       13.3281    4.5822    2.4328 H         2 RES2    0.0000
     55 C11A      12.4417    3.6166    0.8744 C.ar      2 RES2    0.0000
     56 H9A       13.2123    3.5760    0.3191 H         2 RES2    0.0000
     57 C12A      11.2454    3.0857    0.4458 C.ar      2 RES2    0.0000
     58 N2A       11.1969    2.4046   -0.8499 N.pl3     2 RES2    0.0000
     59 O5A       12.2313    2.3009   -1.4908 O.2       2 RES2    0.0000
     60 O6A       10.1196    1.9481   -1.2313 O.2       2 RES2    0.0000
     61 C13A      10.0972    3.1319    1.2265 C.ar      2 RES2    0.0000
     62 H10A       9.2806    2.7639    0.9111 H         2 RES2    0.0000
     63 C14A      10.1717    3.7247    2.4711 C.ar      2 RES2    0.0000
     64 H11A       9.3999    3.7685    3.0230 H         2 RES2    0.0000
@<TRIPOS>BOND
     1    1    2 1
     2    3    1 1
     3    4    3 1
     4    5    4 ar
     5    6    5 1
     6    7    5 ar
     7    8    7 1
     8    9    7 ar
     9   10    9 1
    10   11   10 2
    11   12   10 2
    12   13    9 ar
    13   14   13 1
    14   15    4 ar
    15   16   15 1
    16   18   19 1
    17   20   18 1
    18   21   20 1
    19   22   21 ar
    20   23   22 1
    21   24   22 ar
    22   25   24 1
    23   26   24 ar
    24   27   26 1
    25   28   27 2
    26   29   27 2
    27   30   26 ar
    28   31   30 1
    29   32   21 ar
    30   33   32 1
    31   35    1 1
    32   36    1 1
    33   37   36 1
    34   38   37 ar
    35   39   38 1
    36   40   38 ar
    37   41   40 1
    38   42   40 ar
    39   43   42 1
    40   44   43 2
    41   45   43 2
    42   46   42 ar
    43   47   46 1
    44   48   37 ar
    45   49   48 1
    46   50   18 1
    47   51   18 1
    48   52   51 1
    49   53   52 ar
    50   54   53 1
    51   55   53 ar
    52   56   55 1
    53   57   55 ar
    54   58   57 1
    55   59   58 2
    56   60   58 2
    57   61   57 ar
    58   62   61 1
    59   63   52 ar
    60   64   63 1
    61   13   15 ar
    62   30   32 ar
    63   46   48 ar
    64   61   63 ar
@<TRIPOS>SUBSTRUCTURE
     1 RES1 1
     2 RES2 18
     3 SUP3 17

