# MOL2 file generated by ConQuest
# Please check atom types

@<TRIPOS>MOLECULE
BEJTEP
    62    65     1
SMALL
NO_CHARGES
****
Generated from CSD

@<TRIPOS>ATOM
      1 C1         6.2981   -0.1699   27.2710 C.3       1 RES1    0.0000
      2 C2         5.9593    0.7597   26.0931 C.3       1 RES1    0.0000
      3 C3         6.9801    1.8735   26.1620 C.3       1 RES1    0.0000
      4 C4         7.9554    1.4175   27.2710 C.3       1 RES1    0.0000
      5 C5         7.8091    2.1350   28.5899 C.3       1 RES1    0.0000
      6 O1         7.7114    0.0268   27.4872 O.3       1 RES1    0.0000
      7 O2         7.5477    1.9507   24.8776 O.3       1 RES1    0.0000
      8 O3         6.1776    0.1338   24.8400 O.3       1 RES1    0.0000
      9 C6         7.3264    0.7051   24.2040 C.3       1 RES1    0.0000
     10 C7         8.5131   -0.2131   24.3419 C.3       1 RES1    0.0000
     11 C8         6.9937    0.9779   22.7504 C.3       1 RES1    0.0000
     12 N1         6.0579   -1.5410   26.9264 N.am      1 RES1    0.0000
     13 C9         5.7032   -2.4613   27.9132 C.2       1 RES1    0.0000
     14 N2         5.3561   -3.6719   27.3587 N.am      1 RES1    0.0000
     15 O4         5.6926   -2.1844   29.0786 O.2       1 RES1    0.0000
     16 C10        4.9659   -4.8341   28.0605 C.ar      1 RES1    0.0000
     17 C11        5.2084   -4.9823   29.4389 C.ar      1 RES1    0.0000
     18 C12        4.8234   -6.1270   30.0874 C.ar      1 RES1    0.0000
     19 C13        4.1975   -7.1626   29.4233 C.ar      1 RES1    0.0000
     20 C14        3.9716   -7.0432   28.0668 C.ar      1 RES1    0.0000
     21 C15        4.3604   -5.8851   27.3681 C.ar      1 RES1    0.0000
     22 C16        4.1095   -5.8130   25.9177 C.2       1 RES1    0.0000
     23 O5         4.3195   -4.8567   25.1971 O.2       1 RES1    0.0000
     24 O6         3.6155   -6.9484   25.4195 O.3       1 RES1    0.0000
     25 C17        3.3669   -7.0452   24.0129 C.3       1 RES1    0.0000
     26 O7         8.1805    3.5164   28.3800 O.3       1 RES1    0.0000
     27 C18        8.4487    4.2102   29.5110 C.2       1 RES1    0.0000
     28 O8         8.3540    3.7460   30.5918 O.2       1 RES1    0.0000
     29 C19        8.8920    5.6030   29.2259 C.ar      1 RES1    0.0000
     30 C20        8.9754    6.0982   27.9289 C.ar      1 RES1    0.0000
     31 C21        9.4452    7.3674   27.7096 C.ar      1 RES1    0.0000
     32 C22        9.8226    8.1312   28.7936 C.ar      1 RES1    0.0000
     33 C23        9.7536    7.6680   30.0937 C.ar      1 RES1    0.0000
     34 C24        9.2800    6.3854   30.3004 C.ar      1 RES1    0.0000
     35 N3        10.3364    9.4767   28.5743 N.pl3     1 RES1    0.0000
     36 O9        10.4152   10.2497   29.5204 O.2       1 RES1    0.0000
     37 O10       10.6622    9.7927   27.4371 O.2       1 RES1    0.0000
     38 H1         5.7138    0.0103   28.1639 H         1 RES1    0.0000
     39 H2         4.9257    1.0706   26.1276 H         1 RES1    0.0000
     40 H3         6.6156    2.8514   26.4095 H         1 RES1    0.0000
     41 H4         8.9496    1.6470   26.9108 H         1 RES1    0.0000
     42 H5         8.4570    1.6882   29.3230 H         1 RES1    0.0000
     43 H6         6.7823    2.0691   28.9157 H         1 RES1    0.0000
     44 H7         9.3740    0.2265   23.8406 H         1 RES1    0.0000
     45 H8         8.2752   -1.1529   23.8406 H         1 RES1    0.0000
     46 H9         8.7223   -0.3706   25.3757 H         1 RES1    0.0000
     47 H10        6.8202    0.0412   22.2116 H         1 RES1    0.0000
     48 H11        7.8129    1.5029   22.2742 H         1 RES1    0.0000
     49 H12        6.1003    1.5853   22.6815 H         1 RES1    0.0000
     50 H13        5.6835   -4.1691   29.9496 H         1 RES1    0.0000
     51 H14        5.0015   -6.2176   31.1400 H         1 RES1    0.0000
     52 H15        3.8951   -8.0602   29.9182 H         1 RES1    0.0000
     53 H16        3.4859   -7.8440   27.5060 H         1 RES1    0.0000
     54 H17        2.9554   -8.0087   23.7780 H         1 RES1    0.0000
     55 H18        4.2967   -6.9073   23.4647 H         1 RES1    0.0000
     56 H19        2.6599   -6.2793   23.6840 H         1 RES1    0.0000
     57 H20        8.6692    5.4764   27.0674 H         1 RES1    0.0000
     58 H21        9.5028    7.7514   26.6915 H         1 RES1    0.0000
     59 H22       10.0560    8.2764   30.9207 H         1 RES1    0.0000
     60 H23        9.2148    5.9911   31.2967 H         1 RES1    0.0000
     61 H24        6.0851   -1.7603   25.9083 H         1 RES1    0.0000
     62 H25        4.9333   -3.6750   26.5035 H         1 RES1    0.0000
@<TRIPOS>BOND
     1    1    2 1
     2    2    3 1
     3    3    4 1
     4    4    5 1
     5    5   26 1
     6    6    1 1
     7    7    3 1
     8    8    2 1
     9    9    7 1
    10   10    9 1
    11   11    9 1
    12   12    1 1
    13   13   12 1
    14   14   13 1
    15   15   13 2
    16   16   14 1
    17   17   16 ar
    18   18   17 ar
    19   19   18 ar
    20   20   19 ar
    21   21   16 ar
    22   22   21 1
    23   23   22 2
    24   24   22 1
    25   25   24 1
    26   26   27 1
    27   27   28 2
    28   29   27 1
    29   30   29 ar
    30   31   30 ar
    31   32   31 ar
    32   33   32 ar
    33   34   29 ar
    34   35   32 1
    35   36   35 2
    36   37   35 2
    37   38    1 1
    38   39    2 1
    39   40    3 1
    40   41    4 1
    41   42    5 1
    42   43    5 1
    43   44   10 1
    44   45   10 1
    45   46   10 1
    46   47   11 1
    47   48   11 1
    48   49   11 1
    49   50   17 1
    50   51   18 1
    51   52   19 1
    52   53   20 1
    53   54   25 1
    54   55   25 1
    55   56   25 1
    56   57   30 1
    57   58   31 1
    58   59   33 1
    59   60   34 1
    60   61   12 1
    61   62   14 1
    62    4    6 1
    63    8    9 1
    64   20   21 ar
    65   33   34 ar
@<TRIPOS>SUBSTRUCTURE
     1 RES1 1

@<TRIPOS>CRYSIN
   7.5780   10.2940   31.3280  90.0000  90.0000  90.0000  19 1

