# MOL2 file generated by ConQuest
# Please check atom types

@<TRIPOS>MOLECULE
BEKBUO
   114    75     3
SMALL
NO_CHARGES
****
Generated from CSD

@<TRIPOS>ATOM
      1 N1         1.9640   -0.1680    3.0345 N.pl3     1 RES1    0.0000
      2 C1         2.5436    1.2430    3.2009 C.3       1 RES1    0.0000
      3 C2         1.9047    1.8370    4.4460 C.3       1 RES1    0.0000
      4 O1         0.4898    1.9871    4.2069 O.3       1 RES1    0.0000
      5 C3         2.1486    0.9775    5.6625 C.3       1 RES1    0.0000
      6 C4         1.9535   -0.4913    5.4043 C.3       1 RES1    0.0000
      7 C5         2.3434   -1.0224    4.0300 C.3       1 RES1    0.0000
      8 C6         1.1383    1.2366    6.7862 C.3       1 RES1    0.0000
      9 O2         0.0770    0.2463    6.5719 O.3       1 RES1    0.0000
     10 C7         0.5234   -0.7235    5.8097 C.2       1 RES1    0.0000
     11 O3        -0.1790   -1.6830    5.4970 O.2       1 RES1    0.0000
     12 C8         1.0797   -0.4528    2.0160 C.ar      1 RES1    0.0000
     13 C9         0.9945   -1.7459    1.4288 C.ar      1 RES1    0.0000
     14 C10       -0.0324   -2.1012    0.5566 C.ar      1 RES1    0.0000
     15 C11       -0.9359   -1.1494    0.2056 C.ar      1 RES1    0.0000
     16 C12       -0.8283    0.1693    0.6503 C.ar      1 RES1    0.0000
     17 C13        0.1733    0.5183    1.5330 C.ar      1 RES1    0.0000
     18 N2         2.0612   -2.7413    1.5693 N.pl3     1 RES1    0.0000
     19 O4         1.7482   -3.9215    1.4603 O.2       1 RES1    0.0000
     20 O5         3.2126   -2.3604    1.7396 O.2       1 RES1    0.0000
     21 N3        -2.0247   -1.4970   -0.6800 N.pl3     1 RES1    0.0000
     22 O6        -1.9726   -2.5707   -1.2987 O.2       1 RES1    0.0000
     23 O7        -2.9898   -0.7273   -0.7746 O.2       1 RES1    0.0000
     24 H1         3.4820    1.2058    3.3089 H         1 RES1    0.0000
     25 H2         2.3317    1.7703    2.4387 H         1 RES1    0.0000
     26 H3         2.2810    2.6939    4.6000 H         1 RES1    0.0000
     27 H4         0.2940    2.7708    4.5904 H         1 RES1    0.0000
     28 H5         3.0309    1.1289    5.9867 H         1 RES1    0.0000
     29 H6         2.4960   -0.9493    6.0345 H         1 RES1    0.0000
     30 H7         1.9192   -1.8601    3.8923 H         1 RES1    0.0000
     31 H8         3.2911   -1.1289    3.9975 H         1 RES1    0.0000
     32 H9         1.5455    1.1160    7.6411 H         1 RES1    0.0000
     33 H10       -0.0981   -2.9889    0.2200 H         1 RES1    0.0000
     34 H11       -1.4434    0.8210    0.3443 H         1 RES1    0.0000
     35 H12        0.2558    1.4239    1.8170 H         1 RES1    0.0000
     36 N4        -3.2726    1.1455    3.1033 N.pl3     2 RES2    0.0000
     37 C14       -2.9987    2.1910    4.0778 C.3       2 RES2    0.0000
     38 C15       -3.7677    1.9665    5.3708 C.3       2 RES2    0.0000
     39 O8        -5.1794    2.0114    5.0762 O.3       2 RES2    0.0000
     40 C16       -3.4013    0.6517    6.0163 C.3       2 RES2    0.0000
     41 C17       -3.3179   -0.4887    5.0399 C.3       2 RES2    0.0000
     42 C18       -2.8025   -0.1822    3.6398 C.3       2 RES2    0.0000
     43 C19       -4.4710    0.1514    6.9946 C.3       2 RES2    0.0000
     44 O9        -5.3268   -0.7312    6.1942 O.3       2 RES2    0.0000
     45 C20       -4.6914   -1.0994    5.1087 C.2       2 RES2    0.0000
     46 O10       -5.1987   -1.8562    4.2806 O.2       2 RES2    0.0000
     47 C21       -4.1515    1.3469    2.0867 C.ar      2 RES2    0.0000
     48 C22       -4.2470    2.6028    1.4249 C.ar      2 RES2    0.0000
     49 C23       -5.2853    2.9030    0.5461 C.ar      2 RES2    0.0000
     50 C24       -6.1917    1.9306    0.2639 C.ar      2 RES2    0.0000
     51 C25       -6.0754    0.6427    0.7861 C.ar      2 RES2    0.0000
     52 C26       -5.0617    0.3476    1.6745 C.ar      2 RES2    0.0000
     53 N5        -3.1796    3.6060    1.4909 N.pl3     2 RES2    0.0000
     54 O11       -3.4969    4.7771    1.3159 O.2       2 RES2    0.0000
     55 O12       -2.0265    3.2378    1.6698 O.2       2 RES2    0.0000
     56 N6        -7.2915    2.2244   -0.6274 N.pl3     2 RES2    0.0000
     57 O13       -7.2493    3.2583   -1.3092 O.2       2 RES2    0.0000
     58 O14       -8.2564    1.4483   -0.6627 O.2       2 RES2    0.0000
     59 H13       -2.0677    2.1936    4.2748 H         2 RES2    0.0000
     60 H14       -3.2546    3.0274    3.7106 H         2 RES2    0.0000
     61 H15       -3.5575    2.6682    5.9771 H         2 RES2    0.0000
     62 H16       -5.1374    2.8991    4.7626 H         2 RES2    0.0000
     63 H17       -2.5723    0.7440    6.4744 H         2 RES2    0.0000
     64 H18       -2.7198   -1.1289    5.4129 H         2 RES2    0.0000
     65 H19       -3.1010   -0.8723    3.0507 H         2 RES2    0.0000
     66 H20       -1.8535   -0.1796    3.6628 H         2 RES2    0.0000
     67 H21       -4.0669   -0.3335    7.7081 H         2 RES2    0.0000
     68 H22       -4.9734    0.8723    7.3447 H         2 RES2    0.0000
     69 H23       -5.3561    3.7714    0.1530 H         2 RES2    0.0000
     70 H24       -6.6960   -0.0385    0.5260 H         2 RES2    0.0000
     71 H25       -4.9695   -0.5388    2.0083 H         2 RES2    0.0000
     72 N7         1.9676   -0.1231    3.0220 Du        3 SUP3    0.0000
     73 C27        2.3298   -1.3072    3.9296 Du        3 SUP3    0.0000
     74 C28        1.6621   -1.0519    5.2713 Du        3 SUP3    0.0000
     75 O15        0.2316   -1.0852    5.0848 Du        3 SUP3    0.0000
     76 C29        2.0891    0.2681    5.8652 Du        3 SUP3    0.0000
     77 C30        2.1124    1.3918    4.8658 Du        3 SUP3    0.0000
     78 C31        2.5184    1.0557    3.4361 Du        3 SUP3    0.0000
     79 C32        1.1015    0.7979    6.9114 Du        3 SUP3    0.0000
     80 O16        0.1970    1.6766    6.1626 Du        3 SUP3    0.0000
     81 C33        0.7538    2.0191    5.0265 Du        3 SUP3    0.0000
     82 O17        0.1936    2.7683    4.2260 Du        3 SUP3    0.0000
     83 N8        -3.2542    0.9493    3.0517 Du        3 SUP3    0.0000
     84 C34       -2.7614   -0.3733    3.4093 Du        3 SUP3    0.0000
     85 C35       -3.4982   -0.9390    4.6134 Du        3 SUP3    0.0000
     86 O18       -4.8936   -1.0788    4.2710 Du        3 SUP3    0.0000
     87 C36       -3.3355   -0.0616    5.8298 Du        3 SUP3    0.0000
     88 C37       -3.4935    1.4047    5.5334 Du        3 SUP3    0.0000
     89 C38       -2.9964    1.9088    4.1849 Du        3 SUP3    0.0000
     90 C39       -4.4302   -0.2899    6.8799 Du        3 SUP3    0.0000
     91 O19       -5.4611    0.7068    6.5700 Du        3 SUP3    0.0000
     92 C40       -4.9477    1.6587    5.8279 Du        3 SUP3    0.0000
     93 O20       -5.6147    2.6208    5.4482 Du        3 SUP3    0.0000
     94 H26        0.7894    2.1166    6.7230 Du        3 SUP3    0.0000
     95 H27        2.0092   -2.1166    3.5480 Du        3 SUP3    0.0000
     96 H28        3.2703   -1.3598    4.0357 Du        3 SUP3    0.0000
     97 H29        1.9024   -1.7446    5.8719 Du        3 SUP3    0.0000
     98 H30       -0.3686   -1.6805    4.9921 Du        3 SUP3    0.0000
     99 H31        2.9501    0.1796    6.2544 Du        3 SUP3    0.0000
    100 H32        2.7429    2.0268    5.1833 Du        3 SUP3    0.0000
    101 H33        3.4676    0.9878    3.3950 Du        3 SUP3    0.0000
    102 H34        2.2217    1.7574    2.8594 Du        3 SUP3    0.0000
    103 H35        0.6234    0.0770    7.3064 Du        3 SUP3    0.0000
    104 H36        1.5659    1.2828    7.5837 Du        3 SUP3    0.0000
    105 H37       -2.8819   -0.9621    2.6682 Du        3 SUP3    0.0000
    106 H38       -1.8383   -0.3079    3.6149 Du        3 SUP3    0.0000
    107 H39       -3.1496   -1.7959    4.8104 Du        3 SUP3    0.0000
    108 H40       -4.9552   -1.9883    4.4278 Du        3 SUP3    0.0000
    109 H41       -2.4911   -0.2181    6.2257 Du        3 SUP3    0.0000
    110 H42       -2.9952    1.8729    6.1971 Du        3 SUP3    0.0000
    111 H43       -2.0629    2.0525    4.2461 Du        3 SUP3    0.0000
    112 H44       -3.4381    2.7324    3.9879 Du        3 SUP3    0.0000
    113 H45       -4.7792   -1.1673    6.8091 Du        3 SUP3    0.0000
    114 H46       -4.0929   -0.1539    7.7559 Du        3 SUP3    0.0000
@<TRIPOS>BOND
     1    1    2 1
     2    2    3 1
     3    3    4 1
     4    4   27 1
     5    5    3 1
     6    6    5 1
     7    7    1 1
     8    8    5 1
     9    9    8 1
    10   10    6 1
    11   11   10 2
    12   12    1 1
    13   13   12 ar
    14   14   13 ar
    15   15   14 ar
    16   16   15 ar
    17   17   12 ar
    18   18   13 1
    19   19   18 2
    20   20   18 2
    21   21   15 1
    22   22   21 2
    23   23   21 2
    24   24    2 1
    25   25    2 1
    26   26    3 1
    27   28    5 1
    28   29    6 1
    29   30    7 1
    30   31    7 1
    31   32    8 1
    32   33   14 1
    33   34   16 1
    34   35   17 1
    35   36   37 1
    36   37   38 1
    37   38   39 1
    38   39   62 1
    39   40   38 1
    40   41   40 1
    41   42   36 1
    42   43   40 1
    43   44   43 1
    44   45   41 1
    45   46   45 2
    46   47   36 1
    47   48   47 ar
    48   49   48 ar
    49   50   49 ar
    50   51   50 ar
    51   52   47 ar
    52   53   48 1
    53   54   53 2
    54   55   53 2
    55   56   50 1
    56   57   56 2
    57   58   56 2
    58   59   37 1
    59   60   37 1
    60   61   38 1
    61   63   40 1
    62   64   41 1
    63   65   42 1
    64   66   42 1
    65   67   43 1
    66   68   43 1
    67   69   49 1
    68   70   51 1
    69   71   52 1
    70    6    7 1
    71    9   10 1
    72   16   17 ar
    73   41   42 1
    74   44   45 1
    75   51   52 ar
@<TRIPOS>SUBSTRUCTURE
     1 RES1 1
     2 RES2 36
     3 SUP3 72

@<TRIPOS>CRYSIN
  10.8270   12.8280   10.8890  90.0000 118.5670  90.0000   4 1

