# MOL2 file generated by ConQuest
# Please check atom types

@<TRIPOS>MOLECULE
BEKDAW
    33    34     1
SMALL
NO_CHARGES
****
Generated from CSD

@<TRIPOS>ATOM
      1 O1         6.5186    5.8926    3.9424 O.2       1 RES1    0.0000
      2 O2         5.4776    5.0354    5.7587 O.3       1 RES1    0.0000
      3 O3        -0.3643    4.7195   -1.7383 O.2       1 RES1    0.0000
      4 O4        -0.8832    2.9686   -0.6345 O.2       1 RES1    0.0000
      5 N1         3.4132    2.5647    5.0752 N.1       1 RES1    0.0000
      6 N2         4.9286    1.0193    2.0014 N.1       1 RES1    0.0000
      7 N3         8.1828    3.8623    2.0364 N.1       1 RES1    0.0000
      8 N4        -0.1542    3.9210   -0.8569 N.pl3     1 RES1    0.0000
      9 C1         4.9437    4.1382    3.6757 C.3       1 RES1    0.0000
     10 C2         5.6690    3.4360    2.4893 C.3       1 RES1    0.0000
     11 C3         4.6262    4.5234    2.2564 C.3       1 RES1    0.0000
     12 C4         4.0626    3.2763    4.4605 C.1       1 RES1    0.0000
     13 C5         5.7526    5.1434    4.4721 C.2       1 RES1    0.0000
     14 C6         6.2631    5.8926    6.6925 C.3       1 RES1    0.0000
     15 C7         5.3723    6.9354    7.2164 C.3       1 RES1    0.0000
     16 C8         5.2684    2.0773    2.2075 C.1       1 RES1    0.0000
     17 C9         7.0781    3.6967    2.2494 C.1       1 RES1    0.0000
     18 C10        3.3300    4.3238    1.5020 C.ar      1 RES1    0.0000
     19 C11        3.1182    5.1470    0.4192 C.ar      1 RES1    0.0000
     20 C12        1.9651    5.0354   -0.3574 C.ar      1 RES1    0.0000
     21 C13        1.0504    4.0596   -0.0256 C.ar      1 RES1    0.0000
     22 C14        1.2282    3.2481    1.0467 C.ar      1 RES1    0.0000
     23 C15        2.3863    3.3585    1.8140 C.ar      1 RES1    0.0000
     24 H1         7.0968    6.2003    6.2523 H         1 RES1    0.0000
     25 H2         6.6017    5.3548    7.4632 H         1 RES1    0.0000
     26 H3         4.5931    6.5291    7.6844 H         1 RES1    0.0000
     27 H4         6.0333    7.2924    8.0687 H         1 RES1    0.0000
     28 H5         5.0515    7.5860    6.3338 H         1 RES1    0.0000
     29 H6         3.7089    5.7423    0.1048 H         1 RES1    0.0000
     30 H7         1.8399    5.5192   -1.1294 H         1 RES1    0.0000
     31 H8         0.5560    2.6657    1.3040 H         1 RES1    0.0000
     32 H9         2.5155    2.7948    2.5266 H         1 RES1    0.0000
     33 H10        5.0875    5.4018    2.0375 H         1 RES1    0.0000
@<TRIPOS>BOND
     1    1   13 2
     2    2   13 1
     3    3    8 2
     4    4    8 2
     5    5   12 3
     6    6   16 3
     7    7   17 3
     8    8   21 1
     9    9   10 1
    10   10   11 1
    11   11    9 1
    12   12    9 1
    13   13    9 1
    14   14    2 1
    15   15   14 1
    16   16   10 1
    17   17   10 1
    18   18   11 1
    19   19   18 ar
    20   20   19 ar
    21   21   20 ar
    22   22   21 ar
    23   23   18 ar
    24   24   14 1
    25   25   14 1
    26   26   15 1
    27   27   15 1
    28   28   15 1
    29   29   19 1
    30   30   20 1
    31   31   22 1
    32   32   23 1
    33   33   11 1
    34   22   23 ar
@<TRIPOS>SUBSTRUCTURE
     1 RES1 1

@<TRIPOS>CRYSIN
  10.6940   11.7430   12.6580  90.0000 113.1000  90.0000  14 1

