# MOL2 file generated by ConQuest
# Please check atom types

@<TRIPOS>MOLECULE
BEKKEK
    25    26     1
SMALL
NO_CHARGES
****
Generated from CSD

@<TRIPOS>ATOM
      1 C1         1.8215    3.3151    2.1509 C.3       1 RES1    0.0000
      2 H1         2.3422    4.0675    1.7707 H         1 RES1    0.0000
      3 H2         2.0536    3.2355    3.1101 H         1 RES1    0.0000
      4 C2         2.6147    0.9310    2.1183 C.2       1 RES1    0.0000
      5 C3         2.3090   -0.4284    1.8818 C.2       1 RES1    0.0000
      6 C4         1.4830   -1.0169    0.8705 C.1       1 RES1    0.0000
      7 C5        -0.0438    4.8376    1.5729 C.2       1 RES1    0.0000
      8 C6        -1.2544    5.2113    0.9256 C.2       1 RES1    0.0000
      9 C7        -2.3817    4.4091    0.5433 C.1       1 RES1    0.0000
     10 N1         2.1743    2.0855    1.4638 N.pl3     1 RES1    0.0000
     11 N2         0.4007    3.5917    2.0163 N.pl3     1 RES1    0.0000
     12 N3         2.2435    2.1154    0.0826 N.pl3     1 RES1    0.0000
     13 N4         3.3622    1.0282    3.1815 N.2       1 RES1    0.0000
     14 N5         2.8738   -1.1576    2.8084 N.2       1 RES1    0.0000
     15 N6         0.7931   -1.4650    0.0928 N.1       1 RES1    0.0000
     16 N7        -0.4472    2.8949    2.8787 N.pl3     1 RES1    0.0000
     17 N8         0.7128    5.8888    1.6738 N.2       1 RES1    0.0000
     18 N9        -1.2259    6.4861    0.6606 N.2       1 RES1    0.0000
     19 N10       -3.2592    3.7551    0.2365 N.1       1 RES1    0.0000
     20 O1         3.5125   -0.2695    3.6218 O.3       1 RES1    0.0000
     21 O2         1.8166    3.1265   -0.4367 O.2       1 RES1    0.0000
     22 O3         0.0388    1.9246    3.4231 O.2       1 RES1    0.0000
     23 O4        -1.5850    3.3155    3.0010 O.2       1 RES1    0.0000
     24 O5         2.7141    1.1367   -0.4669 O.2       1 RES1    0.0000
     25 O6        -0.0033    6.9131    1.1040 O.3       1 RES1    0.0000
@<TRIPOS>BOND
     1    1    2 1
     2    3    1 1
     3    4    5 1
     4    5    6 1
     5    6   15 3
     6    7    8 1
     7    8    9 1
     8    9   19 3
     9   10    1 1
    10   11    1 1
    11   12   10 1
    12   13    4 2
    13   14    5 2
    14   16   11 1
    15   17    7 2
    16   18    8 2
    17   20   13 1
    18   21   12 2
    19   22   16 2
    20   23   16 2
    21   24   12 2
    22   25   17 1
    23    4   10 1
    24    7   11 1
    25   14   20 1
    26   18   25 1
@<TRIPOS>SUBSTRUCTURE
     1 RES1 1

@<TRIPOS>CRYSIN
   7.8834   15.6685   10.4393  90.0000 102.4510  90.0000  14 1

