# MOL2 file generated by ConQuest
# Please check atom types

@<TRIPOS>MOLECULE
BEKKIO
    33    36     1
SMALL
NO_CHARGES
****
Generated from CSD

@<TRIPOS>ATOM
      1 C1         7.8695    7.5232   12.1580 C.3       1 RES1    0.0000
      2 H1         7.7128    7.0177   12.9940 H         1 RES1    0.0000
      3 H2         8.6017    8.1677   12.3249 H         1 RES1    0.0000
      4 C2         6.6415    9.6140   11.4890 C.2       1 RES1    0.0000
      5 C3         6.2011   10.2426   10.2961 C.2       1 RES1    0.0000
      6 C4         5.5857    9.6372    9.1331 C.2       1 RES1    0.0000
      7 C5         8.2871    5.2091   11.2664 C.2       1 RES1    0.0000
      8 C6         7.8395    4.2083   10.3504 C.2       1 RES1    0.0000
      9 C7         7.3256    4.3395    8.9988 C.2       1 RES1    0.0000
     10 N1         6.6670    8.2534   11.8159 N.pl3     1 RES1    0.0000
     11 N2         8.2813    6.5970   11.1129 N.pl3     1 RES1    0.0000
     12 N3         5.4433    7.6389   12.0311 N.pl3     1 RES1    0.0000
     13 N4         7.1143   10.5035   12.3054 N.2       1 RES1    0.0000
     14 N5         6.4055   11.5161   10.3898 N.2       1 RES1    0.0000
     15 N6         5.2551    8.3543    9.0871 N.2       1 RES1    0.0000
     16 N7         4.6741    8.2856    7.9022 N.pl3     1 RES1    0.0000
     17 H3         4.3357    7.5596    7.5589 H         1 RES1    0.0000
     18 N8         4.6368    9.4223    7.2291 N.2       1 RES1    0.0000
     19 N9         5.2272   10.3072    8.0150 N.2       1 RES1    0.0000
     20 N10        9.0321    7.1209   10.0520 N.pl3     1 RES1    0.0000
     21 N11        8.6475    4.6561   12.3901 N.2       1 RES1    0.0000
     22 N12        7.9519    3.0518   10.9288 N.2       1 RES1    0.0000
     23 N13        7.3041    5.4873    8.3311 N.2       1 RES1    0.0000
     24 N14        6.7747    5.1105    7.1857 N.pl3     1 RES1    0.0000
     25 H4         6.6637    5.6549    6.5140 H         1 RES1    0.0000
     26 N15        6.4670    3.8249    7.1246 N.2       1 RES1    0.0000
     27 N16        6.8113    3.3144    8.2860 N.2       1 RES1    0.0000
     28 O1         4.4527    8.3374   11.9357 O.2       1 RES1    0.0000
     29 O2         5.4774    6.4458   12.2655 O.2       1 RES1    0.0000
     30 O3         6.9879   11.7001   11.6358 O.3       1 RES1    0.0000
     31 O4         9.7239    6.3281    9.4315 O.2       1 RES1    0.0000
     32 O5         8.8974    8.3128    9.8521 O.2       1 RES1    0.0000
     33 O6         8.4276    3.3107   12.1966 O.3       1 RES1    0.0000
@<TRIPOS>BOND
     1    1    2 1
     2    3    1 1
     3    4    5 1
     4    5    6 1
     5    6   15 2
     6    7    8 1
     7    8    9 1
     8    9   23 2
     9   10    1 1
    10   11    1 1
    11   12   10 1
    12   13    4 2
    13   14    5 2
    14   15   16 1
    15   16   17 1
    16   18   16 1
    17   19    6 1
    18   20   11 1
    19   21    7 2
    20   22    8 2
    21   23   24 1
    22   24   25 1
    23   26   24 1
    24   27    9 1
    25   28   12 2
    26   29   12 2
    27   30   13 1
    28   31   20 2
    29   32   20 2
    30   33   21 1
    31    4   10 1
    32    7   11 1
    33   14   30 1
    34   18   19 2
    35   22   33 1
    36   26   27 2
@<TRIPOS>SUBSTRUCTURE
     1 RES1 1

@<TRIPOS>CRYSIN
   6.7001    8.2569   13.7630  81.5970  83.5720  76.4440   2 1

