# MOL2 file generated by ConQuest
# Please check atom types

@<TRIPOS>MOLECULE
BEKSOC
    48    38     2
SMALL
NO_CHARGES
****
Generated from CSD

@<TRIPOS>ATOM
      1 O1        12.7508   -0.9999   10.6493 O.3       1 RES1    0.0000
      2 O2        11.0453   -0.5129    7.6914 O.3       1 RES1    0.0000
      3 O3         9.4943   -0.5227   13.1401 O.2       1 RES1    0.0000
      4 O4         8.8876    1.6020   13.7150 O.3       1 RES1    0.0000
      5 N1        12.5311   -1.3309    9.2775 N.2       1 RES1    0.0000
      6 N2        10.8837    1.2622   12.8626 N.am      1 RES1    0.0000
      7 H1        10.9446    2.2300   12.9055 H         1 RES1    0.0000
      8 C1        11.5514   -0.5236    8.9278 C.2       1 RES1    0.0000
      9 C2        11.1204    0.3184    9.9724 C.2       1 RES1    0.0000
     10 H2        10.4371    0.9776    9.9408 H         1 RES1    0.0000
     11 C3        11.8775   -0.0107   11.0148 C.2       1 RES1    0.0000
     12 C4        12.0079    0.4549   12.4249 C.3       1 RES1    0.0000
     13 H3        12.0873   -0.3336   13.0160 H         1 RES1    0.0000
     14 H4        12.8387    0.9857   12.5129 H         1 RES1    0.0000
     15 C5        11.5018   -1.6324    6.8002 C.3       1 RES1    0.0000
     16 H5        11.5287   -2.5110    7.2785 H         1 RES1    0.0000
     17 C6        12.8543   -1.2087    6.3128 C.3       1 RES1    0.0000
     18 H6        12.8047   -0.2926    5.9676 H         1 RES1    0.0000
     19 H7        13.1477   -1.8117    5.5976 H         1 RES1    0.0000
     20 H8        13.4951   -1.2443    7.0529 H         1 RES1    0.0000
     21 C7        10.4640   -1.6234    5.6450 C.3       1 RES1    0.0000
     22 H9        10.3917   -0.7190    5.2773 H         1 RES1    0.0000
     23 H10        9.5922   -1.9107    5.9857 H         1 RES1    0.0000
     24 H11       10.7561   -2.2398    4.9388 H         1 RES1    0.0000
     25 C8         9.7353    0.6672   13.2236 C.2       1 RES1    0.0000
     26 C9         7.4798    1.2524   14.0358 C.3       1 RES1    0.0000
     27 C10        7.4146    0.1659   15.0804 C.3       1 RES1    0.0000
     28 H12        7.9434    0.4317   15.8611 H         1 RES1    0.0000
     29 H13        7.7775   -0.6654   14.7082 H         1 RES1    0.0000
     30 H14        6.4831    0.0259   15.3489 H         1 RES1    0.0000
     31 C11        6.9567    2.5654   14.5999 C.3       1 RES1    0.0000
     32 H15        7.0998    3.2817   13.9478 H         1 RES1    0.0000
     33 H16        7.4344    2.7777   15.4302 H         1 RES1    0.0000
     34 H17        5.9983    2.4807   14.7894 H         1 RES1    0.0000
     35 C12        6.7582    0.8742   12.7836 C.3       1 RES1    0.0000
     36 H18        7.0034   -0.0392   12.5287 H         1 RES1    0.0000
     37 H19        7.0077    1.4923   12.0662 H         1 RES1    0.0000
     38 H20        5.7913    0.9223   12.9371 H         1 RES1    0.0000
     39 C13       11.9370   -1.0615    6.5633 Du        2 SUP2    0.0000
     40 H21       12.8997   -1.1409    6.8227 Du        2 SUP2    0.0000
     41 C14       11.7215   -0.3479    5.2005 Du        2 SUP2    0.0000
     42 H22       10.8525   -0.6048    4.8305 Du        2 SUP2    0.0000
     43 H23       12.4332   -0.6075    4.5801 Du        2 SUP2    0.0000
     44 H24       11.7442    0.6244    5.3337 Du        2 SUP2    0.0000
     45 C15       11.2707   -2.3281    6.4482 Du        2 SUP2    0.0000
     46 H25       11.3926   -2.8383    7.2762 Du        2 SUP2    0.0000
     47 H26       11.6492   -2.8303    5.6969 Du        2 SUP2    0.0000
     48 H27       10.3138   -2.1818    6.2948 Du        2 SUP2    0.0000
@<TRIPOS>BOND
     1    1    5 1
     2    2    8 1
     3    3   25 2
     4    4   25 1
     5    5    8 2
     6    6    7 1
     7    8    9 1
     8    9   10 1
     9   11    1 1
    10   12    6 1
    11   13   12 1
    12   14   12 1
    13   15    2 1
    14   16   15 1
    15   17   15 1
    16   18   17 1
    17   19   17 1
    18   20   17 1
    19   21   15 1
    20   22   21 1
    21   23   21 1
    22   24   21 1
    23   25    6 1
    24   26    4 1
    25   27   26 1
    26   28   27 1
    27   29   27 1
    28   30   27 1
    29   31   26 1
    30   32   31 1
    31   33   31 1
    32   34   31 1
    33   35   26 1
    34   36   35 1
    35   37   35 1
    36   38   35 1
    37    9   11 2
    38   11   12 1
@<TRIPOS>SUBSTRUCTURE
     1 RES1 1
     2 SUP2 39

@<TRIPOS>CRYSIN
  14.1770    8.9200   22.5620  90.0000  90.0000  90.0000  60 1

