# MOL2 file generated by ConQuest
# Please check atom types

@<TRIPOS>MOLECULE
BEKVOC
    31    33     1
SMALL
NO_CHARGES
****
Generated from CSD

@<TRIPOS>ATOM
      1 C1        -0.3363    8.4353   11.6644 C.ar      1 RES1    0.0000
      2 C2         0.5514    8.7627   10.6356 C.ar      1 RES1    0.0000
      3 C3         1.6203    7.9135   10.3399 C.ar      1 RES1    0.0000
      4 C4         1.8210    6.7573   11.0618 C.ar      1 RES1    0.0000
      5 C5         0.9524    6.4266   12.0937 C.ar      1 RES1    0.0000
      6 C6         0.9264    5.3020   13.0302 C.ar      1 RES1    0.0000
      7 C7         1.7940    4.2190   13.1908 C.ar      1 RES1    0.0000
      8 C8         1.5381    3.3059   14.1957 C.ar      1 RES1    0.0000
      9 C9         0.4455    3.4580   15.0289 C.ar      1 RES1    0.0000
     10 C10       -0.4171    4.5194   14.8794 C.ar      1 RES1    0.0000
     11 C11       -0.1728    5.4568   13.8745 C.ar      1 RES1    0.0000
     12 C12       -0.9138    6.7198   13.5406 C.3       1 RES1    0.0000
     13 C13       -0.1365    7.2679   12.3624 C.ar      1 RES1    0.0000
     14 C14       -0.6759   10.7444    9.7277 C.2       1 RES1    0.0000
     15 C15       -0.5923   11.8907    8.7849 C.3       1 RES1    0.0000
     16 N1         0.4280    9.9782    9.8995 N.am      1 RES1    0.0000
     17 O1         1.4758   10.2628    9.0170 O.3       1 RES1    0.0000
     18 O2        -1.7211   10.4927   10.3288 O.2       1 RES1    0.0000
     19 H1        -1.0517    9.0256   11.9887 H         1 RES1    0.0000
     20 H2         2.3017    8.1362    9.7627 H         1 RES1    0.0000
     21 H3         2.6616    6.2125   10.7962 H         1 RES1    0.0000
     22 H4         2.5778    4.0648   12.6565 H         1 RES1    0.0000
     23 H5         2.0462    2.4969   14.2943 H         1 RES1    0.0000
     24 H6         0.2523    2.8658   15.6617 H         1 RES1    0.0000
     25 H7        -1.1397    4.6709   15.4709 H         1 RES1    0.0000
     26 H8        -0.8881    7.3061   14.2466 H         1 RES1    0.0000
     27 H9        -1.9086    6.5419   13.3403 H         1 RES1    0.0000
     28 H10        2.0706   10.3827    9.4765 H         1 RES1    0.0000
     29 H11       -1.4600   12.3459    8.7610 H         1 RES1    0.0000
     30 H12        0.1101   12.4711    8.8882 H         1 RES1    0.0000
     31 H13       -0.2665   11.6805    7.8547 H         1 RES1    0.0000
@<TRIPOS>BOND
     1    1    2 ar
     2    2    3 ar
     3    3    4 ar
     4    4    5 ar
     5    5    6 1
     6    6    7 ar
     7    7    8 ar
     8    8    9 ar
     9    9   10 ar
    10   10   11 ar
    11   11    6 ar
    12   12   11 1
    13   13    1 ar
    14   14   15 1
    15   15   29 1
    16   16    2 1
    17   17   16 1
    18   18   14 2
    19   19    1 1
    20   20    3 1
    21   21    4 1
    22   22    7 1
    23   23    8 1
    24   24    9 1
    25   25   10 1
    26   26   12 1
    27   27   12 1
    28   28   17 1
    29   30   15 1
    30   31   15 1
    31    5   13 ar
    32   12   13 1
    33   14   16 1
@<TRIPOS>SUBSTRUCTURE
     1 RES1 1

@<TRIPOS>CRYSIN
   5.5350    6.5880   15.9820  90.0000  95.8000  90.0000   4 1

