# MOL2 file generated by ConQuest
# Please check atom types

@<TRIPOS>MOLECULE
BELBUP
    14    15     1
SMALL
NO_CHARGES
****
Generated from CSD

@<TRIPOS>ATOM
      1 C1         7.7049    0.9158    2.2143 C.ar      1 RES1    0.0000
      2 C2         6.7988    1.6152    1.4284 C.ar      1 RES1    0.0000
      3 C3         5.7163    2.2430    2.0511 C.ar      1 RES1    0.0000
      4 H1         5.0741    2.7159    1.5727 H         1 RES1    0.0000
      5 C4         5.6648    2.1136    3.4193 C.ar      1 RES1    0.0000
      6 H2         4.9627    2.5034    3.8883 H         1 RES1    0.0000
      7 C5         6.6515    1.4055    4.1209 C.ar      1 RES1    0.0000
      8 H3         6.5776    1.3604    5.0469 H         1 RES1    0.0000
      9 O1         9.5846   -0.4821    1.5354 O.3       1 RES1    0.0000
     10 H4        10.2584   -0.0260    2.0354 H         1 RES1    0.0000
     11 N1         8.5878    0.4118    1.3222 N.3       1 RES1    0.0000
     12 N2         8.2606    0.7656    0.0689 N.2       1 RES1    0.0000
     13 N3         7.1800    1.5025    0.1104 N.2       1 RES1    0.0000
     14 N4         7.6886    0.7928    3.5483 N.ar      1 RES1    0.0000
@<TRIPOS>BOND
     1    1    2 ar
     2    2    3 ar
     3    3    4 1
     4    5    3 ar
     5    6    5 1
     6    7    5 ar
     7    8    7 1
     8    9   10 1
     9   11    1 1
    10   12   11 1
    11   13    2 1
    12   14    1 ar
    13    7   14 ar
    14    9   11 1
    15   12   13 2
@<TRIPOS>SUBSTRUCTURE
     1 RES1 1

@<TRIPOS>CRYSIN
  22.0910    3.9940   14.2940  90.0000 114.8300  90.0000  15 1

