# MOL2 file generated by ConQuest
# Please check atom types

@<TRIPOS>MOLECULE
BELHIJ
    45    46     1
SMALL
NO_CHARGES
****
Generated from CSD

@<TRIPOS>ATOM
      1 O1         3.3147    5.4599   14.4671 O.2       1 RES1    0.0000
      2 O2         3.0595    3.5117   13.3837 O.3       1 RES1    0.0000
      3 O3         8.9900    7.5845   12.3623 O.2       1 RES1    0.0000
      4 O4         7.4341    8.0083   13.9286 O.3       1 RES1    0.0000
      5 O5         2.6067   10.8193    9.7636 O.2       1 RES1    0.0000
      6 O6         1.5791   11.0286   11.6565 O.2       1 RES1    0.0000
      7 O7         4.8460    7.8210   15.5241 O.2       1 RES1    0.0000
      8 O8         2.7435    8.3195   15.3793 O.2       1 RES1    0.0000
      9 N1         6.4564    4.4146   11.0839 N.3       1 RES1    0.0000
     10 N2         2.4144   10.5020   10.9306 N.pl3     1 RES1    0.0000
     11 N3         3.8394    8.0788   14.8808 N.pl3     1 RES1    0.0000
     12 C1         5.2447    4.1679   11.7064 C.2       1 RES1    0.0000
     13 C2         4.8559    4.9403   12.7577 C.2       1 RES1    0.0000
     14 C3         5.6265    6.2042   13.1356 C.3       1 RES1    0.0000
     15 C4         7.0165    6.2194   12.5148 C.2       1 RES1    0.0000
     16 C5         7.3657    5.3386   11.5260 C.2       1 RES1    0.0000
     17 C6         4.8159    7.4165   12.6426 C.ar      1 RES1    0.0000
     18 C7         4.8670    7.7125   11.2745 C.ar      1 RES1    0.0000
     19 C8         4.1108    8.7271   10.6935 C.ar      1 RES1    0.0000
     20 C9         3.2415    9.4315   11.5061 C.ar      1 RES1    0.0000
     21 C10        3.1174    9.1721   12.8600 C.ar      1 RES1    0.0000
     22 C11        3.9378    8.1909   13.4126 C.ar      1 RES1    0.0000
     23 C12        4.5132    3.0236   11.0614 C.3       1 RES1    0.0000
     24 C13        3.6789    4.6849   13.6030 C.2       1 RES1    0.0000
     25 C14        1.9092    3.2516   14.2267 C.3       1 RES1    0.0000
     26 C15        7.9278    7.2929   12.8984 C.2       1 RES1    0.0000
     27 C16        8.2578    9.1052   14.3475 C.3       1 RES1    0.0000
     28 C17        8.6991    5.2667   10.8341 C.3       1 RES1    0.0000
     29 H1         6.7564    3.9632   10.3426 H         1 RES1    0.0000
     30 H2         5.3485    7.2270   10.8256 H         1 RES1    0.0000
     31 H3         2.5882    9.5582   13.3544 H         1 RES1    0.0000
     32 H4         4.8616    2.3414   11.1381 H         1 RES1    0.0000
     33 H5         1.7070    2.4326   13.9511 H         1 RES1    0.0000
     34 H6         2.1481    3.3246   15.1871 H         1 RES1    0.0000
     35 H7         8.2982    9.7610   13.6954 H         1 RES1    0.0000
     36 H8         9.2618    5.3214   11.4791 H         1 RES1    0.0000
     37 H9         8.7692    4.5308   10.3568 H         1 RES1    0.0000
     38 H10        5.6817    6.2032   13.9227 H         1 RES1    0.0000
     39 H11        4.2187    8.8690    9.9732 H         1 RES1    0.0000
     40 H12        3.8065    3.0408   11.1523 H         1 RES1    0.0000
     41 H13        4.5852    2.8685   10.3426 H         1 RES1    0.0000
     42 H14        1.2946    3.7300   14.0505 H         1 RES1    0.0000
     43 H15        7.8903    9.4062   15.0308 H         1 RES1    0.0000
     44 H16        8.9579    8.9095   14.5762 H         1 RES1    0.0000
     45 H17        8.7624    5.9194   10.3426 H         1 RES1    0.0000
@<TRIPOS>BOND
     1    1   24 2
     2    2   24 1
     3    3   26 2
     4    4   26 1
     5    5   10 2
     6    6   10 2
     7    7   11 2
     8    8   11 2
     9    9   12 1
    10   10   20 1
    11   11   22 1
    12   12   13 2
    13   13   14 1
    14   14   15 1
    15   15   16 2
    16   16    9 1
    17   17   14 1
    18   18   17 ar
    19   19   18 ar
    20   20   19 ar
    21   21   20 ar
    22   22   17 ar
    23   23   12 1
    24   24   13 1
    25   25    2 1
    26   26   15 1
    27   27    4 1
    28   28   16 1
    29   29    9 1
    30   30   18 1
    31   31   21 1
    32   32   23 1
    33   33   25 1
    34   34   25 1
    35   35   27 1
    36   36   28 1
    37   37   28 1
    38   38   14 1
    39   39   19 1
    40   40   23 1
    41   41   23 1
    42   42   25 1
    43   43   27 1
    44   44   27 1
    45   45   28 1
    46   21   22 ar
@<TRIPOS>SUBSTRUCTURE
     1 RES1 1

@<TRIPOS>CRYSIN
  11.8000   10.1360   15.0500  90.0000 109.2700  90.0000  14 1

