# MOL2 file generated by ConQuest
# Please check atom types

@<TRIPOS>MOLECULE
BELHAB01
    43    44     1
SMALL
NO_CHARGES
****
Generated from CSD

@<TRIPOS>ATOM
      1 O1        11.3460    7.3159    5.1192 O.2       1 RES1    0.0000
      2 O2        11.2439    5.2252    5.8786 O.3       1 RES1    0.0000
      3 O3        11.9952    3.8356   10.3016 O.2       1 RES1    0.0000
      4 O4        12.8480    5.2445   11.7999 O.3       1 RES1    0.0000
      5 O5         8.0694    1.9853    7.6368 O.2       1 RES1    0.0000
      6 O6         6.1190    2.6286    8.2230 O.2       1 RES1    0.0000
      7 N1        11.9719    8.4117    9.2051 N.3       1 RES1    0.0000
      8 N2         7.3030    2.8266    8.0950 N.pl3     1 RES1    0.0000
      9 C1        11.7685    8.1564    7.8603 C.2       1 RES1    0.0000
     10 C2        11.4906    6.8974    7.4766 C.2       1 RES1    0.0000
     11 C3        11.2545    5.8076    8.5041 C.3       1 RES1    0.0000
     12 C4        11.9504    6.1407    9.8113 C.2       1 RES1    0.0000
     13 C5        12.2119    7.4249   10.1402 C.2       1 RES1    0.0000
     14 C6        11.9278    9.3509    6.9748 C.3       1 RES1    0.0000
     15 C7        11.3564    6.5569    6.0513 C.2       1 RES1    0.0000
     16 C8        12.7776    7.9517   11.4236 C.3       1 RES1    0.0000
     17 C9        12.2515    4.9752   10.6406 C.2       1 RES1    0.0000
     18 C10        9.7652    5.5450    8.7009 C.ar      1 RES1    0.0000
     19 C11        9.2124    4.3305    8.3298 C.ar      1 RES1    0.0000
     20 C12        7.8564    4.1250    8.4816 C.ar      1 RES1    0.0000
     21 C13        7.0159    5.0887    8.9932 C.ar      1 RES1    0.0000
     22 C14        7.5682    6.2972    9.3700 C.ar      1 RES1    0.0000
     23 C15        8.9177    6.5176    9.2224 C.ar      1 RES1    0.0000
     24 C16       11.0754    4.7689    4.5219 C.3       1 RES1    0.0000
     25 C17       13.0646    4.1376   12.6915 C.3       1 RES1    0.0000
     26 H1        12.0625    9.2292    9.4880 H         1 RES1    0.0000
     27 H2        11.6415    4.9781    8.1766 H         1 RES1    0.0000
     28 H3        12.5432    9.1550    6.2129 H         1 RES1    0.0000
     29 H4        12.1325   10.1640    7.5342 H         1 RES1    0.0000
     30 H5        11.0276    9.6076    6.5924 H         1 RES1    0.0000
     31 H6        12.3604    7.5303   12.1728 H         1 RES1    0.0000
     32 H7        13.7135    7.7974   11.4559 H         1 RES1    0.0000
     33 H8        12.5470    8.9325   11.4981 H         1 RES1    0.0000
     34 H9         9.7968    3.6427    7.9699 H         1 RES1    0.0000
     35 H10        6.0752    4.9040    9.0382 H         1 RES1    0.0000
     36 H11        6.9972    6.9442    9.7410 H         1 RES1    0.0000
     37 H12        9.2967    7.3819    9.4459 H         1 RES1    0.0000
     38 H13       10.9156    3.7392    4.5261 H         1 RES1    0.0000
     39 H14       10.2840    5.1191    4.1607 H         1 RES1    0.0000
     40 H15       11.7644    4.9633    4.0482 H         1 RES1    0.0000
     41 H16       13.4308    4.5108   13.4660 H         1 RES1    0.0000
     42 H17       12.1849    3.7466   12.9037 H         1 RES1    0.0000
     43 H18       13.7416    3.5314   12.3274 H         1 RES1    0.0000
@<TRIPOS>BOND
     1    1   15 2
     2    2   15 1
     3    3   17 2
     4    4   17 1
     5    5    8 2
     6    6    8 2
     7    7    9 1
     8    8   20 1
     9    9   10 2
    10   10   11 1
    11   11   12 1
    12   12   13 2
    13   13    7 1
    14   14    9 1
    15   15   10 1
    16   16   13 1
    17   17   12 1
    18   18   11 1
    19   19   18 ar
    20   20   19 ar
    21   21   20 ar
    22   22   21 ar
    23   23   18 ar
    24   24    2 1
    25   25    4 1
    26   26    7 1
    27   27   11 1
    28   28   14 1
    29   29   14 1
    30   30   14 1
    31   31   16 1
    32   32   16 1
    33   33   16 1
    34   34   19 1
    35   35   21 1
    36   36   22 1
    37   37   23 1
    38   38   24 1
    39   39   24 1
    40   40   24 1
    41   41   25 1
    42   42   25 1
    43   43   25 1
    44   22   23 ar
@<TRIPOS>SUBSTRUCTURE
     1 RES1 1

@<TRIPOS>CRYSIN
  15.9850    7.4190   14.9940  90.0000 110.3700  90.0000 231 1

