# MOL2 file generated by ConQuest
# Please check atom types

@<TRIPOS>MOLECULE
BELMOU
    25    26     1
SMALL
USER_CHARGES
****
Generated from CSD

@<TRIPOS>ATOM
      1 O1        -0.7574    9.3797   -0.0606 O.2       1 RES1    0.0000
      2 O2         2.2756    1.5315    2.2271 O.2       1 RES1    0.0000
      3 O3         3.9403    1.7867    3.5575 O.2       1 RES1    0.0000
      4 N1         1.4961    8.6369    2.3185 N.pl3     1 RES1    1.0000
      5 N2         0.5810    8.2529    1.3934 N.2       1 RES1   -1.0000
      6 N3         3.0319    2.2282    2.8835 N.pl3     1 RES1    0.0000
      7 C1         0.0452    9.3912    0.8729 C.2       1 RES1    0.0000
      8 C2         0.5612   10.6398    1.5531 C.3       1 RES1    0.0000
      9 C3         1.5248   10.1270    2.5695 C.3       1 RES1    0.0000
     10 C4         2.3230    7.8482    2.9457 C.2       1 RES1    0.0000
     11 C5         2.4299    6.4133    2.8443 C.ar      1 RES1    0.0000
     12 C6         3.5886    5.8591    3.4163 C.ar      1 RES1    0.0000
     13 C7         3.7970    4.4909    3.4247 C.ar      1 RES1    0.0000
     14 C8         2.8323    3.6861    2.8612 C.ar      1 RES1    0.0000
     15 C9         1.6736    4.1874    2.3100 C.ar      1 RES1    0.0000
     16 C10        1.4740    5.5556    2.2931 C.ar      1 RES1    0.0000
     17 H1         0.9812   11.1986    0.8905 H         1 RES1    0.0000
     18 H2        -0.1984   11.1296    1.9116 H         1 RES1    0.0000
     19 H3         2.4255   10.3937    2.3799 H         1 RES1    0.0000
     20 H4         1.2128   10.2558    3.5314 H         1 RES1    0.0000
     21 H5         2.9768    8.3242    3.4854 H         1 RES1    0.0000
     22 H6         4.2557    6.4616    3.7694 H         1 RES1    0.0000
     23 H7         4.5864    4.0931    3.8308 H         1 RES1    0.0000
     24 H8         0.9923    3.5642    1.9883 H         1 RES1    0.0000
     25 H9         0.6725    5.9097    1.8809 H         1 RES1    0.0000
@<TRIPOS>BOND
     1    1    7 2
     2    2    6 2
     3    3    6 2
     4    4    5 1
     5    5    7 1
     6    6   14 1
     7    7    8 1
     8    8    9 1
     9    9    4 1
    10   10    4 2
    11   11   10 1
    12   12   11 ar
    13   13   12 ar
    14   14   13 ar
    15   15   14 ar
    16   16   11 ar
    17   17    8 1
    18   18    8 1
    19   19    9 1
    20   20    9 1
    21   21   10 1
    22   22   12 1
    23   23   13 1
    24   24   15 1
    25   25   16 1
    26   15   16 ar
@<TRIPOS>SUBSTRUCTURE
     1 RES1 1

@<TRIPOS>CRYSIN
  11.0250   22.9950    7.6770  90.0000  90.0000  90.0000  61 1

