# MOL2 file generated by ConQuest
# Please check atom types

@<TRIPOS>MOLECULE
BEMBIG01
    60    62     2
SMALL
NO_CHARGES
****
Generated from CSD

@<TRIPOS>ATOM
      1 N1         5.4785    5.6484    2.2988 N.3       1 RES1    0.0000
      2 C1         6.1050    6.5926    3.0688 C.2       1 RES1    0.0000
      3 C2         7.4038    6.6436    2.6368 C.2       1 RES1    0.0000
      4 N2         7.6227    5.7878    1.6256 N.2       1 RES1    0.0000
      5 C3         6.4457    5.1977    1.4474 C.2       1 RES1    0.0000
      6 C4         6.1963    4.1432    0.4628 C.2       1 RES1    0.0000
      7 N3         7.0864    3.1435    0.1978 N.3       1 RES1    0.0000
      8 C5         6.4584    2.3323   -0.7139 C.2       1 RES1    0.0000
      9 C6         5.2289    2.9012   -0.9467 C.2       1 RES1    0.0000
     10 N4         5.0689    4.0184   -0.2230 N.2       1 RES1    0.0000
     11 C7         4.1109    5.1183    2.4685 C.3       1 RES1    0.0000
     12 H1         4.0440    4.2425    2.0351 H         1 RES1    0.0000
     13 H2         3.4678    5.7356    2.0604 H         1 RES1    0.0000
     14 H3         3.9133    5.0256    3.4250 H         1 RES1    0.0000
     15 N5         5.4983    7.2271    4.1978 N.pl3     1 RES1    0.0000
     16 O1         4.2831    7.3711    4.2007 O.2       1 RES1    0.0000
     17 O2         6.2512    7.5994    5.0857 O.2       1 RES1    0.0000
     18 N6         8.4766    7.5107    3.0940 N.pl3     1 RES1    0.0000
     19 O3         8.1786    8.6624    3.3872 O.2       1 RES1    0.0000
     20 O4         9.5993    7.0570    3.1207 O.2       1 RES1    0.0000
     21 C8         8.3847    2.9097    0.8668 C.3       1 RES1    0.0000
     22 H4         8.4498    3.4793    1.6606 H         1 RES1    0.0000
     23 H5         9.1142    3.1262    0.2483 H         1 RES1    0.0000
     24 H6         8.4513    1.9697    1.1319 H         1 RES1    0.0000
     25 N7         7.0252    1.0910   -1.1781 N.pl3     1 RES1    0.0000
     26 O5         8.2416    0.9949   -1.2230 O.2       1 RES1    0.0000
     27 O6         6.2204    0.2040   -1.4783 O.2       1 RES1    0.0000
     28 N8         4.2074    2.4906   -1.8850 N.pl3     1 RES1    0.0000
     29 O7         4.5710    1.8958   -2.8963 O.2       1 RES1    0.0000
     30 O8         3.0476    2.7881   -1.6298 O.2       1 RES1    0.0000
     31 N9        -0.5132    0.0075    9.3803 N.3       2 RES2    0.0000
     32 C9         0.1076   -0.9046   10.1741 C.2       2 RES2    0.0000
     33 C10        1.3946   -0.9951    9.7337 C.2       2 RES2    0.0000
     34 N10        1.6142   -0.1775    8.6888 N.2       2 RES2    0.0000
     35 C11        0.4449    0.4343    8.5079 C.2       2 RES2    0.0000
     36 C12        0.2124    1.5243    7.5682 C.2       2 RES2    0.0000
     37 N11        1.1358    2.5041    7.3255 N.3       2 RES2    0.0000
     38 C13        0.5015    3.3950    6.5219 C.2       2 RES2    0.0000
     39 C14       -0.7479    2.9151    6.3101 C.2       2 RES2    0.0000
     40 N12       -0.9367    1.7372    6.9539 N.2       2 RES2    0.0000
     41 C15       -1.8789    0.5207    9.5738 C.3       2 RES2    0.0000
     42 H7        -2.0354    0.6795   10.5290 H         2 RES2    0.0000
     43 H8        -2.5250   -0.1381    9.2428 H         2 RES2    0.0000
     44 H9        -1.9860    1.3600    9.0801 H         2 RES2    0.0000
     45 N13       -0.5910   -1.5388   11.2780 N.pl3     2 RES2    0.0000
     46 O9        -1.5700   -2.2034   11.0199 O.2       2 RES2    0.0000
     47 O10       -0.1538   -1.3609   12.3860 O.2       2 RES2    0.0000
     48 N14        2.4246   -1.8747   10.2373 N.pl3     2 RES2    0.0000
     49 O11        2.0672   -2.7129   11.0676 O.2       2 RES2    0.0000
     50 O12        3.5615   -1.7332    9.8319 O.2       2 RES2    0.0000
     51 C16        2.4847    2.6516    7.9090 C.3       2 RES2    0.0000
     52 H10        2.7515    3.5941    7.8810 H         2 RES2    0.0000
     53 H11        3.1242    2.1158    7.3957 H         2 RES2    0.0000
     54 H12        2.4740    2.3433    8.8403 H         2 RES2    0.0000
     55 N15        1.1723    4.5988    6.0492 N.pl3     2 RES2    0.0000
     56 O13        2.2270    4.4408    5.4545 O.2       2 RES2    0.0000
     57 O14        0.6458    5.6639    6.2891 O.2       2 RES2    0.0000
     58 N16       -1.8011    3.5047    5.5289 N.pl3     2 RES2    0.0000
     59 O15       -1.4686    4.4255    4.7841 O.2       2 RES2    0.0000
     60 O16       -2.9404    3.0721    5.6467 O.2       2 RES2    0.0000
@<TRIPOS>BOND
     1    1    2 1
     2    2    3 2
     3    3    4 1
     4    4    5 2
     5    5    1 1
     6    6    5 1
     7    7    6 1
     8    8    7 1
     9    9    8 2
    10   10    6 2
    11   11    1 1
    12   12   11 1
    13   13   11 1
    14   14   11 1
    15   15    2 1
    16   16   15 2
    17   17   15 2
    18   18    3 1
    19   19   18 2
    20   20   18 2
    21   21    7 1
    22   22   21 1
    23   23   21 1
    24   24   21 1
    25   25    8 1
    26   26   25 2
    27   27   25 2
    28   28    9 1
    29   29   28 2
    30   30   28 2
    31   31   32 1
    32   32   33 2
    33   33   34 1
    34   34   35 2
    35   35   31 1
    36   36   35 1
    37   37   36 1
    38   38   37 1
    39   39   38 2
    40   40   36 2
    41   41   31 1
    42   42   41 1
    43   43   41 1
    44   44   41 1
    45   45   32 1
    46   46   45 2
    47   47   45 2
    48   48   33 1
    49   49   48 2
    50   50   48 2
    51   51   37 1
    52   52   51 1
    53   53   51 1
    54   54   51 1
    55   55   38 1
    56   56   55 2
    57   57   55 2
    58   58   39 1
    59   59   58 2
    60   60   58 2
    61    9   10 1
    62   39   40 1
@<TRIPOS>SUBSTRUCTURE
     1 RES1 1
     2 RES2 31

@<TRIPOS>CRYSIN
   8.0029   11.8060   14.4290  90.7430 103.5570  90.1990   2 1

