# MOL2 file generated by ConQuest
# Please check atom types

@<TRIPOS>MOLECULE
BEMBIG
    60    62     2
SMALL
NO_CHARGES
****
Generated from CSD

@<TRIPOS>ATOM
      1 O1         2.1631    7.9153    2.9956 O.2       1 RES1    0.0000
      2 O2         0.7410    7.0806    1.6453 O.2       1 RES1    0.0000
      3 O3        -1.4697    8.4321    2.9689 O.2       1 RES1    0.0000
      4 O4        -2.9679    7.4515    4.1837 O.2       1 RES1    0.0000
      5 O5        -1.6451    1.2857    8.5750 O.2       1 RES1    0.0000
      6 O6        -0.0468    0.0697    7.7770 O.2       1 RES1    0.0000
      7 O7         2.0533    1.3278    9.2804 O.2       1 RES1    0.0000
      8 O8         3.5305    2.6595    8.4014 O.2       1 RES1    0.0000
      9 N1         1.1067    5.7175    4.6535 N.3       1 RES1    0.0000
     10 N2        -1.0233    5.8972    5.3423 N.2       1 RES1    0.0000
     11 N3         1.1907    7.2563    2.7493 N.pl3     1 RES1    0.0000
     12 N4        -1.8254    7.5963    3.7876 N.pl3     1 RES1    0.0000
     13 N5        -0.5499    3.2255    6.7161 N.3       1 RES1    0.0000
     14 N6         1.5255    3.9873    7.0838 N.2       1 RES1    0.0000
     15 N7        -0.5741    1.1282    8.0004 N.pl3     1 RES1    0.0000
     16 N8         2.3913    2.2339    8.5244 N.pl3     1 RES1    0.0000
     17 C1         0.1419    5.2908    5.5247 C.2       1 RES1    0.0000
     18 C2         0.4824    6.6241    3.8569 C.2       1 RES1    0.0000
     19 C3        -0.8007    6.7205    4.2938 C.2       1 RES1    0.0000
     20 C4         2.4735    5.2022    4.4610 C.3       1 RES1    0.0000
     21 C5         0.3766    4.1987    6.4660 C.2       1 RES1    0.0000
     22 C6         0.0903    2.3329    7.5269 C.2       1 RES1    0.0000
     23 C7         1.3392    2.8218    7.7362 C.2       1 RES1    0.0000
     24 C8        -1.8988    3.0658    6.1316 C.3       1 RES1    0.0000
     25 H1         2.5038    4.3349    4.7631 H         1 RES1    0.0000
     26 H2        -2.1291    2.0675    6.1120 H         1 RES1    0.0000
     27 H3        -1.9362    3.4052    5.2268 H         1 RES1    0.0000
     28 H4        -2.5414    3.6249    6.6037 H         1 RES1    0.0000
     29 H5         2.6041    5.2264    3.5688 H         1 RES1    0.0000
     30 H6         3.0153    5.6220    5.0863 H         1 RES1    0.0000
     31 O9         4.2185    6.9306   -1.2341 O.2       2 RES2    0.0000
     32 O10        2.2018    6.1351   -1.4584 O.2       2 RES2    0.0000
     33 O11        0.5519    7.8231   -2.8865 O.2       2 RES2    0.0000
     34 O12       -0.9734    8.7241   -1.6217 O.2       2 RES2    0.0000
     35 O13        0.2630   13.3277    4.2035 O.2       2 RES2    0.0000
     36 O14        2.2296   13.5379    5.0999 O.2       2 RES2    0.0000
     37 O15        4.1628   14.5998    3.4072 O.2       2 RES2    0.0000
     38 O16        5.5795   12.9978    3.1119 O.2       2 RES2    0.0000
     39 N9         3.0626    9.0780    0.2020 N.3       2 RES2    0.0000
     40 N10        1.0448    9.9550   -0.2143 N.2       2 RES2    0.0000
     41 N11        3.0018    7.0257   -1.1656 N.pl3     2 RES2    0.0000
     42 N12        0.1840    8.4228   -1.8705 N.pl3     2 RES2    0.0000
     43 N13        1.4583   11.5900    2.3053 N.3       2 RES2    0.0000
     44 N14        3.6032   11.7276    1.6306 N.2       2 RES2    0.0000
     45 N15        1.4704   13.1712    4.2146 N.pl3     2 RES2    0.0000
     46 N16        4.4538   13.4516    3.1039 N.pl3     2 RES2    0.0000
     47 C9         2.1762   10.0766    0.4749 C.2       2 RES2    0.0000
     48 C10        2.4389    8.2684   -0.7039 C.2       2 RES2    0.0000
     49 C11        1.2097    8.8364   -0.9400 C.2       2 RES2    0.0000
     50 C12        4.3667    8.8457    0.8711 C.3       2 RES2    0.0000
     51 C13        2.4233   11.1352    1.4556 C.2       2 RES2    0.0000
     52 C14        2.0852   12.5303    3.0799 C.2       2 RES2    0.0000
     53 C15        3.3796   12.5855    2.6471 C.2       2 RES2    0.0000
     54 C16        0.0936   11.0584    2.4771 C.3       2 RES2    0.0000
     55 H7        -0.5288   11.6763    2.1357 H         2 RES2    0.0000
     56 H8         4.4116    7.8866    1.1240 H         2 RES2    0.0000
     57 H9         4.3570    9.3965    1.6299 H         2 RES2    0.0000
     58 H10       -0.0860   10.9370    3.4705 H         2 RES2    0.0000
     59 H11       -0.0223   10.1611    2.0514 H         2 RES2    0.0000
     60 H12        5.0791    9.0594    0.1686 H         2 RES2    0.0000
@<TRIPOS>BOND
     1    1   11 2
     2    2   11 2
     3    3   12 2
     4    4   12 2
     5    5   15 2
     6    6   15 2
     7    7   16 2
     8    8   16 2
     9    9   17 1
    10   10   17 2
    11   11   18 1
    12   12   19 1
    13   13   21 1
    14   14   21 2
    15   15   22 1
    16   16   23 1
    17   17   21 1
    18   18    9 1
    19   19   10 1
    20   20    9 1
    21   22   13 1
    22   23   14 1
    23   24   13 1
    24   25   20 1
    25   26   24 1
    26   27   24 1
    27   28   24 1
    28   29   20 1
    29   30   20 1
    30   31   41 2
    31   32   41 2
    32   33   42 2
    33   34   42 2
    34   35   45 2
    35   36   45 2
    36   37   46 2
    37   38   46 2
    38   39   47 1
    39   40   47 2
    40   41   48 1
    41   42   49 1
    42   43   51 1
    43   44   51 2
    44   45   52 1
    45   46   53 1
    46   47   51 1
    47   48   39 1
    48   49   40 1
    49   50   39 1
    50   52   43 1
    51   53   44 1
    52   54   43 1
    53   55   54 1
    54   56   50 1
    55   57   50 1
    56   58   54 1
    57   59   54 1
    58   60   50 1
    59   18   19 2
    60   22   23 2
    61   48   49 2
    62   52   53 2
@<TRIPOS>SUBSTRUCTURE
     1 RES1 1
     2 RES2 31

@<TRIPOS>CRYSIN
   8.0210   11.8452   14.4535  90.6530 103.5430  90.1880   2 1

