# MOL2 file generated by ConQuest
# Please check atom types

@<TRIPOS>MOLECULE
BEMJOS
    44    44     2
SMALL
NO_CHARGES
****
Generated from CSD

@<TRIPOS>ATOM
      1 O1         8.1234    2.2168    6.7959 O.3       1 RES1    0.0000
      2 O2        12.2311    0.1297    6.7258 O.2       1 RES1    0.0000
      3 O3        10.9927    0.3739    4.8774 O.3       1 RES1    0.0000
      4 N1         9.1736    1.5981    6.1403 N.2       1 RES1    0.0000
      5 C1        10.0892    1.1407    6.9096 C.2       1 RES1    0.0000
      6 C2        11.2305    0.4898    6.1856 C.2       1 RES1    0.0000
      7 C3        10.1160    1.2020    8.3932 C.ar      1 RES1    0.0000
      8 C4        10.1801    2.4248    9.0463 C.ar      1 RES1    0.0000
      9 C5        10.2061    2.4683   10.4322 C.ar      1 RES1    0.0000
     10 C6        10.1434    1.3030   11.1619 C.ar      1 RES1    0.0000
     11 C7        10.0702    0.0841   10.5154 C.ar      1 RES1    0.0000
     12 C8        10.0684    0.0306    9.1316 C.ar      1 RES1    0.0000
     13 C9        12.0519   -0.2085    4.0929 C.3       1 RES1    0.0000
     14 O4         8.3486    1.5765    3.4918 O.3       2 RES2    0.0000
     15 O5         4.0741    3.3264    3.5740 O.2       2 RES2    0.0000
     16 O6         5.3191    3.0925    5.4083 O.3       2 RES2    0.0000
     17 N2         7.2568    2.1377    4.1286 N.2       2 RES2    0.0000
     18 C10        6.2894    2.4722    3.3531 C.2       2 RES2    0.0000
     19 C11        5.1001    3.0085    4.0958 C.2       2 RES2    0.0000
     20 C12        6.2512    2.3841    1.8739 C.ar      2 RES2    0.0000
     21 C13        7.3183    2.8580    1.1207 C.ar      2 RES2    0.0000
     22 C14        7.2865    2.7895   -0.2578 C.ar      2 RES2    0.0000
     23 C15        6.1871    2.2440   -0.8976 C.ar      2 RES2    0.0000
     24 C16        5.1274    1.7641   -0.1633 C.ar      2 RES2    0.0000
     25 C17        5.1518    1.8335    1.2181 C.ar      2 RES2    0.0000
     26 C18        4.2318    3.6214    6.1962 C.3       2 RES2    0.0000
     27 H1         7.4991    2.3303    6.1231 H         1 RES1    0.0000
     28 H2        10.2210    3.2444    8.5520 H         1 RES1    0.0000
     29 H3        10.2537    3.3343   10.8682 H         1 RES1    0.0000
     30 H4        10.1584    1.3499   12.1548 H         1 RES1    0.0000
     31 H5        10.0250   -0.7585   11.0002 H         1 RES1    0.0000
     32 H6        10.0112   -0.8129    8.6932 H         1 RES1    0.0000
     33 H7        12.2952   -1.1201    4.3664 H         1 RES1    0.0000
     34 H8        11.7987   -0.2230    3.2697 H         1 RES1    0.0000
     35 H9        12.9186    0.2777    4.0516 H         1 RES1    0.0000
     36 H10        8.8988    1.4464    4.1643 H         2 RES2    0.0000
     37 H11        8.0529    3.2755    1.5851 H         2 RES2    0.0000
     38 H12        8.0118    3.1357   -0.7809 H         2 RES2    0.0000
     39 H13        6.1617    2.2111   -1.8887 H         2 RES2    0.0000
     40 H14        4.3732    1.3160   -0.6143 H         2 RES2    0.0000
     41 H15        4.3903    1.4537    1.7455 H         2 RES2    0.0000
     42 H16        3.4340    3.0739    6.1231 H         2 RES2    0.0000
     43 H17        4.0195    4.5051    5.9403 H         2 RES2    0.0000
     44 H18        4.5501    3.5608    7.0573 H         2 RES2    0.0000
@<TRIPOS>BOND
     1    1    4 1
     2    2    6 2
     3    3    6 1
     4    4    5 2
     5    5    6 1
     6    7    5 1
     7    8    7 ar
     8    9    8 ar
     9   10    9 ar
    10   11   10 ar
    11   12    7 ar
    12   13    3 1
    13   14   17 1
    14   15   19 2
    15   16   19 1
    16   17   18 2
    17   18   19 1
    18   20   18 1
    19   21   20 ar
    20   22   21 ar
    21   23   22 ar
    22   24   23 ar
    23   25   20 ar
    24   26   16 1
    25   27    1 1
    26   28    8 1
    27   29    9 1
    28   30   10 1
    29   31   11 1
    30   32   12 1
    31   33   13 1
    32   34   13 1
    33   35   13 1
    34   36   14 1
    35   37   21 1
    36   38   22 1
    37   39   23 1
    38   40   24 1
    39   41   25 1
    40   42   26 1
    41   43   26 1
    42   44   26 1
    43   11   12 ar
    44   24   25 ar
@<TRIPOS>SUBSTRUCTURE
     1 RES1 1
     2 RES2 14

@<TRIPOS>CRYSIN
   9.4681    9.6809   10.2338  93.0870  94.9420 110.4900   2 1

