# MOL2 file generated by ConQuest
# Please check atom types

@<TRIPOS>MOLECULE
BEMJOS01
    44    44     2
SMALL
NO_CHARGES
****
Generated from CSD

@<TRIPOS>ATOM
      1 O1         1.7056    5.8324    3.3519 O.3       1 RES1    0.0000
      2 O2        -2.4093    7.9392    3.3968 O.2       1 RES1    0.0000
      3 O3        -1.1625    7.7068    5.2553 O.3       1 RES1    0.0000
      4 O4         3.5809    1.5794    3.4708 O.3       2 RES2    0.0000
      5 O5        -0.7269    3.2874    3.5498 O.2       2 RES2    0.0000
      6 O6         0.5559    3.1334    5.3838 O.3       2 RES2    0.0000
      7 N1         0.6516    6.4604    4.0012 N.2       1 RES1    0.0000
      8 N2         2.4824    2.1474    4.1058 N.2       2 RES2    0.0000
      9 C1        -0.2865    6.8407    1.7377 C.ar      1 RES1    0.0000
     10 C2        -0.3372    5.6042    1.0923 C.ar      1 RES1    0.0000
     11 C3        -0.3613    5.5551   -0.2960 C.ar      1 RES1    0.0000
     12 C4        -0.3120    6.7235   -1.0390 C.ar      1 RES1    0.0000
     13 C5        -0.2547    7.9511   -0.3952 C.ar      1 RES1    0.0000
     14 C6        -0.2526    8.0144    0.9923 C.ar      1 RES1    0.0000
     15 C7        -0.2594    6.9164    3.2222 C.2       1 RES1    0.0000
     16 C8        -1.4013    7.5842    3.9420 C.2       1 RES1    0.0000
     17 C9        -2.2373    8.2905    6.0270 C.3       1 RES1    0.0000
     18 C10        1.4678    2.3549    1.8468 C.ar      2 RES2    0.0000
     19 C11        2.5447    2.8213    1.0838 C.ar      2 RES2    0.0000
     20 C12        2.5062    2.7373   -0.3000 C.ar      2 RES2    0.0000
     21 C13        1.3931    2.2019   -0.9332 C.ar      2 RES2    0.0000
     22 C14        0.3224    1.7319   -0.1860 C.ar      2 RES2    0.0000
     23 C15        0.3590    1.8084    1.2007 C.ar      2 RES2    0.0000
     24 C16        1.5116    2.4664    3.3266 C.2       2 RES2    0.0000
     25 C17        0.3185    3.0080    4.0698 C.2       2 RES2    0.0000
     26 C18       -0.5529    3.6585    6.1582 C.3       2 RES2    0.0000
     27 H1         2.2515    5.7415    4.0498 H         1 RES1    0.0000
     28 H2        -0.3555    4.8010    1.5997 H         1 RES1    0.0000
     29 H3        -0.4114    4.7156   -0.7382 H         1 RES1    0.0000
     30 H4        -0.3173    6.6842   -1.9880 H         1 RES1    0.0000
     31 H5        -0.2173    8.7519   -0.9050 H         1 RES1    0.0000
     32 H6        -0.2280    8.8569    1.4308 H         1 RES1    0.0000
     33 H7        -3.0358    7.7270    5.9538 H         1 RES1    0.0000
     34 H8        -2.4369    9.1866    5.6838 H         1 RES1    0.0000
     35 H9        -1.9679    8.3543    6.9670 H         1 RES1    0.0000
     36 H10        4.0998    1.4473    4.1822 H         2 RES2    0.0000
     37 H11        3.3041    3.1962    1.5147 H         2 RES2    0.0000
     38 H12        3.2427    3.0462   -0.8150 H         2 RES2    0.0000
     39 H13        1.3646    2.1571   -1.8818 H         2 RES2    0.0000
     40 H14       -0.4350    1.3586   -0.6219 H         2 RES2    0.0000
     41 H15       -0.3748    1.4870    1.7109 H         2 RES2    0.0000
     42 H16       -1.3176    3.0491    6.0893 H         2 RES2    0.0000
     43 H17       -0.8050    4.5395    5.8112 H         2 RES2    0.0000
     44 H18       -0.2851    3.7416    7.0975 H         2 RES2    0.0000
@<TRIPOS>BOND
     1    1    7 1
     2    2   16 2
     3    3   16 1
     4    4    8 1
     5    5   25 2
     6    6   25 1
     7    7   15 2
     8    8   24 2
     9    9   10 ar
    10   10   11 ar
    11   11   12 ar
    12   12   13 ar
    13   13   14 ar
    14   14    9 ar
    15   15    9 1
    16   16   15 1
    17   17    3 1
    18   18   19 ar
    19   19   20 ar
    20   20   21 ar
    21   21   22 ar
    22   22   23 ar
    23   23   18 ar
    24   24   18 1
    25   25   24 1
    26   26    6 1
    27   27    1 1
    28   28   10 1
    29   29   11 1
    30   30   12 1
    31   31   13 1
    32   32   14 1
    33   33   17 1
    34   34   17 1
    35   35   17 1
    36   36    4 1
    37   37   19 1
    38   38   20 1
    39   39   21 1
    40   40   22 1
    41   41   23 1
    42   42   26 1
    43   43   26 1
    44   44   26 1
@<TRIPOS>SUBSTRUCTURE
     1 RES1 1
     2 RES2 4

@<TRIPOS>CRYSIN
   9.3771    9.5577   10.1760  92.3863  94.6892 111.4252   2 1

