# MOL2 file generated by ConQuest
# Please check atom types

@<TRIPOS>MOLECULE
BEMWEV01
    65    66     1
SMALL
NO_CHARGES
****
Generated from CSD

@<TRIPOS>ATOM
      1 O1         0.0957    5.5424    9.3172 O.2       1 RES1    0.0000
      2 O2         0.5081    4.4931   11.1319 O.2       1 RES1    0.0000
      3 O3         4.6678    2.5228   12.0670 O.2       1 RES1    0.0000
      4 O4         6.1698    2.3733   10.5335 O.2       1 RES1    0.0000
      5 N1         2.5512    6.3694    6.3434 N.2       1 RES1    0.0000
      6 N2         1.9540    5.8580    7.4899 N.3       1 RES1    0.0000
      7 N3         0.8629    4.9107   10.0355 N.pl3     1 RES1    0.0000
      8 N4         5.1093    2.7811   10.9796 N.pl3     1 RES1    0.0000
      9 C1         1.7714    6.9607    5.4996 C.2       1 RES1    0.0000
     10 C2         2.4686    7.5217    4.3030 C.3       1 RES1    0.0000
     11 C3         2.1831    6.8192    3.0078 C.3       1 RES1    0.0000
     12 C4         2.7277    5.4266    2.8913 C.3       1 RES1    0.0000
     13 C5         1.9456    4.5339    1.6409 C.3       1 RES1    0.0000
     14 C6         2.3590    3.2593    1.4528 C.3       1 RES1    0.0000
     15 C7         1.7049    2.6741    0.3171 C.3       1 RES1    0.0000
     16 C8         0.2802    2.0720    0.4855 C.3       1 RES1    0.0000
     17 C9         0.2610    1.0815    1.5299 C.2       1 RES1    0.0000
     18 C10       -0.8515    0.8101    2.2536 C.2       1 RES1    0.0000
     19 C11       -2.1513    1.3738    2.2106 C.3       1 RES1    0.0000
     20 C12       -2.4925    2.0628    3.5291 C.3       1 RES1    0.0000
     21 C13       -1.7270    3.3227    3.7100 C.3       1 RES1    0.0000
     22 C14       -2.0629    4.0617    4.9210 C.3       1 RES1    0.0000
     23 C15       -1.5994    5.5372    5.0428 C.3       1 RES1    0.0000
     24 C16       -0.2658    5.5546    5.2614 C.3       1 RES1    0.0000
     25 C17        0.2923    7.0939    5.6358 C.3       1 RES1    0.0000
     26 C18        2.7018    5.1469    8.3516 C.ar      1 RES1    0.0000
     27 C19        2.2260    4.6510    9.5859 C.ar      1 RES1    0.0000
     28 C20        2.9986    3.8962   10.4440 C.ar      1 RES1    0.0000
     29 C21        4.2812    3.6209   10.0928 C.ar      1 RES1    0.0000
     30 C22        4.7990    4.0816    8.8944 C.ar      1 RES1    0.0000
     31 C23        4.0494    4.8435    8.0703 C.ar      1 RES1    0.0000
     32 H1         2.3306    8.3019    4.1543 H         1 RES1    0.0000
     33 H2         3.4421    7.3649    4.3890 H         1 RES1    0.0000
     34 H3         1.3621    6.7365    2.8519 H         1 RES1    0.0000
     35 H4         2.4707    7.2436    2.1461 H         1 RES1    0.0000
     36 H5         3.7937    5.4816    2.6710 H         1 RES1    0.0000
     37 H6         2.5466    4.9101    3.6437 H         1 RES1    0.0000
     38 H7         0.8810    4.5042    1.8738 H         1 RES1    0.0000
     39 H8         2.0977    5.0725    0.7058 H         1 RES1    0.0000
     40 H9         3.4368    3.2538    1.2880 H         1 RES1    0.0000
     41 H10        2.1256    2.6724    2.3414 H         1 RES1    0.0000
     42 H11        1.7148    3.2374   -0.5661 H         1 RES1    0.0000
     43 H12        2.2729    1.9394    0.0699 H         1 RES1    0.0000
     44 H13       -0.2856    2.8858    0.6449 H         1 RES1    0.0000
     45 H14       -0.0246    1.6079   -0.4532 H         1 RES1    0.0000
     46 H15        1.3426    0.6082    1.5012 H         1 RES1    0.0000
     47 H16       -0.8784    0.0306    2.6423 H         1 RES1    0.0000
     48 H17       -2.1638    2.0224    1.3919 H         1 RES1    0.0000
     49 H18       -2.8627    0.8607    1.9759 H         1 RES1    0.0000
     50 H19       -3.3001    2.4315    3.7333 H         1 RES1    0.0000
     51 H20       -2.2582    1.3843    4.4051 H         1 RES1    0.0000
     52 H21       -0.8016    3.0258    3.8014 H         1 RES1    0.0000
     53 H22       -1.7195    3.9456    2.9218 H         1 RES1    0.0000
     54 H23       -2.9642    4.0526    5.0160 H         1 RES1    0.0000
     55 H24       -1.6747    3.4449    5.7039 H         1 RES1    0.0000
     56 H25       -1.8277    6.0709    4.1203 H         1 RES1    0.0000
     57 H26       -2.1136    6.0159    5.8758 H         1 RES1    0.0000
     58 H27       -0.0360    4.8858    6.0890 H         1 RES1    0.0000
     59 H28        0.2418    5.2067    4.3603 H         1 RES1    0.0000
     60 H29       -0.1718    8.1818    5.0751 H         1 RES1    0.0000
     61 H30        0.0671    7.2172    6.3828 H         1 RES1    0.0000
     62 H31        2.6018    3.6539   11.3003 H         1 RES1    0.0000
     63 H32        5.6498    3.8975    8.6705 H         1 RES1    0.0000
     64 H33        4.2504    5.0363    7.2552 H         1 RES1    0.0000
     65 H34        1.1297    5.8404    7.5849 H         1 RES1    0.0000
@<TRIPOS>BOND
     1    1    7 2
     2    2    7 2
     3    3    8 2
     4    4    8 2
     5    5    6 1
     6    6   26 1
     7    7   27 1
     8    8   29 1
     9    9    5 2
    10   10    9 1
    11   11   10 1
    12   12   11 1
    13   13   12 1
    14   14   13 1
    15   15   14 1
    16   16   15 1
    17   17   16 1
    18   18   17 2
    19   19   18 1
    20   20   19 1
    21   21   20 1
    22   22   21 1
    23   23   22 1
    24   24   23 1
    25   25    9 1
    26   26   27 ar
    27   27   28 ar
    28   28   29 ar
    29   29   30 ar
    30   30   31 ar
    31   31   26 ar
    32   32   10 1
    33   33   10 1
    34   34   11 1
    35   35   11 1
    36   36   12 1
    37   37   12 1
    38   38   13 1
    39   39   13 1
    40   40   14 1
    41   41   14 1
    42   42   15 1
    43   43   15 1
    44   44   16 1
    45   45   16 1
    46   46   17 1
    47   47   18 1
    48   48   19 1
    49   49   19 1
    50   50   20 1
    51   51   20 1
    52   52   21 1
    53   53   21 1
    54   54   22 1
    55   55   22 1
    56   56   23 1
    57   57   23 1
    58   58   24 1
    59   59   24 1
    60   60   25 1
    61   61   25 1
    62   62   28 1
    63   63   30 1
    64   64   31 1
    65   65    6 1
    66   24   25 1
@<TRIPOS>SUBSTRUCTURE
     1 RES1 1

@<TRIPOS>CRYSIN
   7.9500    8.4050   18.2330 100.2800  92.2900  94.1800   2 1

