# MOL2 file generated by ConQuest
# Please check atom types

@<TRIPOS>MOLECULE
BEMWEV
    65    66     1
SMALL
NO_CHARGES
****
Generated from CSD

@<TRIPOS>ATOM
      1 O1         3.5286    3.7587    6.6130 O.2       1 RES1    0.0000
      2 O2         1.9874    2.4969    7.4411 O.2       1 RES1    0.0000
      3 O3        -1.8053    1.1910    5.0535 O.2       1 RES1    0.0000
      4 O4        -2.0058    1.6183    2.9026 O.2       1 RES1    0.0000
      5 N1         3.8634    5.1249    2.9661 N.2       1 RES1    0.0000
      6 N2         3.4371    4.5044    4.1202 N.3       1 RES1    0.0000
      7 N3         2.4506    3.1222    6.5120 N.pl3     1 RES1    0.0000
      8 N4        -1.4446    1.6885    3.9946 N.pl3     1 RES1    0.0000
      9 C1         4.8584    6.4759    3.0627 C.2       1 RES1    0.0000
     10 C2         5.3212    6.4754    1.7095 C.3       1 RES1    0.0000
     11 C3         5.0160    7.9252    1.4700 C.3       1 RES1    0.0000
     12 C4         3.5785    8.1327    1.1945 C.3       1 RES1    0.0000
     13 C5         3.1899    9.6350    0.9521 C.3       1 RES1    0.0000
     14 C6         1.8226    9.8714    0.5713 C.3       1 RES1    0.0000
     15 C7         1.3868   11.3081    0.3203 C.3       1 RES1    0.0000
     16 C8         1.2659   12.2052    1.5350 C.3       1 RES1    0.0000
     17 C9         0.1589   11.7661    2.4121 C.2       1 RES1    0.0000
     18 C10        0.1667   11.5363    3.6542 C.2       1 RES1    0.0000
     19 C11        1.3611   11.5946    4.5501 C.3       1 RES1    0.0000
     20 C12        1.9014   10.1653    4.9468 C.3       1 RES1    0.0000
     21 C13        2.9717   10.2750    5.8484 C.3       1 RES1    0.0000
     22 C14        3.4630    8.7989    6.3952 C.3       1 RES1    0.0000
     23 C15        4.1779    8.4116    5.0507 C.3       1 RES1    0.0000
     24 C16        4.9461    7.2185    5.2959 C.3       1 RES1    0.0000
     25 C17        5.6371    6.2599    4.3135 C.3       1 RES1    0.0000
     26 C18        2.3125    3.8145    4.0870 C.ar      1 RES1    0.0000
     27 C19        1.7837    3.1275    5.2267 C.ar      1 RES1    0.0000
     28 C20        0.5703    2.4418    5.2007 C.ar      1 RES1    0.0000
     29 C21       -0.1382    2.3927    4.0307 C.ar      1 RES1    0.0000
     30 C22        0.3493    2.9752    2.8377 C.ar      1 RES1    0.0000
     31 C23        1.5205    3.6648    2.9026 C.ar      1 RES1    0.0000
     32 H1         6.4618    6.3617    1.6403 H         1 RES1    0.0000
     33 H2         4.9344    5.8716    0.8699 H         1 RES1    0.0000
     34 H3         5.3118    8.5001    2.3226 H         1 RES1    0.0000
     35 H4         5.5798    8.2898    0.5756 H         1 RES1    0.0000
     36 H5         3.2615    7.5535    0.3131 H         1 RES1    0.0000
     37 H6         2.9962    7.7809    2.0572 H         1 RES1    0.0000
     38 H7         3.4209   10.2176    1.8523 H         1 RES1    0.0000
     39 H8         3.8568   10.0311    0.1371 H         1 RES1    0.0000
     40 H9         1.6098    9.2513   -0.3477 H         1 RES1    0.0000
     41 H10        1.1751    9.4441    1.3676 H         1 RES1    0.0000
     42 H11        2.1819   11.7759   -0.3361 H         1 RES1    0.0000
     43 H12        0.4574   11.3475   -0.2395 H         1 RES1    0.0000
     44 H13        2.1833   12.1409    2.1553 H         1 RES1    0.0000
     45 H14        1.0963   13.2437    1.2796 H         1 RES1    0.0000
     46 H15       -0.8248   11.5756    1.9115 H         1 RES1    0.0000
     47 H16       -0.7684   11.3010    4.1981 H         1 RES1    0.0000
     48 H17        2.1695   12.1525    4.0148 H         1 RES1    0.0000
     49 H18        1.1439   12.1770    5.4690 H         1 RES1    0.0000
     50 H19        1.0656    9.6092    5.3969 H         1 RES1    0.0000
     51 H20        2.2074    9.6460    4.0322 H         1 RES1    0.0000
     52 H21        3.8362   10.7743    5.3767 H         1 RES1    0.0000
     53 H22        2.6874   10.8786    6.7328 H         1 RES1    0.0000
     54 H23        4.1936    8.9189    7.1641 H         1 RES1    0.0000
     55 H24        2.5759    8.2903    6.7717 H         1 RES1    0.0000
     56 H25        3.4363    8.2231    4.2745 H         1 RES1    0.0000
     57 H26        4.8370    9.2192    4.7347 H         1 RES1    0.0000
     58 H27        5.7541    7.5496    5.9480 H         1 RES1    0.0000
     59 H28        4.2685    6.5742    5.8556 H         1 RES1    0.0000
     60 H29        6.5885    6.6838    3.9644 H         1 RES1    0.0000
     61 H30        5.8472    5.2943    4.7939 H         1 RES1    0.0000
     62 H31        0.1561    2.0022    6.1413 H         1 RES1    0.0000
     63 H32       -0.2256    2.8536    1.8985 H         1 RES1    0.0000
     64 H33        1.8904    4.1616    1.9605 H         1 RES1    0.0000
     65 H34        4.0273    4.5974    5.0579 H         1 RES1    0.0000
@<TRIPOS>BOND
     1    1    7 2
     2    2    7 2
     3    3    8 2
     4    4    8 2
     5    5    6 1
     6    6   26 1
     7    7   27 1
     8    8   29 1
     9    9    5 2
    10   10    9 1
    11   11   10 1
    12   12   11 1
    13   13   12 1
    14   14   13 1
    15   15   14 1
    16   16   15 1
    17   17   16 1
    18   18   17 2
    19   19   18 1
    20   20   19 1
    21   21   20 1
    22   22   21 1
    23   23   22 1
    24   24   23 1
    25   25    9 1
    26   26   27 ar
    27   27   28 ar
    28   28   29 ar
    29   29   30 ar
    30   30   31 ar
    31   31   26 ar
    32   32   10 1
    33   33   10 1
    34   34   11 1
    35   35   11 1
    36   36   12 1
    37   37   12 1
    38   38   13 1
    39   39   13 1
    40   40   14 1
    41   41   14 1
    42   42   15 1
    43   43   15 1
    44   44   16 1
    45   45   16 1
    46   46   17 1
    47   47   18 1
    48   48   19 1
    49   49   19 1
    50   50   20 1
    51   51   20 1
    52   52   21 1
    53   53   21 1
    54   54   22 1
    55   55   22 1
    56   56   23 1
    57   57   23 1
    58   58   24 1
    59   59   24 1
    60   60   25 1
    61   61   25 1
    62   62   28 1
    63   63   30 1
    64   64   31 1
    65   65    6 1
    66   24   25 1
@<TRIPOS>SUBSTRUCTURE
     1 RES1 1

@<TRIPOS>CRYSIN
   6.2790   12.6050   15.2530 105.4900 100.3100  91.2300   2 1

