# MOL2 file generated by ConQuest
# Please check atom types

@<TRIPOS>MOLECULE
BENJEM
   134   136     2
SMALL
NO_CHARGES
****
Generated from CSD

@<TRIPOS>ATOM
      1 O1         1.1261   12.1116    9.2762 O.2       1 RES1    0.0000
      2 O2         0.6167   11.0872   11.1047 O.2       1 RES1    0.0000
      3 O3         2.2479    6.8160   12.2076 O.2       1 RES1    0.0000
      4 O4         3.2046    5.6041   10.6814 O.2       1 RES1    0.0000
      5 N1         3.3697   10.8212    6.2997 N.2       1 RES1    0.0000
      6 N2         2.6291   10.9471    7.4736 N.3       1 RES1    0.0000
      7 N3         1.1945   11.1282   10.0243 N.pl3     1 RES1    0.0000
      8 N4         2.7431    6.6638   11.0897 N.pl3     1 RES1    0.0000
      9 C1         3.2099   11.7460    5.4254 C.2       1 RES1    0.0000
     10 C2         2.2521   12.8970    5.5414 C.3       1 RES1    0.0000
     11 H1         2.5108   13.6071    4.9022 H         1 RES1    0.0000
     12 H2         2.3009   13.2750    6.4551 H         1 RES1    0.0000
     13 C3         0.8096   12.4464    5.2503 C.3       1 RES1    0.0000
     14 H3         0.7644   12.0852    4.3305 H         1 RES1    0.0000
     15 H4         0.5680   11.7165    5.8744 H         1 RES1    0.0000
     16 C4        -0.1974   13.5643    5.3888 C.3       1 RES1    0.0000
     17 H5         0.0117   14.2702    4.7255 H         1 RES1    0.0000
     18 H6        -0.1146   13.9626    6.2910 H         1 RES1    0.0000
     19 C5        -1.6372   13.0983    5.1823 C.3       1 RES1    0.0000
     20 H7        -1.8352   12.3877    5.8419 H         1 RES1    0.0000
     21 H8        -2.2435   13.8574    5.3712 H         1 RES1    0.0000
     22 C6        -1.9521   12.5662    3.7937 C.3       1 RES1    0.0000
     23 H9        -1.6410   13.2162    3.1148 H         1 RES1    0.0000
     24 H10       -1.4641   11.7169    3.6487 H         1 RES1    0.0000
     25 C7        -3.4389   12.3272    3.6159 C.3       1 RES1    0.0000
     26 H11       -3.9140   13.1705    3.8237 H         1 RES1    0.0000
     27 H12       -3.7259   11.6550    4.2836 H         1 RES1    0.0000
     28 C8        -3.8917   11.8512    2.2363 C.3       1 RES1    0.0000
     29 H13       -4.7837   12.2392    2.0525 H         1 RES1    0.0000
     30 H14       -3.2661   12.2159    1.5619 H         1 RES1    0.0000
     31 C9        -3.9767   10.3602    2.0446 C.3       1 RES1    0.0000
     32 H15       -4.4694   10.1867    1.2030 H         1 RES1    0.0000
     33 H16       -4.5172    9.9864    2.7848 H         1 RES1    0.0000
     34 C10       -2.6632    9.5973    1.9881 C.3       1 RES1    0.0000
     35 H17       -2.8587    8.6279    1.9389 H         1 RES1    0.0000
     36 H18       -2.1628    9.7614    2.8263 H         1 RES1    0.0000
     37 C11       -1.7799    9.9810    0.8048 C.3       1 RES1    0.0000
     38 H19       -1.4090   10.8852    0.9631 H         1 RES1    0.0000
     39 H20       -2.3390   10.0236   -0.0108 H         1 RES1    0.0000
     40 C12       -0.6292    9.0105    0.5644 C.3       1 RES1    0.0000
     41 H21       -0.1871    9.2503   -0.2886 H         1 RES1    0.0000
     42 H22       -1.0018    8.0986    0.4617 H         1 RES1    0.0000
     43 C13        0.4283    8.9826    1.6712 C.3       1 RES1    0.0000
     44 H23       -0.0280    8.8557    2.5413 H         1 RES1    0.0000
     45 H24        1.0179    8.2004    1.5259 H         1 RES1    0.0000
     46 C14        1.2873   10.2264    1.7528 C.3       1 RES1    0.0000
     47 H25        0.7000   11.0087    1.9028 H         1 RES1    0.0000
     48 H26        1.7430   10.3561    0.8838 H         1 RES1    0.0000
     49 C15        2.3387   10.1854    2.8542 C.3       1 RES1    0.0000
     50 H27        2.9329    9.4083    2.7054 H         1 RES1    0.0000
     51 H28        1.8885   10.0607    3.7263 H         1 RES1    0.0000
     52 C16        3.1829   11.4564    2.9049 C.3       1 RES1    0.0000
     53 H29        2.5805   12.2389    2.8353 H         1 RES1    0.0000
     54 H30        3.7821   11.4697    2.1174 H         1 RES1    0.0000
     55 C17        4.0351   11.6061    4.1719 C.3       1 RES1    0.0000
     56 H31        4.6229   10.8145    4.2601 H         1 RES1    0.0000
     57 H32        4.6144   12.4032    4.0780 H         1 RES1    0.0000
     58 C18        2.6679    9.9391    8.3720 C.ar      1 RES1    0.0000
     59 C19        1.9887    9.9908    9.6201 C.ar      1 RES1    0.0000
     60 C20        2.0365    8.9252   10.5176 C.ar      1 RES1    0.0000
     61 H33        1.5827    8.9748   11.3501 H         1 RES1    0.0000
     62 C21        2.7491    7.8048   10.1785 C.ar      1 RES1    0.0000
     63 C22        3.4340    7.7087    8.9643 C.ar      1 RES1    0.0000
     64 H34        3.9257    6.9239    8.7511 H         1 RES1    0.0000
     65 C23        3.3897    8.7544    8.0874 C.ar      1 RES1    0.0000
     66 H35        3.8563    8.6848    7.2631 H         1 RES1    0.0000
     67 H36        2.1431   11.7763    7.6293 H         1 RES1    0.0000
     68 O5         1.5154    3.5354    8.4818 O.2       2 RES2    0.0000
     69 O6         1.8629    4.6354    6.6584 O.2       2 RES2    0.0000
     70 O7         0.0779    8.9368    5.8722 O.2       2 RES2    0.0000
     71 O8        -0.7391   10.0676    7.5330 O.2       2 RES2    0.0000
     72 N5        -0.4877    4.6785   11.6739 N.2       2 RES2    0.0000
     73 N6         0.1006    4.5805   10.4211 N.3       2 RES2    0.0000
     74 N7         1.3721    4.5438    7.7810 N.pl3     2 RES2    0.0000
     75 N8        -0.3049    9.0345    7.0397 N.pl3     2 RES2    0.0000
     76 C24       -0.3327    3.6694   12.4500 C.2       2 RES2    0.0000
     77 C25        0.4202    2.4036   12.1408 C.3       2 RES2    0.0000
     78 H37        0.1360    2.0743   11.2509 H         2 RES2    0.0000
     79 H38        0.1724    1.7160   12.8093 H         2 RES2    0.0000
     80 C26        1.9519    2.5643   12.1417 C.3       2 RES2    0.0000
     81 H39        2.3604    1.6690   12.0355 H         2 RES2    0.0000
     82 H40        2.2101    3.1044   11.3537 H         2 RES2    0.0000
     83 C27        2.5399    3.2159   13.3864 C.3       2 RES2    0.0000
     84 H41        2.1951    4.1403   13.4622 H         2 RES2    0.0000
     85 H42        2.2416    2.7142   14.1872 H         2 RES2    0.0000
     86 C28        4.0625    3.2517   13.3590 C.3       2 RES2    0.0000
     87 H43        4.3554    3.7169   12.5369 H         2 RES2    0.0000
     88 H44        4.4030    2.3226   13.3161 H         2 RES2    0.0000
     89 C29        4.6852    3.9484   14.5676 C.3       2 RES2    0.0000
     90 H45        4.2262    3.6345   15.3866 H         2 RES2    0.0000
     91 H46        5.6351    3.6791   14.6345 H         2 RES2    0.0000
     92 C30        4.6119    5.4665   14.5185 C.3       2 RES2    0.0000
     93 H47        3.6787    5.7374   14.3297 H         2 RES2    0.0000
     94 H48        5.1781    5.7917   13.7742 H         2 RES2    0.0000
     95 C31        5.0716    6.1371   15.8272 C.3       2 RES2    0.0000
     96 H49        5.8784    5.6698   16.1604 H         2 RES2    0.0000
     97 H50        5.3241    7.0751   15.6355 H         2 RES2    0.0000
     98 C32        4.0061    6.1275   16.9247 C.3       2 RES2    0.0000
     99 H51        3.5608    5.2438   16.9269 H         2 RES2    0.0000
    100 H52        4.4526    6.2394   17.8017 H         2 RES2    0.0000
    101 C33        2.9515    7.1998   16.7788 C.3       2 RES2    0.0000
    102 H53        2.5154    7.1054   15.8952 H         2 RES2    0.0000
    103 H54        3.3877    8.0887   16.8079 H         2 RES2    0.0000
    104 C34        1.8823    7.1311   17.8727 C.3       2 RES2    0.0000
    105 H55        2.3328    7.0448   18.7504 H         2 RES2    0.0000
    106 H56        1.3800    7.9846   17.8774 H         2 RES2    0.0000
    107 C35        0.8955    5.9895   17.7209 C.3       2 RES2    0.0000
    108 H57        1.4057    5.1543   17.5708 H         2 RES2    0.0000
    109 H58        0.4035    5.8864   18.5736 H         2 RES2    0.0000
    110 C36       -0.1167    6.1407   16.6001 C.3       2 RES2    0.0000
    111 H59        0.3541    6.1189   15.7293 H         2 RES2    0.0000
    112 H60       -0.5651    7.0196   16.6816 H         2 RES2    0.0000
    113 C37       -1.1632    5.0398   16.6302 C.3       2 RES2    0.0000
    114 H61       -1.6106    5.0563   17.5131 H         2 RES2    0.0000
    115 H62       -0.7040    4.1673   16.5463 H         2 RES2    0.0000
    116 C38       -2.2297    5.1319   15.5448 C.3       2 RES2    0.0000
    117 H63       -2.7257    5.9809   15.6608 H         2 RES2    0.0000
    118 H64       -2.8735    4.3909   15.6716 H         2 RES2    0.0000
    119 C39       -1.6924    5.0724   14.1118 C.3       2 RES2    0.0000
    120 H65       -2.4474    5.1738   13.4802 H         2 RES2    0.0000
    121 H66       -1.0718    5.8298   13.9672 H         2 RES2    0.0000
    122 C40       -0.9659    3.7731   13.8112 C.3       2 RES2    0.0000
    123 H67       -0.2592    3.6474   14.4920 H         2 RES2    0.0000
    124 H68       -1.6091    3.0270   13.9113 H         2 RES2    0.0000
    125 C41       -0.0078    5.6273    9.5772 C.ar      2 RES2    0.0000
    126 C42        0.5906    5.6548    8.2869 C.ar      2 RES2    0.0000
    127 C43        0.4764    6.7619    7.4554 C.ar      2 RES2    0.0000
    128 H69        0.8820    6.7622    6.5958 H         2 RES2    0.0000
    129 C44       -0.2273    7.8515    7.8904 C.ar      2 RES2    0.0000
    130 C45       -0.8578    7.8702    9.1431 C.ar      2 RES2    0.0000
    131 H70       -1.3517    8.6326    9.4221 H         2 RES2    0.0000
    132 C46       -0.7522    6.7784    9.9585 C.ar      2 RES2    0.0000
    133 H71       -1.1879    6.7883   10.8018 H         2 RES2    0.0000
    134 H72        0.6109    3.7919   10.1688 H         2 RES2    0.0000
@<TRIPOS>BOND
     1    1    7 2
     2    2    7 2
     3    3    8 2
     4    4    8 2
     5    5    6 1
     6    6   58 1
     7    7   59 1
     8    8   62 1
     9    9    5 2
    10   10    9 1
    11   11   10 1
    12   12   10 1
    13   13   10 1
    14   14   13 1
    15   15   13 1
    16   16   13 1
    17   17   16 1
    18   18   16 1
    19   19   16 1
    20   20   19 1
    21   21   19 1
    22   22   19 1
    23   23   22 1
    24   24   22 1
    25   25   22 1
    26   26   25 1
    27   27   25 1
    28   28   25 1
    29   29   28 1
    30   30   28 1
    31   31   28 1
    32   32   31 1
    33   33   31 1
    34   34   31 1
    35   35   34 1
    36   36   34 1
    37   37   34 1
    38   38   37 1
    39   39   37 1
    40   40   37 1
    41   41   40 1
    42   42   40 1
    43   43   40 1
    44   44   43 1
    45   45   43 1
    46   46   43 1
    47   47   46 1
    48   48   46 1
    49   49   46 1
    50   50   49 1
    51   51   49 1
    52   52   49 1
    53   53   52 1
    54   54   52 1
    55   55    9 1
    56   56   55 1
    57   57   55 1
    58   58   59 ar
    59   59   60 ar
    60   60   61 1
    61   62   60 ar
    62   63   62 ar
    63   64   63 1
    64   65   58 ar
    65   66   65 1
    66   67    6 1
    67   68   74 2
    68   69   74 2
    69   70   75 2
    70   71   75 2
    71   72   73 1
    72   73  125 1
    73   74  126 1
    74   75  129 1
    75   76   72 2
    76   77   76 1
    77   78   77 1
    78   79   77 1
    79   80   77 1
    80   81   80 1
    81   82   80 1
    82   83   80 1
    83   84   83 1
    84   85   83 1
    85   86   83 1
    86   87   86 1
    87   88   86 1
    88   89   86 1
    89   90   89 1
    90   91   89 1
    91   92   89 1
    92   93   92 1
    93   94   92 1
    94   95   92 1
    95   96   95 1
    96   97   95 1
    97   98   95 1
    98   99   98 1
    99  100   98 1
   100  101   98 1
   101  102  101 1
   102  103  101 1
   103  104  101 1
   104  105  104 1
   105  106  104 1
   106  107  104 1
   107  108  107 1
   108  109  107 1
   109  110  107 1
   110  111  110 1
   111  112  110 1
   112  113  110 1
   113  114  113 1
   114  115  113 1
   115  116  113 1
   116  117  116 1
   117  118  116 1
   118  119  116 1
   119  120  119 1
   120  121  119 1
   121  122   76 1
   122  123  122 1
   123  124  122 1
   124  125  126 ar
   125  126  127 ar
   126  127  128 1
   127  129  127 ar
   128  130  129 ar
   129  131  130 1
   130  132  125 ar
   131  133  132 1
   132  134   73 1
   133   52   55 1
   134   63   65 ar
   135  119  122 1
   136  130  132 ar
@<TRIPOS>SUBSTRUCTURE
     1 RES1 1
     2 RES2 68

@<TRIPOS>CRYSIN
  11.0454   11.6730   18.2770  94.3380  98.0910  91.6980   2 1

