# MOL2 file generated by ConQuest
# Please check atom types

@<TRIPOS>MOLECULE
BENPES
    58    63     1
SMALL
NO_CHARGES
****
Generated from CSD

@<TRIPOS>ATOM
      1 C1        12.6387    3.0962    3.9728 C.ar      1 RES1    0.0000
      2 H1        13.1647    2.6966    4.6264 H         1 RES1    0.0000
      3 C2        13.2479    3.8126    2.9274 C.ar      1 RES1    0.0000
      4 H2        14.1753    3.8550    2.8707 H         1 RES1    0.0000
      5 C3        12.4758    4.4458    1.9960 C.ar      1 RES1    0.0000
      6 H3        12.8875    4.9191    1.3086 H         1 RES1    0.0000
      7 C4        11.0611    4.3975    2.0529 C.ar      1 RES1    0.0000
      8 C5        10.4448    3.6234    3.0770 C.ar      1 RES1    0.0000
      9 C6        11.2716    2.9841    4.0322 C.ar      1 RES1    0.0000
     10 H4        10.8827    2.4806    4.7103 H         1 RES1    0.0000
     11 C7         9.0179    3.5308    3.1215 C.ar      1 RES1    0.0000
     12 C8         8.2734    4.2276    2.1998 C.ar      1 RES1    0.0000
     13 C9         8.8819    5.0187    1.1999 C.ar      1 RES1    0.0000
     14 H5         8.3568    5.4883    0.5926 H         1 RES1    0.0000
     15 C10       10.2402    5.0911    1.1286 C.ar      1 RES1    0.0000
     16 H6        10.6362    5.6050    0.4625 H         1 RES1    0.0000
     17 C11        8.2858    3.1588    5.5435 C.ar      1 RES1    0.0000
     18 C12        7.7794    2.3460    6.5578 C.ar      1 RES1    0.0000
     19 H7         7.4135    1.5183    6.3427 H         1 RES1    0.0000
     20 C13        7.8136    2.7533    7.8805 C.ar      1 RES1    0.0000
     21 H8         7.4899    2.2051    8.5591 H         1 RES1    0.0000
     22 C14        8.3437    4.0003    8.1655 C.ar      1 RES1    0.0000
     23 C15        8.8100    4.8511    7.1822 C.ar      1 RES1    0.0000
     24 H9         9.1365    5.6952    7.3978 H         1 RES1    0.0000
     25 C16        8.7791    4.4158    5.8689 C.ar      1 RES1    0.0000
     26 H10        9.0942    4.9737    5.1934 H         1 RES1    0.0000
     27 C17        4.8167    3.4349    3.1200 C.ar      1 RES1    0.0000
     28 C18        4.1511    3.9535    2.0162 C.ar      1 RES1    0.0000
     29 H11        4.6309    4.3812    1.3446 H         1 RES1    0.0000
     30 C19        2.7700    3.8346    1.9146 C.ar      1 RES1    0.0000
     31 H12        2.3171    4.1661    1.1733 H         1 RES1    0.0000
     32 C20        2.0859    3.2121    2.9411 C.ar      1 RES1    0.0000
     33 C21        2.7193    2.7033    4.0566 C.ar      1 RES1    0.0000
     34 H13        2.2325    2.2978    4.7378 H         1 RES1    0.0000
     35 C22        4.0921    2.8115    4.1367 C.ar      1 RES1    0.0000
     36 H14        4.5396    2.4657    4.8748 H         1 RES1    0.0000
     37 C23        6.9269    1.3091    2.6503 C.2       1 RES1    0.0000
     38 C24        5.8169    0.8172    1.9119 C.2       1 RES1    0.0000
     39 H15        4.9343    1.1079    1.9492 H         1 RES1    0.0000
     40 C25        6.3285   -0.1633    1.1452 C.2       1 RES1    0.0000
     41 C26        8.3323    2.6210    4.1215 C.3       1 RES1    0.0000
     42 H16        8.8338    1.7790    4.1434 H         1 RES1    0.0000
     43 C27        5.7698   -1.0682    0.1072 C.3       1 RES1    0.0000
     44 H17        6.1638   -0.8614   -0.7434 H         1 RES1    0.0000
     45 H18        4.8185   -0.9491    0.0565 H         1 RES1    0.0000
     46 H19        5.9666   -1.9792    0.3374 H         1 RES1    0.0000
     47 C28        6.3066    3.5669    3.3154 C.3       1 RES1    0.0000
     48 H20        6.4486    4.1777    4.0680 H         1 RES1    0.0000
     49 N1         8.4138    4.4392    9.5603 N.pl3     1 RES1    0.0000
     50 N2         0.6227    3.0765    2.8435 N.pl3     1 RES1    0.0000
     51 N3         6.9625    2.3098    3.6482 N.3       1 RES1    0.0000
     52 N4         8.0283    0.6684    2.3471 N.2       1 RES1    0.0000
     53 O1         0.0805    3.4324    1.7971 O.2       1 RES1    0.0000
     54 O2         0.0160    2.6224    3.8061 O.2       1 RES1    0.0000
     55 O3         7.9862    3.6970   10.4349 O.2       1 RES1    0.0000
     56 O4         8.8959    5.5479    9.7896 O.2       1 RES1    0.0000
     57 O5         6.8903    4.1779    2.1565 O.3       1 RES1    0.0000
     58 O6         7.6435   -0.2907    1.3890 O.3       1 RES1    0.0000
@<TRIPOS>BOND
     1    1    2 1
     2    3    1 ar
     3    4    3 1
     4    5    3 ar
     5    6    5 1
     6    7    5 ar
     7    8    7 ar
     8    9    1 ar
     9   10    9 1
    10   11    8 ar
    11   12   11 ar
    12   13   12 ar
    13   14   13 1
    14   15    7 ar
    15   16   15 1
    16   17   18 ar
    17   18   19 1
    18   20   18 ar
    19   21   20 1
    20   22   20 ar
    21   23   22 ar
    22   24   23 1
    23   25   17 ar
    24   26   25 1
    25   27   28 ar
    26   28   29 1
    27   30   28 ar
    28   31   30 1
    29   32   30 ar
    30   33   32 ar
    31   34   33 1
    32   35   27 ar
    33   36   35 1
    34   37   38 1
    35   38   39 1
    36   40   38 2
    37   41   11 1
    38   42   41 1
    39   43   40 1
    40   44   43 1
    41   45   43 1
    42   46   43 1
    43   47   27 1
    44   48   47 1
    45   49   22 1
    46   50   32 1
    47   51   37 1
    48   52   37 2
    49   53   50 2
    50   54   50 2
    51   55   49 2
    52   56   49 2
    53   57   12 1
    54   58   40 1
    55    8    9 ar
    56   13   15 ar
    57   17   41 1
    58   23   25 ar
    59   33   35 ar
    60   41   51 1
    61   47   51 1
    62   47   57 1
    63   52   58 1
@<TRIPOS>SUBSTRUCTURE
     1 RES1 1

@<TRIPOS>CRYSIN
  16.5390    8.2743   17.4450  90.0000 100.9300  90.0000 231 1

