# MOL2 file generated by ConQuest
# Please check atom types

@<TRIPOS>MOLECULE
BENVEW
    75    72     3
SMALL
NO_CHARGES
****
Generated from CSD

@<TRIPOS>ATOM
      1 N1         6.0412    3.4551    8.4962 N.pl3     1 RES1    0.0000
      2 N2         5.3104    0.9539    9.7008 N.pl3     1 RES1    0.0000
      3 O1         3.7247    3.6730    6.7557 O.3       1 RES1    0.0000
      4 O2         6.5078    0.8035    9.8291 O.2       1 RES1    0.0000
      5 N3         2.1494    5.4279   13.1078 N.pl3     2 RES2    0.0000
      6 O3         6.4808    2.6529    7.6878 O.2       1 RES1    0.0000
      7 O4         4.3191   14.5006   16.4424 O.3       3 RES3    0.0000
      8 O5         4.5857    0.1141    9.2063 O.2       1 RES1    0.0000
      9 O6         2.0491    6.2389   15.8402 O.3       2 RES2    0.0000
     10 C1         1.4139    6.7012   13.5561 C.3       2 RES2    0.0000
     11 O7         6.6939    4.3674    8.9514 O.2       1 RES1    0.0000
     12 O8         3.4671    8.9077   12.6641 O.2       2 RES2    0.0000
     13 N4         6.1109   12.3923   16.2147 N.pl3     3 RES3    0.0000
     14 C2         4.5938    3.2556    8.9899 C.3       1 RES1    0.0000
     15 O9         3.3395    5.3729   13.2245 O.2       2 RES2    0.0000
     16 C3         4.6711    2.2692   10.2064 C.3       1 RES1    0.0000
     17 C4         4.6069   12.0987   16.3266 C.3       3 RES3    0.0000
     18 N5         5.1741    9.6654   16.4389 N.pl3     3 RES3    0.0000
     19 N6         2.9216    8.0426   12.0583 N.pl3     2 RES2    0.0000
     20 O10        6.3584    9.5902   16.5556 O.2       3 RES3    0.0000
     21 O11        6.6551   12.1345   15.1639 O.2       3 RES3    0.0000
     22 O12        3.4639    7.3868   11.1866 O.2       2 RES2    0.0000
     23 C5         2.1482    7.1904   14.8074 C.3       2 RES2    0.0000
     24 C6         1.4329    7.7165   12.3720 C.3       2 RES2    0.0000
     25 C7         4.4307   10.7908   17.1673 C.3       3 RES3    0.0000
     26 C8         5.5451    2.7699   11.3465 C.3       1 RES1    0.0000
     27 C9         3.2781    1.9263   10.7268 C.3       1 RES1    0.0000
     28 C10        3.7892    2.7146    7.7985 C.3       1 RES1    0.0000
     29 O13        6.6798   12.8406   17.1848 O.2       3 RES3    0.0000
     30 C11       -0.0143    6.3109   13.9087 C.3       2 RES2    0.0000
     31 O14        1.5137    4.5296   12.6342 O.2       2 RES2    0.0000
     32 C12        3.9949   13.2851   17.0574 C.3       3 RES3    0.0000
     33 C13        0.7765    9.0355   12.7631 C.3       2 RES2    0.0000
     34 C14        5.0173   10.8263   18.5658 C.3       3 RES3    0.0000
     35 C15        4.0633    4.6098    9.4221 C.3       1 RES1    0.0000
     36 O15        4.5842    8.9120   15.7602 O.2       3 RES3    0.0000
     37 C16        4.0344   11.9945   14.9234 C.3       3 RES3    0.0000
     38 C17        0.8174    7.1837   11.0971 C.3       2 RES2    0.0000
     39 C18        2.9558   10.4043   17.2391 C.3       3 RES3    0.0000
     40 H1         4.3231    3.5295    6.2143 H         1 RES1    0.0000
     41 H2         3.7262   14.7068   15.9149 H         3 RES3    0.0000
     42 H3         2.7858    5.9061   15.9768 H         2 RES2    0.0000
     43 H4         3.0822    7.3448   14.5951 H         2 RES2    0.0000
     44 H5         1.7639    8.0315   15.1014 H         2 RES2    0.0000
     45 H6         6.4027    3.0288   11.0027 H         1 RES1    0.0000
     46 H7         5.6583    2.0697   11.9931 H         1 RES1    0.0000
     47 H8         5.1256    3.5257   11.7632 H         1 RES1    0.0000
     48 H9         3.3510    1.2775   11.4294 H         1 RES1    0.0000
     49 H10        2.7490    1.5653   10.0123 H         1 RES1    0.0000
     50 H11        2.8589    2.7200   11.0668 H         1 RES1    0.0000
     51 H12        4.2063    1.9048    7.4678 H         1 RES1    0.0000
     52 H13        2.8905    2.4917    8.0890 H         1 RES1    0.0000
     53 H14       -0.4645    5.9982   13.1206 H         2 RES2    0.0000
     54 H15       -0.4771    7.0743   14.2613 H         2 RES2    0.0000
     55 H16       -0.0019    5.6127   14.5686 H         2 RES2    0.0000
     56 H17        3.0302   13.1857   17.0778 H         3 RES3    0.0000
     57 H18        4.3138   13.2950   17.9731 H         3 RES3    0.0000
     58 H19       -0.1502    8.8851   12.9658 H         2 RES2    0.0000
     59 H20        0.8473    9.6562   12.0351 H         2 RES2    0.0000
     60 H21        1.2176    9.3953   13.5362 H         2 RES2    0.0000
     61 H22        5.9337   11.1083   18.5214 H         3 RES3    0.0000
     62 H23        4.9707    9.9497   18.9547 H         3 RES3    0.0000
     63 H24        4.5180   11.4440   19.1072 H         3 RES3    0.0000
     64 H25        3.1561    4.5174    9.7227 H         1 RES1    0.0000
     65 H26        4.0945    5.2175    8.6793 H         1 RES1    0.0000
     66 H27        4.6038    4.9509   10.1383 H         1 RES1    0.0000
     67 H28        4.4032   11.2234   14.4846 H         3 RES3    0.0000
     68 H29        4.2587   12.7848   14.4271 H         3 RES3    0.0000
     69 H30        3.0797   11.9082   14.9732 H         3 RES3    0.0000
     70 H31        1.2433    6.3569   10.8568 H         2 RES2    0.0000
     71 H32        0.9390    7.8224   10.3903 H         2 RES2    0.0000
     72 H33       -0.1207    7.0321   11.2326 H         2 RES2    0.0000
     73 H34        2.4861   11.0373   17.7896 H         3 RES3    0.0000
     74 H35        2.8726    9.5277   17.6216 H         3 RES3    0.0000
     75 H36        2.5807   10.4082   16.3571 H         3 RES3    0.0000
@<TRIPOS>BOND
     1    1    6 2
     2    2    4 2
     3    3   28 1
     4    5   10 1
     5    7   32 1
     6    8    2 2
     7    9   23 1
     8   10   23 1
     9   11    1 2
    10   12   19 2
    11   13   17 1
    12   14    1 1
    13   15    5 2
    14   16    2 1
    15   17   25 1
    16   18   20 2
    17   19   22 2
    18   21   13 2
    19   23   43 1
    20   24   10 1
    21   25   18 1
    22   26   16 1
    23   27   16 1
    24   28   14 1
    25   29   13 2
    26   30   10 1
    27   31    5 2
    28   32   17 1
    29   33   24 1
    30   34   25 1
    31   35   14 1
    32   36   18 2
    33   37   17 1
    34   38   24 1
    35   39   25 1
    36   40    3 1
    37   41    7 1
    38   42    9 1
    39   44   23 1
    40   45   26 1
    41   46   26 1
    42   47   26 1
    43   48   27 1
    44   49   27 1
    45   50   27 1
    46   51   28 1
    47   52   28 1
    48   53   30 1
    49   54   30 1
    50   55   30 1
    51   56   32 1
    52   57   32 1
    53   58   33 1
    54   59   33 1
    55   60   33 1
    56   61   34 1
    57   62   34 1
    58   63   34 1
    59   64   35 1
    60   65   35 1
    61   66   35 1
    62   67   37 1
    63   68   37 1
    64   69   37 1
    65   70   38 1
    66   71   38 1
    67   72   38 1
    68   73   39 1
    69   74   39 1
    70   75   39 1
    71   14   16 1
    72   19   24 1
@<TRIPOS>SUBSTRUCTURE
     1 RES1 1
     2 RES2 5
     3 RES3 7

@<TRIPOS>CRYSIN
   6.3512   19.1820   22.1160  90.0000  91.6230  90.0000 231 1

