# MOL2 file generated by ConQuest
# Please check atom types

@<TRIPOS>MOLECULE
BENZAV
    42    45     1
SMALL
NO_CHARGES
****
Generated from CSD

@<TRIPOS>ATOM
      1 O1         3.3641    5.2729    3.1243 O.3       1 RES1    0.0000
      2 O2        -0.3256    2.8999    5.1709 O.2       1 RES1    0.0000
      3 N1         0.4169    3.4982    4.3134 N.3       1 RES1    0.0000
      4 C1         1.2689    2.7350    3.5079 C.ar      1 RES1    0.0000
      5 C2         1.2478    1.3412    3.6896 C.ar      1 RES1    0.0000
      6 C3         2.0413    0.5405    2.9225 C.ar      1 RES1    0.0000
      7 C4         2.8916    1.0964    1.9721 C.ar      1 RES1    0.0000
      8 C5         2.9094    2.4868    1.8105 C.ar      1 RES1    0.0000
      9 C6         2.1094    3.3351    2.5557 C.ar      1 RES1    0.0000
     10 C7         2.1779    4.8326    2.4075 C.3       1 RES1    0.0000
     11 C8         0.9246    5.4887    2.9887 C.3       1 RES1    0.0000
     12 C9         0.4561    4.9941    4.3679 C.3       1 RES1    0.0000
     13 C10        1.3751    5.3697    5.5319 C.3       1 RES1    0.0000
     14 C11        1.3556    6.8792    5.7915 C.3       1 RES1    0.0000
     15 C12       -0.0509    7.3738    6.0410 C.3       1 RES1    0.0000
     16 C13       -0.9806    7.0084    4.8862 C.3       1 RES1    0.0000
     17 C14       -0.9698    5.5091    4.6317 C.3       1 RES1    0.0000
     18 C15        2.3836    5.3459    0.9588 C.3       1 RES1    0.0000
     19 C16        3.3912    6.4406    1.1003 C.3       1 RES1    0.0000
     20 C17        4.0493    6.2401    2.3841 C.3       1 RES1    0.0000
     21 H1         0.5794    0.9009    4.4215 H         1 RES1    0.0000
     22 H2         2.0277   -0.5779    3.0733 H         1 RES1    0.0000
     23 H3         3.5189    0.4929    1.3147 H         1 RES1    0.0000
     24 H4         3.4701    2.8727    1.1137 H         1 RES1    0.0000
     25 H5         0.2144    5.2865    2.3196 H         1 RES1    0.0000
     26 H6         1.0839    6.5103    3.0063 H         1 RES1    0.0000
     27 H7         1.0238    4.8275    6.3726 H         1 RES1    0.0000
     28 H8         2.3848    4.9635    5.3761 H         1 RES1    0.0000
     29 H9         1.7165    7.4452    5.0328 H         1 RES1    0.0000
     30 H10        1.9495    7.0373    6.6238 H         1 RES1    0.0000
     31 H11       -0.5065    6.9353    6.9672 H         1 RES1    0.0000
     32 H12       -0.2303    8.3631    6.1465 H         1 RES1    0.0000
     33 H13       -1.9862    7.3262    5.1668 H         1 RES1    0.0000
     34 H14       -0.7917    7.5982    3.9525 H         1 RES1    0.0000
     35 H15       -1.5320    5.1335    3.8520 H         1 RES1    0.0000
     36 H16       -1.2918    5.0315    5.4515 H         1 RES1    0.0000
     37 H17        1.5214    5.6434    0.4941 H         1 RES1    0.0000
     38 H18        2.8082    4.6575    0.3768 H         1 RES1    0.0000
     39 H19        2.8935    7.4112    1.0719 H         1 RES1    0.0000
     40 H20        4.1271    6.3913    0.3015 H         1 RES1    0.0000
     41 H21        5.0758    5.9494    2.2359 H         1 RES1    0.0000
     42 H22        4.0301    7.2073    2.9393 H         1 RES1    0.0000
@<TRIPOS>BOND
     1    1   10 1
     2    2    3 1
     3    3    4 1
     4    4    5 ar
     5    5    6 ar
     6    6    7 ar
     7    7    8 ar
     8    8    9 ar
     9    9    4 ar
    10   10    9 1
    11   11   10 1
    12   12    3 1
    13   13   12 1
    14   14   13 1
    15   15   14 1
    16   16   15 1
    17   17   12 1
    18   18   10 1
    19   19   18 1
    20   20    1 1
    21   21    5 1
    22   22    6 1
    23   23    7 1
    24   24    8 1
    25   25   11 1
    26   26   11 1
    27   27   13 1
    28   28   13 1
    29   29   14 1
    30   30   14 1
    31   31   15 1
    32   32   15 1
    33   33   16 1
    34   34   16 1
    35   35   17 1
    36   36   17 1
    37   37   18 1
    38   38   18 1
    39   39   19 1
    40   40   19 1
    41   41   20 1
    42   42   20 1
    43   11   12 1
    44   16   17 1
    45   19   20 1
@<TRIPOS>SUBSTRUCTURE
     1 RES1 1

@<TRIPOS>CRYSIN
  10.2520   17.4990    8.3740  90.0000  90.0000 103.7400  14 3

