# MOL2 file generated by ConQuest
# Please check atom types

@<TRIPOS>MOLECULE
BENZAN
    26    28     1
SMALL
NO_CHARGES
****
Generated from CSD

@<TRIPOS>ATOM
      1 C1        -0.8823    0.8714    9.4577 C.2       1 RES1    0.0000
      2 C2         4.0806    0.9345    9.5345 C.ar      1 RES1    0.0000
      3 C3         5.3625    1.2688    9.9660 C.ar      1 RES1    0.0000
      4 C4         6.2770    1.7654    9.0691 C.ar      1 RES1    0.0000
      5 C5         5.9410    1.9592    7.7519 C.ar      1 RES1    0.0000
      6 C6         4.6453    1.6136    7.2819 C.ar      1 RES1    0.0000
      7 C7        -2.2517    0.6721    9.5887 C.2       1 RES1    0.0000
      8 C8        -2.8992    0.0996    8.5336 C.2       1 RES1    0.0000
      9 C9        -2.2260   -0.3370    7.3497 C.2       1 RES1    0.0000
     10 C10       -0.8633   -0.1755    7.2277 C.2       1 RES1    0.0000
     11 C11       -0.1749    0.4620    8.2896 C.2       1 RES1    0.0000
     12 C12        1.1416    0.8523    8.5268 C.2       1 RES1    0.0000
     13 C13        2.3350    0.7504    7.6683 C.2       1 RES1    0.0000
     14 C14        3.7112    1.1174    8.1970 C.ar      1 RES1    0.0000
     15 H1         3.4080    0.3581   10.3253 H         1 RES1    0.0000
     16 H2         5.4019    1.4284   10.9805 H         1 RES1    0.0000
     17 H3         6.9346    1.4906    9.3763 H         1 RES1    0.0000
     18 H4         6.4395    2.3157    6.7103 H         1 RES1    0.0000
     19 H5         4.2506    1.8176    6.1680 H         1 RES1    0.0000
     20 H6        -2.6231    1.1365   10.4382 H         1 RES1    0.0000
     21 H7        -4.0050    0.0311    8.6533 H         1 RES1    0.0000
     22 H8        -2.5590   -0.8446    6.5295 H         1 RES1    0.0000
     23 H9        -0.3475   -0.2608    6.3036 H         1 RES1    0.0000
     24 N1        -0.0749    1.4685   10.3501 N.2       1 RES1    0.0000
     25 O1         1.2041    1.4334    9.7514 O.3       1 RES1    0.0000
     26 O2         2.1989    0.3845    6.5115 O.2       1 RES1    0.0000
@<TRIPOS>BOND
     1    1    7 1
     2    2    3 ar
     3    3    4 ar
     4    4    5 ar
     5    5    6 ar
     6    6   14 ar
     7    7    8 2
     8    8    9 1
     9    9   10 2
    10   10   11 1
    11   11    1 1
    12   12   11 2
    13   13   12 1
    14   14    2 ar
    15   15    2 1
    16   16    3 1
    17   17    4 1
    18   18    5 1
    19   19    6 1
    20   20    7 1
    21   21    8 1
    22   22    9 1
    23   23   10 1
    24   24    1 2
    25   25   12 1
    26   26   13 2
    27   13   14 1
    28   24   25 1
@<TRIPOS>SUBSTRUCTURE
     1 RES1 1

@<TRIPOS>CRYSIN
  12.3910    3.8920   23.0010  90.0000 100.8000  90.0000  14 1

