# MOL2 file generated by ConQuest
# Please check atom types

@<TRIPOS>MOLECULE
BEPKEM
    65    66     1
SMALL
NO_CHARGES
****
Generated from CSD

@<TRIPOS>ATOM
      1 O1         7.4126    2.8138   -0.0493 O.2       1 RES1    0.0000
      2 O2         7.0220    1.8493   -1.9120 O.2       1 RES1    0.0000
      3 O3         2.8489    0.0909   -3.1663 O.2       1 RES1    0.0000
      4 O4         1.2599    0.0191   -1.7088 O.2       1 RES1    0.0000
      5 N1         4.7816    3.6818    2.8307 N.2       1 RES1    0.0000
      6 N2         5.4365    3.2107    1.6692 N.3       1 RES1    0.0000
      7 N3         6.6359    2.2574   -0.8287 N.pl3     1 RES1    0.0000
      8 N4         2.4009    0.3699   -2.0801 N.pl3     1 RES1    0.0000
      9 C1         5.5953    4.2183    3.6673 C.2       1 RES1    0.0000
     10 C2         4.8678    4.7300    4.9249 C.3       1 RES1    0.0000
     11 C3         5.0656    3.9409    6.1407 C.3       1 RES1    0.0000
     12 C4         4.5580    2.5603    6.1057 C.3       1 RES1    0.0000
     13 C5         4.7916    1.7959    7.3576 C.3       1 RES1    0.0000
     14 C6         5.6414    0.6504    7.3248 C.3       1 RES1    0.0000
     15 C7         5.8236   -0.0741    8.6285 C.3       1 RES1    0.0000
     16 C8         6.7077   -1.2283    8.6260 C.3       1 RES1    0.0000
     17 C9         8.0977   -1.0051    8.1326 C.2       1 RES1    0.0000
     18 C10        8.7555   -1.4125    7.1188 C.2       1 RES1    0.0000
     19 C11       10.0709   -1.1701    6.6625 C.3       1 RES1    0.0000
     20 C12       10.2185   -0.5428    5.2825 C.3       1 RES1    0.0000
     21 C13        9.4658    0.7931    5.1813 C.3       1 RES1    0.0000
     22 C14        9.7537    1.4954    3.9439 C.3       1 RES1    0.0000
     23 C15        9.0743    2.9262    3.8174 C.3       1 RES1    0.0000
     24 C16        7.7234    2.9014    3.8891 C.3       1 RES1    0.0000
     25 C17        7.0564    4.3354    3.5708 C.3       1 RES1    0.0000
     26 C18        4.6978    2.5427    0.7419 C.ar      1 RES1    0.0000
     27 C19        5.2204    2.0549   -0.4833 C.ar      1 RES1    0.0000
     28 C20        4.4923    1.3614   -1.4305 C.ar      1 RES1    0.0000
     29 C21        3.1977    1.1534   -1.1020 C.ar      1 RES1    0.0000
     30 C22        2.6134    1.6205    0.0457 C.ar      1 RES1    0.0000
     31 C23        3.3555    2.2972    0.9378 C.ar      1 RES1    0.0000
     32 H1         5.1533    5.8045    5.0491 H         1 RES1    0.0000
     33 H2         3.8411    4.7826    4.6782 H         1 RES1    0.0000
     34 H3         6.2192    3.7416    6.3312 H         1 RES1    0.0000
     35 H4         4.7149    4.5339    7.0155 H         1 RES1    0.0000
     36 H5         3.4763    2.7827    5.9134 H         1 RES1    0.0000
     37 H6         4.8825    1.8899    5.2724 H         1 RES1    0.0000
     38 H7         5.0408    2.3116    8.2255 H         1 RES1    0.0000
     39 H8         3.7213    1.3296    7.5124 H         1 RES1    0.0000
     40 H9         5.4531   -0.0781    6.5293 H         1 RES1    0.0000
     41 H10        6.4089    1.2355    6.9722 H         1 RES1    0.0000
     42 H11        6.0867    0.6138    9.3419 H         1 RES1    0.0000
     43 H12        4.7400   -0.4663    9.0466 H         1 RES1    0.0000
     44 H13        6.9145   -1.7154    9.6480 H         1 RES1    0.0000
     45 H14        6.2901   -1.8843    7.9374 H         1 RES1    0.0000
     46 H15        8.5247   -0.1698    8.7801 H         1 RES1    0.0000
     47 H16        8.0782   -2.0725    6.5437 H         1 RES1    0.0000
     48 H17       10.6553   -0.5460    7.3720 H         1 RES1    0.0000
     49 H18       10.5396   -2.0159    6.6157 H         1 RES1    0.0000
     50 H19       11.2980   -0.3762    5.0959 H         1 RES1    0.0000
     51 H20        9.9570   -1.2275    4.5053 H         1 RES1    0.0000
     52 H21        8.5703    0.4838    5.1680 H         1 RES1    0.0000
     53 H22        9.7504    1.5105    5.9350 H         1 RES1    0.0000
     54 H23       10.8500    1.5400    3.7850 H         1 RES1    0.0000
     55 H24        9.4784    0.9390    3.1152 H         1 RES1    0.0000
     56 H25        9.4439    3.4777    4.6530 H         1 RES1    0.0000
     57 H26        9.4210    3.3773    2.8703 H         1 RES1    0.0000
     58 H27        7.3051    2.1418    3.2268 H         1 RES1    0.0000
     59 H28        7.4468    2.6225    4.7106 H         1 RES1    0.0000
     60 H29        7.5214    4.9452    4.3396 H         1 RES1    0.0000
     61 H30        7.3411    4.7587    2.6290 H         1 RES1    0.0000
     62 H31        5.0733    1.0928   -2.3517 H         1 RES1    0.0000
     63 H32        1.7352    1.4842    0.2449 H         1 RES1    0.0000
     64 H33        2.8194    2.7054    1.8331 H         1 RES1    0.0000
     65 H34        6.3830    3.3909    1.4802 H         1 RES1    0.0000
@<TRIPOS>BOND
     1    1    7 2
     2    2    7 2
     3    3    8 2
     4    4    8 2
     5    5    6 1
     6    6   26 1
     7    7   27 1
     8    8   29 1
     9    9    5 2
    10   10    9 1
    11   11   10 1
    12   12   11 1
    13   13   12 1
    14   14   13 1
    15   15   14 1
    16   16   15 1
    17   17   16 1
    18   18   17 2
    19   19   18 1
    20   20   19 1
    21   21   20 1
    22   22   21 1
    23   23   22 1
    24   24   23 1
    25   25    9 1
    26   26   27 ar
    27   27   28 ar
    28   28   29 ar
    29   29   30 ar
    30   30   31 ar
    31   31   26 ar
    32   32   10 1
    33   33   10 1
    34   34   11 1
    35   35   11 1
    36   36   12 1
    37   37   12 1
    38   38   13 1
    39   39   13 1
    40   40   14 1
    41   41   14 1
    42   42   15 1
    43   43   15 1
    44   44   16 1
    45   45   16 1
    46   46   17 1
    47   47   18 1
    48   48   19 1
    49   49   19 1
    50   50   20 1
    51   51   20 1
    52   52   21 1
    53   53   21 1
    54   54   22 1
    55   55   22 1
    56   56   23 1
    57   57   23 1
    58   58   24 1
    59   59   24 1
    60   60   25 1
    61   61   25 1
    62   62   28 1
    63   63   30 1
    64   64   31 1
    65   65    6 1
    66   24   25 1
@<TRIPOS>SUBSTRUCTURE
     1 RES1 1

@<TRIPOS>CRYSIN
   8.3640    7.9710   36.0250  90.0000  91.4400  90.0000  14 1

