# MOL2 file generated by ConQuest
# Please check atom types

@<TRIPOS>MOLECULE
BEPQET
    38    42     1
SMALL
NO_CHARGES
****
Generated from CSD

@<TRIPOS>ATOM
      1 O1         4.9845    6.7021    7.5685 O.2       1 RES1    0.0000
      2 O2         8.0134    6.5771   -0.2781 O.2       1 RES1    0.0000
      3 O3         6.7744    5.3899   -1.5599 O.2       1 RES1    0.0000
      4 N1         2.8547    6.0482    3.3179 N.pl3     1 RES1    0.0000
      5 N2         6.9572    6.0058   -0.5298 N.pl3     1 RES1    0.0000
      6 C1         1.4749    6.4841    6.6967 C.ar      1 RES1    0.0000
      7 C2         0.2251    6.4931    7.3321 C.ar      1 RES1    0.0000
      8 H1        -0.5494    6.4782    6.8174 H         1 RES1    0.0000
      9 C3         0.1269    6.5221    8.6949 C.ar      1 RES1    0.0000
     10 H2        -0.7121    6.5132    9.0944 H         1 RES1    0.0000
     11 C4         1.2593    6.5645    9.4852 C.ar      1 RES1    0.0000
     12 H3         1.1864    6.5942   10.4120 H         1 RES1    0.0000
     13 C5         2.5020    6.5622    8.8809 C.ar      1 RES1    0.0000
     14 H4         3.2679    6.5794    9.4088 H         1 RES1    0.0000
     15 C6         2.6258    6.5355    7.5006 C.ar      1 RES1    0.0000
     16 C7         3.9802    6.5593    6.8700 C.2       1 RES1    0.0000
     17 C8         4.0794    6.3555    5.4439 C.2       1 RES1    0.0000
     18 H5         4.9143    6.2357    5.0526 H         1 RES1    0.0000
     19 C9         2.9717    6.3383    4.6760 C.2       1 RES1    0.0000
     20 C10        1.6291    6.5288    5.2309 C.3       1 RES1    0.0000
     21 C11        0.7387    7.4816    4.4301 C.3       1 RES1    0.0000
     22 H6        -0.0049    7.8989    4.8923 H         1 RES1    0.0000
     23 H7         1.1624    8.0358    3.7562 H         1 RES1    0.0000
     24 C12        0.6604    6.0215    4.1733 C.3       1 RES1    0.0000
     25 H8        -0.1377    5.5179    4.4389 H         1 RES1    0.0000
     26 C13        1.4946    5.5558    3.0060 C.3       1 RES1    0.0000
     27 H9         1.4827    4.5881    2.9359 H         1 RES1    0.0000
     28 H10        1.1695    5.9359    2.1756 H         1 RES1    0.0000
     29 C14        3.8641    6.0743    2.3622 C.ar      1 RES1    0.0000
     30 C15        3.7124    5.3609    1.1636 C.ar      1 RES1    0.0000
     31 H11        2.9249    4.8916    1.0045 H         1 RES1    0.0000
     32 C16        4.7176    5.3460    0.2179 C.ar      1 RES1    0.0000
     33 H12        4.6109    4.8655   -0.5711 H         1 RES1    0.0000
     34 C17        5.8790    6.0482    0.4522 C.ar      1 RES1    0.0000
     35 C18        6.0357    6.8092    1.5882 C.ar      1 RES1    0.0000
     36 H13        6.8102    7.3076    1.7184 H         1 RES1    0.0000
     37 C19        5.0295    6.8233    2.5349 C.ar      1 RES1    0.0000
     38 H14        5.1308    7.3418    3.3003 H         1 RES1    0.0000
@<TRIPOS>BOND
     1    1   16 2
     2    2    5 2
     3    3    5 2
     4    4   19 1
     5    5   34 1
     6    6    7 ar
     7    7    8 1
     8    9    7 ar
     9   10    9 1
    10   11    9 ar
    11   12   11 1
    12   13   11 ar
    13   14   13 1
    14   15    6 ar
    15   16   15 1
    16   17   16 1
    17   18   17 1
    18   19   17 2
    19   20    6 1
    20   21   20 1
    21   22   21 1
    22   23   21 1
    23   24   20 1
    24   25   24 1
    25   26    4 1
    26   27   26 1
    27   28   26 1
    28   29    4 1
    29   30   29 ar
    30   31   30 1
    31   32   30 ar
    32   33   32 1
    33   34   32 ar
    34   35   34 ar
    35   36   35 1
    36   37   29 ar
    37   38   37 1
    38   13   15 ar
    39   19   20 1
    40   21   24 1
    41   24   26 1
    42   35   37 ar
@<TRIPOS>SUBSTRUCTURE
     1 RES1 1

@<TRIPOS>CRYSIN
   7.9520    7.4385   12.5920  90.0000  95.9130  90.0000   4 1

