# MOL2 file generated by ConQuest
# Please check atom types

@<TRIPOS>MOLECULE
BEQCUW
    68    72     2
SMALL
NO_CHARGES
****
Generated from CSD

@<TRIPOS>ATOM
      1 O1        -5.5195    6.0107   11.4169 O.3       1 RES1    0.0000
      2 N1        -6.2483    4.8523   11.9695 N.3       1 RES1    0.0000
      3 N2        -7.6872    6.2713   16.3015 N.1       1 RES1    0.0000
      4 N3        -7.8870    6.2751    9.0383 N.1       1 RES1    0.0000
      5 C1        -7.0337    6.2836   13.7740 C.3       1 RES1    0.0000
      6 H1        -6.4520    7.0603   13.5777 H         1 RES1    0.0000
      7 H2        -7.8453    6.3590   13.2136 H         1 RES1    0.0000
      8 C2        -6.2920    4.9899   13.4286 C.3       1 RES1    0.0000
      9 H3        -6.8559    4.2380   13.7709 H         1 RES1    0.0000
     10 C3        -4.9427    4.8687   14.1211 C.3       1 RES1    0.0000
     11 H4        -5.0634    4.9083   15.1039 H         1 RES1    0.0000
     12 H5        -4.3565    5.6193   13.8500 H         1 RES1    0.0000
     13 C4        -4.2961    3.5376   13.7297 C.3       1 RES1    0.0000
     14 H6        -3.4158    3.4460   14.1730 H         1 RES1    0.0000
     15 H7        -4.8703    2.7855   14.0210 H         1 RES1    0.0000
     16 C5        -4.1211    3.5021   12.2203 C.3       1 RES1    0.0000
     17 H8        -3.7295    2.6299   11.9628 H         1 RES1    0.0000
     18 H9        -3.4833    4.2102   11.9533 H         1 RES1    0.0000
     19 C6        -5.4360    3.7023   11.4584 C.3       1 RES1    0.0000
     20 C7        -6.3634    2.4909   11.3618 C.3       1 RES1    0.0000
     21 H10       -5.8440    1.6507   11.2979 H         1 RES1    0.0000
     22 H11       -6.9646    2.4407   12.1465 H         1 RES1    0.0000
     23 C8        -7.1564    2.7428   10.0797 C.3       1 RES1    0.0000
     24 H12       -7.8645    3.4192   10.2244 H         1 RES1    0.0000
     25 H13       -7.5691    1.9080    9.7463 H         1 RES1    0.0000
     26 C9        -6.0849    3.2586    9.1121 C.3       1 RES1    0.0000
     27 H14       -5.5642    2.5095    8.7267 H         1 RES1    0.0000
     28 H15       -6.4934    3.7792    8.3752 H         1 RES1    0.0000
     29 C10       -5.1995    4.1485    9.9901 C.3       1 RES1    0.0000
     30 H16       -4.2385    4.0187    9.7463 H         1 RES1    0.0000
     31 C11       -5.5314    5.6599   10.0345 C.3       1 RES1    0.0000
     32 H17       -4.8213    6.1732    9.5532 H         1 RES1    0.0000
     33 C12       -7.4153    6.3037   15.1923 C.1       1 RES1    0.0000
     34 C13       -6.8614    6.0003    9.4683 C.1       1 RES1    0.0000
     35 O2        -2.6176    5.3371    4.3219 O.3       2 RES2    0.0000
     36 N4        -3.3687    4.1464    3.8827 N.3       2 RES2    0.0000
     37 N5        -4.8563    5.3595   -0.5117 N.1       2 RES2    0.0000
     38 N6        -4.9210    5.7738    6.7401 N.1       2 RES2    0.0000
     39 C14       -4.1960    5.4624    2.0164 C.3       2 RES2    0.0000
     40 H18       -5.0070    5.5649    2.5743 H         2 RES2    0.0000
     41 H19       -3.6127    6.2464    2.1753 H         2 RES2    0.0000
     42 C15       -3.4532    4.1816    2.4245 C.3       2 RES2    0.0000
     43 H20       -4.0357    3.4155    2.1532 H         2 RES2    0.0000
     44 C16       -2.1272    4.0034    1.6877 C.3       2 RES2    0.0000
     45 H21       -2.2851    3.9731    0.7093 H         2 RES2    0.0000
     46 H22       -1.5273    4.7661    1.8840 H         2 RES2    0.0000
     47 C17       -1.4817    2.7004    2.1513 C.3       2 RES2    0.0000
     48 H23       -2.0703    1.9358    1.9315 H         2 RES2    0.0000
     49 H24       -0.6165    2.5701    1.6877 H         2 RES2    0.0000
     50 C18       -1.2577    2.7642    3.6582 C.3       2 RES2    0.0000
     51 H25       -0.5988    3.4759    3.8567 H         2 RES2    0.0000
     52 H26       -0.8737    1.9042    3.9644 H         2 RES2    0.0000
     53 C19       -2.5472    3.0438    4.4498 C.3       2 RES2    0.0000
     54 C20       -3.4730    1.8380    4.6680 C.3       2 RES2    0.0000
     55 H27       -2.9505    1.0019    4.7623 H         2 RES2    0.0000
     56 H28       -4.1091    1.7385    3.9169 H         2 RES2    0.0000
     57 C21       -4.2108    2.1762    5.9744 C.3       2 RES2    0.0000
     58 H29       -4.9315    2.8374    5.8199 H         2 RES2    0.0000
     59 H30       -4.5982    1.3649    6.3899 H         2 RES2    0.0000
     60 C22       -3.0952    2.7654    6.8443 C.3       2 RES2    0.0000
     61 H31       -2.5548    2.0474    7.2607 H         2 RES2    0.0000
     62 H32       -3.4699    3.3391    7.5583 H         2 RES2    0.0000
     63 C23       -2.2516    3.5899    5.8655 C.3       2 RES2    0.0000
     64 H33       -1.2798    3.4804    6.0764 H         2 RES2    0.0000
     65 C24       -2.5912    5.0841    5.7262 C.3       2 RES2    0.0000
     66 H34       -1.8711    5.6322    6.1524 H         2 RES2    0.0000
     67 C25       -4.5813    5.4219    0.6038 C.1       2 RES2    0.0000
     68 C26       -3.9111    5.4607    6.3044 C.1       2 RES2    0.0000
@<TRIPOS>BOND
     1    1    2 1
     2    2    8 1
     3    3   33 3
     4    4   34 3
     5    5    6 1
     6    7    5 1
     7    8    5 1
     8    9    8 1
     9   10    8 1
    10   11   10 1
    11   12   10 1
    12   13   10 1
    13   14   13 1
    14   15   13 1
    15   16   13 1
    16   17   16 1
    17   18   16 1
    18   19    2 1
    19   20   19 1
    20   21   20 1
    21   22   20 1
    22   23   20 1
    23   24   23 1
    24   25   23 1
    25   26   23 1
    26   27   26 1
    27   28   26 1
    28   29   19 1
    29   30   29 1
    30   31    1 1
    31   32   31 1
    32   33    5 1
    33   34   31 1
    34   35   36 1
    35   36   42 1
    36   37   67 3
    37   38   68 3
    38   39   40 1
    39   41   39 1
    40   42   39 1
    41   43   42 1
    42   44   42 1
    43   45   44 1
    44   46   44 1
    45   47   44 1
    46   48   47 1
    47   49   47 1
    48   50   47 1
    49   51   50 1
    50   52   50 1
    51   53   36 1
    52   54   53 1
    53   55   54 1
    54   56   54 1
    55   57   54 1
    56   58   57 1
    57   59   57 1
    58   60   57 1
    59   61   60 1
    60   62   60 1
    61   63   53 1
    62   64   63 1
    63   65   35 1
    64   66   65 1
    65   67   39 1
    66   68   65 1
    67   16   19 1
    68   26   29 1
    69   29   31 1
    70   50   53 1
    71   60   63 1
    72   63   65 1
@<TRIPOS>SUBSTRUCTURE
     1 RES1 1
     2 RES2 35

@<TRIPOS>CRYSIN
   5.8416    6.9482   31.7123  86.9810  89.7330  68.6350   2 1

