# MOL2 file generated by ConQuest
# Please check atom types

@<TRIPOS>MOLECULE
BEQPIX
    75    78     2
SMALL
USER_CHARGES
****
Generated from CSD

@<TRIPOS>ATOM
      1 O1         0.6993    6.6879    6.7093 O.2       1 RES1    0.0000
      2 O2        -1.7696    2.8170    9.7919 O.2       1 RES1   -1.0000
      3 O3         0.9241    1.4959    6.3118 Du        2 SUP2    0.0000
      4 N1        -1.1471    3.1253    8.6945 N.pl3     1 RES1    1.0000
      5 N2         0.1321    2.3821    6.8507 N.ar      1 RES1    0.0000
      6 N3        -1.3765    6.5514    5.7749 N.am      1 RES1    0.0000
      7 N4        -4.0291    7.8313    3.9180 N.3       1 RES1    0.0000
      8 N5        -5.2356    7.2467   -0.1807 N.pl3     1 RES1    0.0000
      9 C1        -0.4914    2.1706    7.9887 C.ar      1 RES1    0.0000
     10 H1        -0.4821    1.2880    8.3406 H         1 RES1    0.0000
     11 C2         0.1394    3.6384    6.3475 C.ar      1 RES1    0.0000
     12 C3        -0.4873    4.6702    7.0436 C.ar      1 RES1    0.0000
     13 C4        -1.1380    4.4115    8.2388 C.ar      1 RES1    0.0000
     14 C5        -0.3516    6.0795    6.5032 C.2       1 RES1    0.0000
     15 C6        -1.2906    7.8595    5.1129 C.3       1 RES1    0.0000
     16 H2        -1.3400    7.7365    4.1322 H         1 RES1    0.0000
     17 H3        -0.4199    8.2805    5.3258 H         1 RES1    0.0000
     18 C7        -2.4218    8.7724    5.5683 C.3       1 RES1    0.0000
     19 H4        -2.3753    9.6218    5.0631 H         1 RES1    0.0000
     20 H5        -2.3007    8.9836    6.5275 H         1 RES1    0.0000
     21 C8        -3.8145    8.1389    5.3633 C.3       1 RES1    0.0000
     22 C9        -3.7748    6.8108    6.1435 C.3       1 RES1    0.0000
     23 H6        -3.6236    7.0011    7.1032 H         1 RES1    0.0000
     24 H7        -4.6504    6.3562    6.0588 H         1 RES1    0.0000
     25 C10       -2.6803    5.8841    5.6396 C.3       1 RES1    0.0000
     26 H8        -2.6836    5.0446    6.1643 H         1 RES1    0.0000
     27 H9        -2.8444    5.6573    4.6901 H         1 RES1    0.0000
     28 C11       -5.2823    7.1217    3.6420 C.3       1 RES1    0.0000
     29 H10       -6.0455    7.7427    3.7527 H         1 RES1    0.0000
     30 H11       -5.3928    6.3802    4.2895 H         1 RES1    0.0000
     31 C12       -5.2811    6.5651    2.2275 C.3       1 RES1    0.0000
     32 H12       -6.1190    6.0629    2.0661 H         1 RES1    0.0000
     33 H13       -4.5203    5.9405    2.1164 H         1 RES1    0.0000
     34 C13       -5.1637    7.6999    1.2221 C.3       1 RES1    0.0000
     35 H14       -5.9532    8.2948    1.3704 H         1 RES1    0.0000
     36 C14       -3.9282    8.5262    1.5557 C.3       1 RES1    0.0000
     37 H15       -3.8953    9.3193    0.9649 H         1 RES1    0.0000
     38 H16       -3.1160    7.9849    1.3850 H         1 RES1    0.0000
     39 C15       -3.9353    8.9814    3.0124 C.3       1 RES1    0.0000
     40 H17       -3.1051    9.4856    3.2046 H         1 RES1    0.0000
     41 H18       -4.7042    9.5856    3.1656 H         1 RES1    0.0000
     42 C16       -4.2026    6.3936   -0.7029 C.ar      1 RES1    0.0000
     43 C17       -4.1544    5.0424   -0.3797 C.ar      1 RES1    0.0000
     44 H19       -4.7784    4.6808    0.2384 H         1 RES1    0.0000
     45 C18       -3.1985    4.2198   -0.9570 C.ar      1 RES1    0.0000
     46 H20       -3.1645    3.3003   -0.7201 H         1 RES1    0.0000
     47 C19       -2.2969    4.7245   -1.8715 C.ar      1 RES1    0.0000
     48 H21       -1.6648    4.1500   -2.2867 H         1 RES1    0.0000
     49 C20       -2.3197    6.0766   -2.1806 C.ar      1 RES1    0.0000
     50 H22       -1.6883    6.4330   -2.7943 H         1 RES1    0.0000
     51 C21       -3.2625    6.9085   -1.5942 C.ar      1 RES1    0.0000
     52 H23       -3.2674    7.8353   -1.8018 H         1 RES1    0.0000
     53 C22       -6.0082    7.9596   -1.1188 C.ar      1 RES1    0.0000
     54 C23       -6.3952    7.3233   -2.3056 C.ar      1 RES1    0.0000
     55 H24       -6.1073    6.4331   -2.4715 H         1 RES1    0.0000
     56 C24       -7.1887    7.9640   -3.2440 C.ar      1 RES1    0.0000
     57 H25       -7.4368    7.5120   -4.0414 H         1 RES1    0.0000
     58 C25       -7.6232    9.2654   -3.0216 C.ar      1 RES1    0.0000
     59 H26       -8.1727    9.7066   -3.6587 H         1 RES1    0.0000
     60 C26       -7.2431    9.9064   -1.8603 C.ar      1 RES1    0.0000
     61 H27       -7.5318   10.7982   -1.7045 H         1 RES1    0.0000
     62 C27       -6.4455    9.2731   -0.9130 C.ar      1 RES1    0.0000
     63 H28       -6.1957    9.7352   -0.1216 H         1 RES1    0.0000
     64 C28        0.8612    3.8320    5.0542 C.3       1 RES1    0.0000
     65 H29        1.8110    3.9941    5.2318 H         1 RES1    0.0000
     66 H30        0.4812    4.6005    4.5798 H         1 RES1    0.0000
     67 H31        0.7642    3.0279    4.5020 H         1 RES1    0.0000
     68 C29       -1.8522    5.4030    9.0771 C.3       1 RES1    0.0000
     69 H32       -2.8080    5.1858    9.0980 H         1 RES1    0.0000
     70 H33       -1.7298    6.2988    8.6990 H         1 RES1    0.0000
     71 H34       -1.4922    5.3801    9.9883 H         1 RES1    0.0000
     72 C30       -4.8940    9.0459    5.9617 C.3       1 RES1    0.0000
     73 H35       -4.9093    9.8979    5.4783 H         1 RES1    0.0000
     74 H36       -4.6950    9.2107    6.9070 H         1 RES1    0.0000
     75 H37       -5.7676    8.6098    5.8821 H         1 RES1    0.0000
@<TRIPOS>BOND
     1    1   14 2
     2    2    4 1
     3    4    9 ar
     4    5    9 ar
     5    6   14 1
     6    7   21 1
     7    8   34 1
     8    9   10 1
     9   11    5 ar
    10   12   11 ar
    11   13    4 ar
    12   14   12 1
    13   15    6 1
    14   16   15 1
    15   17   15 1
    16   18   15 1
    17   19   18 1
    18   20   18 1
    19   21   18 1
    20   22   21 1
    21   23   22 1
    22   24   22 1
    23   25    6 1
    24   26   25 1
    25   27   25 1
    26   28    7 1
    27   29   28 1
    28   30   28 1
    29   31   28 1
    30   32   31 1
    31   33   31 1
    32   34   31 1
    33   35   34 1
    34   36   34 1
    35   37   36 1
    36   38   36 1
    37   39    7 1
    38   40   39 1
    39   41   39 1
    40   42    8 1
    41   43   42 ar
    42   44   43 1
    43   45   43 ar
    44   46   45 1
    45   47   45 ar
    46   48   47 1
    47   49   47 ar
    48   50   49 1
    49   51   42 ar
    50   52   51 1
    51   53    8 1
    52   54   53 ar
    53   55   54 1
    54   56   54 ar
    55   57   56 1
    56   58   56 ar
    57   59   58 1
    58   60   58 ar
    59   61   60 1
    60   62   53 ar
    61   63   62 1
    62   64   11 1
    63   65   64 1
    64   66   64 1
    65   67   64 1
    66   68   13 1
    67   69   68 1
    68   70   68 1
    69   71   68 1
    70   72   21 1
    71   73   72 1
    72   74   72 1
    73   75   72 1
    74   12   13 ar
    75   22   25 1
    76   36   39 1
    77   49   51 ar
    78   60   62 ar
@<TRIPOS>SUBSTRUCTURE
     1 RES1 1
     2 SUP2 3

@<TRIPOS>CRYSIN
   8.1830   10.5870   16.7920  99.4000  97.4500 110.9700   2 1

