# MOL2 file generated by ConQuest
# Please check atom types

@<TRIPOS>MOLECULE
BEQTUP
    30    31     1
SMALL
NO_CHARGES
****
Generated from CSD

@<TRIPOS>ATOM
      1 O1         8.0720    3.9851    5.3543 O.2       1 RES1    0.0000
      2 O2         6.1376    4.6670    4.3906 O.3       1 RES1    0.0000
      3 O3         1.6116    9.2321    2.0602 O.2       1 RES1    0.0000
      4 O4         2.8802   10.8606    2.5974 O.2       1 RES1    0.0000
      5 N1         6.4568    2.5040    4.8127 N.am      1 RES1    0.0000
      6 N2         2.6421    9.6669    2.5278 N.pl3     1 RES1    0.0000
      7 C1         7.2218    1.3095    5.1847 C.3       1 RES1    0.0000
      8 H1         7.3768    1.2815    6.1424 H         1 RES1    0.0000
      9 H2         8.0767    1.2889    4.7268 H         1 RES1    0.0000
     10 C2         6.3372    0.1451    4.7405 C.3       1 RES1    0.0000
     11 H3         6.7840   -0.3945    4.0694 H         1 RES1    0.0000
     12 H4         6.1021   -0.4190    5.4933 H         1 RES1    0.0000
     13 C3         5.1251    0.8101    4.1718 C.2       1 RES1    0.0000
     14 H5         4.3883    0.3578    3.8293 H         1 RES1    0.0000
     15 C4         5.2394    2.1201    4.2212 C.2       1 RES1    0.0000
     16 H6         4.5979    2.7150    3.9058 H         1 RES1    0.0000
     17 C5         6.9830    3.7384    4.8936 C.2       1 RES1    0.0000
     18 C6         6.5844    6.0262    4.5083 C.3       1 RES1    0.0000
     19 H7         7.4038    6.1492    4.0044 H         1 RES1    0.0000
     20 H8         6.7643    6.2349    5.4378 H         1 RES1    0.0000
     21 C7         5.5137    6.9371    3.9764 C.ar      1 RES1    0.0000
     22 C8         4.2676    6.4859    3.5605 C.ar      1 RES1    0.0000
     23 H9         4.0681    5.5782    3.6028 H         1 RES1    0.0000
     24 C9         3.3195    7.3757    3.0834 C.ar      1 RES1    0.0000
     25 H10        2.4862    7.0742    2.8017 H         1 RES1    0.0000
     26 C10        3.6361    8.7163    3.0340 C.ar      1 RES1    0.0000
     27 C11        4.8624    9.1928    3.4531 C.ar      1 RES1    0.0000
     28 H11        5.0538   10.1028    3.4204 H         1 RES1    0.0000
     29 C12        5.7952    8.2978    3.9200 C.ar      1 RES1    0.0000
     30 H12        6.6262    8.6069    4.2015 H         1 RES1    0.0000
@<TRIPOS>BOND
     1    1   17 2
     2    2   17 1
     3    3    6 2
     4    4    6 2
     5    5    7 1
     6    6   26 1
     7    7    8 1
     8    9    7 1
     9   10    7 1
    10   11   10 1
    11   12   10 1
    12   13   10 1
    13   14   13 1
    14   15    5 1
    15   16   15 1
    16   17    5 1
    17   18    2 1
    18   19   18 1
    19   20   18 1
    20   21   18 1
    21   22   21 ar
    22   23   22 1
    23   24   22 ar
    24   25   24 1
    25   26   24 ar
    26   27   26 ar
    27   28   27 1
    28   29   21 ar
    29   30   29 1
    30   13   15 2
    31   27   29 ar
@<TRIPOS>SUBSTRUCTURE
     1 RES1 1

@<TRIPOS>CRYSIN
   9.0385   12.2518   10.5452  90.0000  96.1020  90.0000 231 1

