# MOL2 file generated by ConQuest
# Please check atom types

@<TRIPOS>MOLECULE
BEQWAY
    31    32     1
SMALL
NO_CHARGES
****
Generated from CSD

@<TRIPOS>ATOM
      1 C1        -1.7187    1.9358    1.2249 C.2       1 RES1    0.0000
      2 C2        -1.1657    0.7343    1.5544 C.2       1 RES1    0.0000
      3 H1        -1.0324    0.0105    0.9549 H         1 RES1    0.0000
      4 C3        -1.1916    1.9389    3.3225 C.2       1 RES1    0.0000
      5 C4        -2.3359    4.0547    2.5440 C.3       1 RES1    0.0000
      6 H2        -3.1720    4.1167    2.0368 H         1 RES1    0.0000
      7 H3        -1.7106    4.7408    2.2290 H         1 RES1    0.0000
      8 H4        -2.5207    4.1934    3.4957 H         1 RES1    0.0000
      9 C5        -0.9739    2.4440    4.6701 C.2       1 RES1    0.0000
     10 H5        -1.1465    3.3549    4.8778 H         1 RES1    0.0000
     11 C6         0.3384    1.4339    7.6837 C.3       1 RES1    0.0000
     12 H6         1.1235    1.0181    7.2472 H         1 RES1    0.0000
     13 H7        -0.2911    0.7145    7.9404 H         1 RES1    0.0000
     14 C7         0.7751    2.1880    8.9073 C.ar      1 RES1    0.0000
     15 C8         0.5974    1.6121   10.1586 C.ar      1 RES1    0.0000
     16 H8         0.1294    0.7891   10.2389 H         1 RES1    0.0000
     17 C9         1.1037    2.2375   11.2993 C.ar      1 RES1    0.0000
     18 H9         0.9957    1.8272   12.1501 H         1 RES1    0.0000
     19 C10        1.7578    3.4459   11.1997 C.ar      1 RES1    0.0000
     20 H10        2.1055    3.8666   11.9772 H         1 RES1    0.0000
     21 C11        1.9064    4.0442    9.9539 C.ar      1 RES1    0.0000
     22 H11        2.3381    4.8879    9.8827 H         1 RES1    0.0000
     23 C12        1.4258    3.4151    8.8099 C.ar      1 RES1    0.0000
     24 H12        1.5414    3.8235    7.9597 H         1 RES1    0.0000
     25 N1        -0.8361    0.7311    2.8690 N.2       1 RES1    0.0000
     26 N2        -1.7427    2.7262    2.3496 N.3       1 RES1    0.0000
     27 N3        -0.5457    1.6411    5.5698 N.2       1 RES1    0.0000
     28 N4        -2.1809    2.3540   -0.0643 N.pl3     1 RES1    0.0000
     29 O1        -0.3058    2.3421    6.7661 O.3       1 RES1    0.0000
     30 O2        -2.5074    3.5250   -0.2430 O.2       1 RES1    0.0000
     31 O3        -2.2120    1.4821   -0.9396 O.2       1 RES1    0.0000
@<TRIPOS>BOND
     1    1    2 2
     2    2    3 1
     3    4    9 1
     4    5    6 1
     5    7    5 1
     6    8    5 1
     7    9   10 1
     8   11   12 1
     9   13   11 1
    10   14   11 1
    11   15   14 ar
    12   16   15 1
    13   17   15 ar
    14   18   17 1
    15   19   17 ar
    16   20   19 1
    17   21   19 ar
    18   22   21 1
    19   23   14 ar
    20   24   23 1
    21   25    2 1
    22   26    1 1
    23   27    9 2
    24   28    1 1
    25   29   11 1
    26   30   28 2
    27   31   28 2
    28    4   25 2
    29    4   26 1
    30    5   26 1
    31   21   23 ar
    32   27   29 1
@<TRIPOS>SUBSTRUCTURE
     1 RES1 1

@<TRIPOS>CRYSIN
   7.6399   10.5071   14.9243  90.0000  97.9420  90.0000  14 1

