# MOL2 file generated by ConQuest
# Please check atom types

@<TRIPOS>MOLECULE
BEQYIF
    54    57     1
SMALL
NO_CHARGES
****
Generated from CSD

@<TRIPOS>ATOM
      1 N1        -4.6838    8.0015   10.8859 N.pl3     1 RES1    0.0000
      2 O1        -3.6760   10.5240    9.6524 O.2       1 RES1    0.0000
      3 O2        -6.7763    6.6096    7.9476 O.2       1 RES1    0.0000
      4 O3        -5.8397    8.2337   10.5807 O.2       1 RES1    0.0000
      5 O4        -4.2456    8.2054   12.0125 O.2       1 RES1    0.0000
      6 C1        -2.9400   11.2922    5.6692 C.3       1 RES1    0.0000
      7 H1        -3.5012   12.0613    5.4868 H         1 RES1    0.0000
      8 H2        -2.5146   11.0297    4.8377 H         1 RES1    0.0000
      9 C2        -3.7897   10.1727    6.1556 C.2       1 RES1    0.0000
     10 C3        -1.8640   11.6838    6.6813 C.3       1 RES1    0.0000
     11 C4        -2.5508   11.8695    8.0374 C.3       1 RES1    0.0000
     12 H3        -1.8675   12.0008    8.7133 H         1 RES1    0.0000
     13 H4        -3.0862   12.6781    8.0035 H         1 RES1    0.0000
     14 C5        -3.4323   10.7319    8.4644 C.2       1 RES1    0.0000
     15 C6        -4.0259    9.8719    7.4372 C.2       1 RES1    0.0000
     16 C7        -6.4240    6.9356    6.8238 C.2       1 RES1    0.0000
     17 C8        -5.4550    8.0278    6.6368 C.2       1 RES1    0.0000
     18 C9        -7.0189    6.2906    5.6004 C.3       1 RES1    0.0000
     19 H5        -7.8747    6.7085    5.4184 H         1 RES1    0.0000
     20 H6        -7.1882    5.3559    5.7984 H         1 RES1    0.0000
     21 C10       -6.1633    6.3683    4.3339 C.3       1 RES1    0.0000
     22 C11       -5.7581    7.8350    4.1493 C.3       1 RES1    0.0000
     23 H7        -5.1060    7.8975    3.4342 H         1 RES1    0.0000
     24 H8        -6.5372    8.3498    3.8881 H         1 RES1    0.0000
     25 C12       -5.1761    8.4214    5.3988 C.2       1 RES1    0.0000
     26 C13       -4.8053    8.6536    7.8519 C.3       1 RES1    0.0000
     27 H9        -5.5038    8.9211    8.4851 H         1 RES1    0.0000
     28 O5        -4.3164    9.4490    5.1030 O.3       1 RES1    0.0000
     29 C14       -1.2185   12.9900    6.2381 C.3       1 RES1    0.0000
     30 H10       -1.8871   13.6774    6.1891 H         1 RES1    0.0000
     31 H11       -0.8172   12.8709    5.3734 H         1 RES1    0.0000
     32 H12       -0.5437   13.2443    6.8717 H         1 RES1    0.0000
     33 C15       -0.8123   10.5795    6.7646 C.3       1 RES1    0.0000
     34 H13       -1.2287    9.7619    7.0446 H         1 RES1    0.0000
     35 H14       -0.1368   10.8278    7.3997 H         1 RES1    0.0000
     36 H15       -0.4100   10.4544    5.9014 H         1 RES1    0.0000
     37 C16       -6.9764    5.9191    3.1145 C.3       1 RES1    0.0000
     38 H16       -7.7484    6.4824    3.0199 H         1 RES1    0.0000
     39 H17       -7.2565    5.0097    3.2343 H         1 RES1    0.0000
     40 H18       -6.4332    5.9857    2.3257 H         1 RES1    0.0000
     41 C17       -4.9376    5.4709    4.4796 C.3       1 RES1    0.0000
     42 H19       -4.4050    5.5244    3.6823 H         1 RES1    0.0000
     43 H20       -5.2197    4.5635    4.6158 H         1 RES1    0.0000
     44 H21       -4.4170    5.7606    5.2326 H         1 RES1    0.0000
     45 C18       -3.8614    7.6654    8.5397 C.ar      1 RES1    0.0000
     46 C19       -2.8952    7.0466    7.7379 C.ar      1 RES1    0.0000
     47 H22       -2.9028    7.2081    6.8227 H         1 RES1    0.0000
     48 C20       -1.9344    6.2048    8.2568 C.ar      1 RES1    0.0000
     49 H23       -1.3141    5.8030    7.6905 H         1 RES1    0.0000
     50 C21       -1.8905    5.9585    9.6020 C.ar      1 RES1    0.0000
     51 H24       -1.2531    5.3771    9.9494 H         1 RES1    0.0000
     52 C22       -2.7863    6.5702   10.4330 C.ar      1 RES1    0.0000
     53 H25       -2.7458    6.4268   11.3513 H         1 RES1    0.0000
     54 C23       -3.7585    7.4080    9.9020 C.ar      1 RES1    0.0000
@<TRIPOS>BOND
     1    1    4 2
     2    2   14 2
     3    3   16 2
     4    5    1 2
     5    6    7 1
     6    8    6 1
     7    9    6 1
     8   10    6 1
     9   11   10 1
    10   12   11 1
    11   13   11 1
    12   14   11 1
    13   15    9 2
    14   16   17 1
    15   17   25 2
    16   18   16 1
    17   19   18 1
    18   20   18 1
    19   21   18 1
    20   22   21 1
    21   23   22 1
    22   24   22 1
    23   25   22 1
    24   26   15 1
    25   27   26 1
    26   28    9 1
    27   29   10 1
    28   30   29 1
    29   31   29 1
    30   32   29 1
    31   33   10 1
    32   34   33 1
    33   35   33 1
    34   36   33 1
    35   37   21 1
    36   38   37 1
    37   39   37 1
    38   40   37 1
    39   41   21 1
    40   42   41 1
    41   43   41 1
    42   44   41 1
    43   45   26 1
    44   46   45 ar
    45   47   46 1
    46   48   46 ar
    47   49   48 1
    48   50   48 ar
    49   51   50 1
    50   52   50 ar
    51   53   52 1
    52   54    1 1
    53   14   15 1
    54   17   26 1
    55   25   28 1
    56   45   54 ar
    57   52   54 ar
@<TRIPOS>SUBSTRUCTURE
     1 RES1 1

@<TRIPOS>CRYSIN
  26.5810   10.0940   19.6240  90.0000 128.7500  90.0000  15 1

