# MOL2 file generated by ConQuest
# Please check atom types

@<TRIPOS>MOLECULE
BERCUZ
    31    32     1
SMALL
NO_CHARGES
****
Generated from CSD

@<TRIPOS>ATOM
      1 C1         1.2340    2.6598    2.2302 C.2       1 RES1    0.0000
      2 O1         0.4461    1.7474    2.4183 O.2       1 RES1    0.0000
      3 N1         2.5440    2.3431    1.8276 N.am      1 RES1    0.0000
      4 C2         2.8930    0.9182    1.7187 C.3       1 RES1    0.0000
      5 H1         3.7520    0.8268    1.2557 H         1 RES1    0.0000
      6 H2         2.1974    0.4493    1.2121 H         1 RES1    0.0000
      7 H3         2.9624    0.5294    2.6155 H         1 RES1    0.0000
      8 C3         3.5107    3.2779    1.6448 C.2       1 RES1    0.0000
      9 H4         4.3950    3.0021    1.4339 H         1 RES1    0.0000
     10 C4         3.2325    4.5973    1.7589 C.2       1 RES1    0.0000
     11 N2         4.4042    5.4621    1.8221 N.pl3     1 RES1    0.0000
     12 O2         5.2269    5.3986    0.9008 O.2       1 RES1    0.0000
     13 O3         4.5553    6.1539    2.8249 O.2       1 RES1    0.0000
     14 C5         1.9068    5.0754    2.0338 C.ar      1 RES1    0.0000
     15 C6         1.5459    6.4357    1.9014 C.ar      1 RES1    0.0000
     16 O4         2.5255    7.2676    1.4380 O.3       1 RES1    0.0000
     17 C7         2.1447    8.6103    1.1435 C.3       1 RES1    0.0000
     18 H5         1.3863    8.6061    0.5226 H         1 RES1    0.0000
     19 H6         2.8998    9.0816    0.7332 H         1 RES1    0.0000
     20 H7         1.8863    9.0659    1.9716 H         1 RES1    0.0000
     21 C8         0.2586    6.8339    2.1929 C.ar      1 RES1    0.0000
     22 H8         0.0143    7.7480    2.1084 H         1 RES1    0.0000
     23 C9        -0.6880    5.8945    2.6126 C.ar      1 RES1    0.0000
     24 H9        -1.5592    6.1879    2.8520 H         1 RES1    0.0000
     25 C10       -0.3826    4.5431    2.6870 C.ar      1 RES1    0.0000
     26 O5        -1.2908    3.6005    3.0657 O.3       1 RES1    0.0000
     27 C11       -2.5768    4.0806    3.4640 C.3       1 RES1    0.0000
     28 H10       -2.4715    4.7409    4.1805 H         1 RES1    0.0000
     29 H11       -3.1195    3.3314    3.7874 H         1 RES1    0.0000
     30 H12       -3.0212    4.4988    2.6971 H         1 RES1    0.0000
     31 C12        0.9242    4.1039    2.3449 C.ar      1 RES1    0.0000
@<TRIPOS>BOND
     1    1    2 2
     2    3    1 1
     3    4    3 1
     4    5    4 1
     5    6    4 1
     6    7    4 1
     7    8    3 1
     8    9    8 1
     9   10    8 2
    10   11   10 1
    11   12   11 2
    12   13   11 2
    13   14   10 1
    14   15   14 ar
    15   16   15 1
    16   17   16 1
    17   18   17 1
    18   19   17 1
    19   20   17 1
    20   21   15 ar
    21   22   21 1
    22   23   21 ar
    23   24   23 1
    24   25   23 ar
    25   26   25 1
    26   27   26 1
    27   28   27 1
    28   29   27 1
    29   30   27 1
    30   31    1 1
    31   14   31 ar
    32   25   31 ar
@<TRIPOS>SUBSTRUCTURE
     1 RES1 1

@<TRIPOS>CRYSIN
   9.8063   15.7583    7.4795  90.0000 102.0000  90.0000  14 1

