# MOL2 file generated by ConQuest
# Please check atom types

@<TRIPOS>MOLECULE
BERHEL
    27    29     1
SMALL
NO_CHARGES
****
Generated from CSD

@<TRIPOS>ATOM
      1 O1         2.1828   13.6995    3.5237 O.3       1 RES1    0.0000
      2 C2         1.5350   13.4381    2.3373 C.2       1 RES1    0.0000
      3 C3         1.4010   14.5163    1.5474 C.2       1 RES1    0.0000
      4 C4         3.0881   15.7752    4.4732 C.ar      1 RES1    0.0000
      5 C5         3.2533   17.0961    4.2405 C.ar      1 RES1    0.0000
      6 C6         3.0141   19.1206    2.8580 C.ar      1 RES1    0.0000
      7 C7         2.6154   19.7217    1.6956 C.ar      1 RES1    0.0000
      8 C8         2.0064   18.9723    0.6793 C.ar      1 RES1    0.0000
      9 C9         1.7990   17.6434    0.8327 C.ar      1 RES1    0.0000
     10 C10        2.1903   16.9748    2.0191 C.ar      1 RES1    0.0000
     11 C11        2.8108   17.7431    3.0354 C.ar      1 RES1    0.0000
     12 C12        2.0005   15.5973    2.2622 C.ar      1 RES1    0.0000
     13 C13        2.4517   15.0555    3.4600 C.ar      1 RES1    0.0000
     14 N21        1.1470   12.0902    2.1610 N.pl3     1 RES1    0.0000
     15 O22        0.4837   11.8368    1.1447 O.2       1 RES1    0.0000
     16 O23        1.4763   11.2572    2.9895 O.2       1 RES1    0.0000
     17 O71        2.7575   21.0534    1.4003 O.3       1 RES1    0.0000
     18 C72        3.3753   21.8837    2.3926 C.3       1 RES1    0.0000
     19 H3         0.9668   14.5029    0.7304 H         1 RES1    0.0000
     20 H4         3.4060   15.3385    5.3215 H         1 RES1    0.0000
     21 H5         3.7170   17.6568    4.8833 H         1 RES1    0.0000
     22 H6         3.4794   19.6517    3.5686 H         1 RES1    0.0000
     23 H8         1.7275   19.4360   -0.1983 H         1 RES1    0.0000
     24 H9         1.3949   17.1177    0.1252 H         1 RES1    0.0000
     25 H721       2.8100   21.8621    3.2764 H         1 RES1    0.0000
     26 H722       3.3641   22.8326    2.0764 H         1 RES1    0.0000
     27 H723       4.2816   21.5386    2.5669 H         1 RES1    0.0000
@<TRIPOS>BOND
     1    1    2 1
     2    2    3 2
     3    3   12 1
     4    4    5 ar
     5    5   11 ar
     6    6    7 ar
     7    7    8 ar
     8    8    9 ar
     9    9   10 ar
    10   10   11 ar
    11   11    6 ar
    12   12   10 ar
    13   13    1 1
    14   14    2 1
    15   15   14 2
    16   16   14 2
    17   17    7 1
    18   18   17 1
    19   19    3 1
    20   20    4 1
    21   21    5 1
    22   22    6 1
    23   23    8 1
    24   24    9 1
    25   25   18 1
    26   26   18 1
    27   27   18 1
    28    4   13 ar
    29   12   13 ar
@<TRIPOS>SUBSTRUCTURE
     1 RES1 1

@<TRIPOS>CRYSIN
   3.8510   26.9570   10.5470  90.0000  98.3800  90.0000  14 1

