# MOL2 file generated by ConQuest
# Please check atom types

@<TRIPOS>MOLECULE
BERPAP
    42    42     1
SMALL
NO_CHARGES
****
Generated from CSD

@<TRIPOS>ATOM
      1 C1         0.1442    3.3900    9.0516 C.ar      1 RES1    0.0000
      2 C2         1.1473    2.3863    9.0423 C.ar      1 RES1    0.0000
      3 C3         1.8327    2.1587   10.2227 C.ar      1 RES1    0.0000
      4 C4         1.4947    2.8843   11.3712 C.ar      1 RES1    0.0000
      5 C5         0.5426    3.8802   11.3005 C.ar      1 RES1    0.0000
      6 C6        -0.1686    4.1169   10.1560 C.ar      1 RES1    0.0000
      7 N1        -0.5937    3.5711    7.8258 N.pl3     1 RES1    0.0000
      8 O1        -1.3468    4.5411    7.7524 O.2       1 RES1    0.0000
      9 O2        -0.5037    2.8015    6.9174 O.2       1 RES1    0.0000
     10 N2         2.1055    2.5933   12.5863 N.3       1 RES1    0.0000
     11 N3         3.0401    1.6853   12.6624 N.2       1 RES1    0.0000
     12 C7         3.5372    1.2649   13.8322 C.2       1 RES1    0.0000
     13 C8         4.6040    0.2457   13.6734 C.2       1 RES1    0.0000
     14 O3         5.2577   -0.1138   14.6191 O.2       1 RES1    0.0000
     15 C9         4.9408   -0.2341   12.3049 C.3       1 RES1    0.0000
     16 C10        3.8081   -1.0231   11.6740 C.2       1 RES1    0.0000
     17 O4         3.0672   -1.7099   12.2782 O.2       1 RES1    0.0000
     18 O5         3.8364   -0.8601   10.3601 O.3       1 RES1    0.0000
     19 C11        2.8272   -1.6594    9.6118 C.3       1 RES1    0.0000
     20 C12        2.8528   -1.2391    8.2166 C.3       1 RES1    0.0000
     21 C13        3.0278    1.8043   15.1127 C.2       1 RES1    0.0000
     22 O6         2.4471    2.8287   15.1940 O.2       1 RES1    0.0000
     23 O7         3.3139    1.0334   16.1517 O.3       1 RES1    0.0000
     24 C14        2.8417    1.4615   17.4723 C.3       1 RES1    0.0000
     25 C15        1.7255    0.8032   17.8564 C.3       1 RES1    0.0000
     26 H1        -0.9471    4.8658   10.1294 H         1 RES1    0.0000
     27 H2         0.3465    4.4803   12.1768 H         1 RES1    0.0000
     28 H3         2.6271    1.4279   10.2627 H         1 RES1    0.0000
     29 H4         1.3642    1.8121    8.1539 H         1 RES1    0.0000
     30 H5         1.9748    2.9761   13.3013 H         1 RES1    0.0000
     31 H6         5.1540    0.6195   11.6780 H         1 RES1    0.0000
     32 H7         5.8161   -0.8640   12.3649 H         1 RES1    0.0000
     33 H8         1.8447   -1.4809   10.0240 H         1 RES1    0.0000
     34 H9         3.0624   -2.7110    9.6852 H         1 RES1    0.0000
     35 H10        2.0593   -1.7551    7.6951 H         1 RES1    0.0000
     36 H11        3.8081   -1.6064    7.8698 H         1 RES1    0.0000
     37 H12        2.7818   -0.1798    8.0219 H         1 RES1    0.0000
     38 H13        2.5975    2.5118   17.4242 H         1 RES1    0.0000
     39 H14        3.6298    1.3063   18.1952 H         1 RES1    0.0000
     40 H15        1.2588    1.1408   18.7701 H         1 RES1    0.0000
     41 H16        1.8714   -0.2664   17.9018 H         1 RES1    0.0000
     42 H17        1.0900    1.0451   17.0174 H         1 RES1    0.0000
@<TRIPOS>BOND
     1    1    2 ar
     2    2    3 ar
     3    3    4 ar
     4    4    5 ar
     5    5    6 ar
     6    6    1 ar
     7    7    1 1
     8    8    7 2
     9    9    7 2
    10   10    4 1
    11   11   10 1
    12   12   11 2
    13   13   12 1
    14   14   13 2
    15   15   13 1
    16   16   15 1
    17   17   16 2
    18   18   16 1
    19   19   18 1
    20   20   19 1
    21   21   12 1
    22   22   21 2
    23   23   21 1
    24   24   23 1
    25   25   24 1
    26   26    6 1
    27   27    5 1
    28   28    3 1
    29   29    2 1
    30   30   10 1
    31   31   15 1
    32   32   15 1
    33   33   19 1
    34   34   19 1
    35   35   20 1
    36   36   20 1
    37   37   20 1
    38   38   24 1
    39   39   24 1
    40   40   25 1
    41   41   25 1
    42   42   25 1
@<TRIPOS>SUBSTRUCTURE
     1 RES1 1

@<TRIPOS>CRYSIN
   4.8950   12.9340   13.3650  90.0000  93.6000  90.0000   4 1

