# MOL2 file generated by ConQuest
# Please check atom types

@<TRIPOS>MOLECULE
BERPAP01
    42    42     1
SMALL
NO_CHARGES
****
Generated from CSD

@<TRIPOS>ATOM
      1 C1         1.1239    3.5674   15.5801 C.ar      1 RES1    0.0000
      2 C2         2.1062    2.5892   15.6093 C.ar      1 RES1    0.0000
      3 C3         2.7147    2.3030   16.7886 C.ar      1 RES1    0.0000
      4 C4         2.3712    2.9884   17.9519 C.ar      1 RES1    0.0000
      5 C5         1.3679    3.9626   17.8908 C.ar      1 RES1    0.0000
      6 C6         0.7281    4.2423   16.7116 C.ar      1 RES1    0.0000
      7 N1         2.9241    2.6838   19.1737 N.3       1 RES1    0.0000
      8 N2         3.8440    1.7371   19.2852 N.2       1 RES1    0.0000
      9 C7         4.3154    1.3196   20.4140 C.2       1 RES1    0.0000
     10 C8         3.8235    1.8553   21.7181 C.2       1 RES1    0.0000
     11 O1         3.2403    2.8847   21.7845 O.2       1 RES1    0.0000
     12 O2         4.1109    1.0635   22.7221 O.3       1 RES1    0.0000
     13 C9         3.6742    1.5113   24.0740 C.3       1 RES1    0.0000
     14 C10        2.5342    0.7825   24.4697 C.3       1 RES1    0.0000
     15 C11        5.4241    0.2941   20.2679 C.2       1 RES1    0.0000
     16 O3         6.0322   -0.1103   21.2241 O.2       1 RES1    0.0000
     17 C12        5.7208   -0.1733   18.8735 C.3       1 RES1    0.0000
     18 C13        4.6575   -0.9913   18.2494 C.2       1 RES1    0.0000
     19 O4         3.9386   -1.7213   18.8656 O.2       1 RES1    0.0000
     20 O5         4.6438   -0.8495   16.9426 O.3       1 RES1    0.0000
     21 C14        3.6556   -1.7135   16.2043 C.3       1 RES1    0.0000
     22 C15        3.4277   -1.1633   14.9559 C.3       1 RES1    0.0000
     23 N3         0.4455    3.8589   14.3132 N.pl3     1 RES1    0.0000
     24 O6        -0.3714    4.7623   14.2627 O.2       1 RES1    0.0000
     25 O7         0.7574    3.1709   13.3623 O.2       1 RES1    0.0000
     26 H1         2.3844    2.0640   14.7063 H         1 RES1    0.0000
     27 H2         3.4794    1.5415   16.8231 H         1 RES1    0.0000
     28 H3         1.0780    4.4878   18.7885 H         1 RES1    0.0000
     29 H4        -0.0517    4.9881   16.6637 H         1 RES1    0.0000
     30 H5         2.8836    2.9989   19.9705 H         1 RES1    0.0000
     31 H6         4.4681    1.3077   24.7752 H         1 RES1    0.0000
     32 H7         3.4687    2.5709   24.0580 H         1 RES1    0.0000
     33 H8         2.0686    1.0255   25.4126 H         1 RES1    0.0000
     34 H9         1.9949    1.2657   23.6676 H         1 RES1    0.0000
     35 H10        2.5152   -0.2875   24.3236 H         1 RES1    0.0000
     36 H11        5.8819    0.6959   18.2520 H         1 RES1    0.0000
     37 H12        6.6231   -0.7655   18.9054 H         1 RES1    0.0000
     38 H13        4.0470   -2.7140   16.1007 H         1 RES1    0.0000
     39 H14        2.7255   -1.7450   16.7514 H         1 RES1    0.0000
     40 H15        2.9583   -1.9603   14.3982 H         1 RES1    0.0000
     41 H16        2.8231   -0.2718   14.8869 H         1 RES1    0.0000
     42 H17        4.4076   -0.9664   14.5443 H         1 RES1    0.0000
@<TRIPOS>BOND
     1    1    2 ar
     2    2    3 ar
     3    3    4 ar
     4    4    5 ar
     5    5    6 ar
     6    6    1 ar
     7    7    4 1
     8    8    7 1
     9    9    8 2
    10   10    9 1
    11   11   10 2
    12   12   10 1
    13   13   12 1
    14   14   13 1
    15   15    9 1
    16   16   15 2
    17   17   15 1
    18   18   17 1
    19   19   18 2
    20   20   18 1
    21   21   20 1
    22   22   21 1
    23   23    1 1
    24   24   23 2
    25   25   23 2
    26   26    2 1
    27   27    3 1
    28   28    5 1
    29   29    6 1
    30   30    7 1
    31   31   13 1
    32   32   13 1
    33   33   14 1
    34   34   14 1
    35   35   14 1
    36   36   17 1
    37   37   17 1
    38   38   21 1
    39   39   21 1
    40   40   22 1
    41   41   22 1
    42   42   22 1
@<TRIPOS>SUBSTRUCTURE
     1 RES1 1

@<TRIPOS>CRYSIN
   4.8800   13.1300   26.5600  90.0000  90.0000  90.0000  18 2

