# MOL2 file generated by ConQuest
# Please check atom types

@<TRIPOS>MOLECULE
BESHUC
    55    60     1
SMALL
NO_CHARGES
****
Generated from CSD

@<TRIPOS>ATOM
      1 O1         8.3239    0.6232    4.3616 O.3       1 RES1    0.0000
      2 N1         5.4227    0.8698    1.2672 N.3       1 RES1    0.0000
      3 H1         4.7424    0.6126    0.5538 H         1 RES1    0.0000
      4 N2         7.6378    1.8722    2.5969 N.3       1 RES1    0.0000
      5 N3         9.2878    1.6570    4.1238 N.2       1 RES1    0.0000
      6 C1         6.4723    2.6903    2.4732 C.ar      1 RES1    0.0000
      7 C2         6.4221    3.9730    3.0176 C.ar      1 RES1    0.0000
      8 H2         7.1337    4.2925    3.5231 H         1 RES1    0.0000
      9 C3         5.3071    4.7711    2.8033 C.ar      1 RES1    0.0000
     10 H3         5.2783    5.6323    3.1542 H         1 RES1    0.0000
     11 C4         4.2479    4.2952    2.0740 C.ar      1 RES1    0.0000
     12 H4         3.5077    4.8375    1.9195 H         1 RES1    0.0000
     13 C5         4.2795    3.0161    1.5743 C.ar      1 RES1    0.0000
     14 H5         3.5498    2.6955    1.0953 H         1 RES1    0.0000
     15 C6         5.3793    2.1939    1.7707 C.ar      1 RES1    0.0000
     16 C7         5.2891   -0.2232    2.2779 C.3       1 RES1    0.0000
     17 H6         5.6633   -1.0334    1.8720 H         1 RES1    0.0000
     18 C8         6.1365    0.0897    3.4937 C.3       1 RES1    0.0000
     19 H7         6.1731   -0.6934    4.0637 H         1 RES1    0.0000
     20 H8         5.7148    0.8033    3.9963 H         1 RES1    0.0000
     21 C9         7.5503    0.5060    3.1400 C.3       1 RES1    0.0000
     22 C10        8.8260    2.3631    3.1533 C.2       1 RES1    0.0000
     23 C11        9.5319    3.5379    2.6260 C.ar      1 RES1    0.0000
     24 C12        9.2749    4.0013    1.3429 C.ar      1 RES1    0.0000
     25 H9         8.6471    3.5699    0.8108 H         1 RES1    0.0000
     26 C13        9.9515    5.1021    0.8545 C.ar      1 RES1    0.0000
     27 H10        9.7618    5.4187    0.0009 H         1 RES1    0.0000
     28 C14       10.8934    5.7278    1.6141 C.ar      1 RES1    0.0000
     29 H11       11.3511    6.4623    1.2736 H         1 RES1    0.0000
     30 C15       11.1682    5.2756    2.8782 C.ar      1 RES1    0.0000
     31 H12       11.8133    5.7020    3.3951 H         1 RES1    0.0000
     32 C16       10.4815    4.1833    3.3875 C.ar      1 RES1    0.0000
     33 H13       10.6645    3.8845    4.2495 H         1 RES1    0.0000
     34 C17        8.2618   -0.5040    2.2495 C.ar      1 RES1    0.0000
     35 C18        8.7488   -0.1960    0.9939 C.ar      1 RES1    0.0000
     36 H14        8.6283    0.6603    0.6496 H         1 RES1    0.0000
     37 C19        9.4134   -1.1472    0.2447 C.ar      1 RES1    0.0000
     38 H15        9.7560   -0.9248   -0.5908 H         1 RES1    0.0000
     39 C20        9.5683   -2.4314    0.7359 C.ar      1 RES1    0.0000
     40 H16        9.9948   -3.0802    0.2238 H         1 RES1    0.0000
     41 C21        9.0875   -2.7428    1.9858 C.ar      1 RES1    0.0000
     42 H17        9.1980   -3.6023    2.3235 H         1 RES1    0.0000
     43 C22        8.4433   -1.7935    2.7379 C.ar      1 RES1    0.0000
     44 H18        8.1257   -2.0145    3.5829 H         1 RES1    0.0000
     45 C23        3.8399   -0.5215    2.6023 C.ar      1 RES1    0.0000
     46 C24        3.0479    0.3702    3.3192 C.ar      1 RES1    0.0000
     47 H19        3.4299    1.1372    3.6815 H         1 RES1    0.0000
     48 C25        1.6924    0.1251    3.4966 C.ar      1 RES1    0.0000
     49 H20        1.1711    0.7337    3.9688 H         1 RES1    0.0000
     50 C26        1.1263   -0.9892    2.9882 C.ar      1 RES1    0.0000
     51 H21        0.2143   -1.1379    3.0983 H         1 RES1    0.0000
     52 C27        1.8933   -1.9038    2.3083 C.ar      1 RES1    0.0000
     53 H22        1.5088   -2.6836    1.9773 H         1 RES1    0.0000
     54 C28        3.2496   -1.6566    2.1167 C.ar      1 RES1    0.0000
     55 H23        3.7646   -2.2741    1.6492 H         1 RES1    0.0000
@<TRIPOS>BOND
     1    1    5 1
     2    2    3 1
     3    4    6 1
     4    5   22 2
     5    6    7 ar
     6    7    8 1
     7    9    7 ar
     8   10    9 1
     9   11    9 ar
    10   12   11 1
    11   13   11 ar
    12   14   13 1
    13   15    2 1
    14   16    2 1
    15   17   16 1
    16   18   16 1
    17   19   18 1
    18   20   18 1
    19   21    1 1
    20   22    4 1
    21   23   22 1
    22   24   23 ar
    23   25   24 1
    24   26   24 ar
    25   27   26 1
    26   28   26 ar
    27   29   28 1
    28   30   28 ar
    29   31   30 1
    30   32   23 ar
    31   33   32 1
    32   34   21 1
    33   35   34 ar
    34   36   35 1
    35   37   35 ar
    36   38   37 1
    37   39   37 ar
    38   40   39 1
    39   41   39 ar
    40   42   41 1
    41   43   34 ar
    42   44   43 1
    43   45   16 1
    44   46   45 ar
    45   47   46 1
    46   48   46 ar
    47   49   48 1
    48   50   48 ar
    49   51   50 1
    50   52   50 ar
    51   53   52 1
    52   54   45 ar
    53   55   54 1
    54    4   21 1
    55    6   15 ar
    56   13   15 ar
    57   18   21 1
    58   30   32 ar
    59   41   43 ar
    60   52   54 ar
@<TRIPOS>SUBSTRUCTURE
     1 RES1 1

@<TRIPOS>CRYSIN
  10.9610   11.7750   10.4520 112.6000 108.4700  65.0200   2 1

