# MOL2 file generated by ConQuest
# Please check atom types

@<TRIPOS>MOLECULE
BESKAN
    76    82     2
SMALL
NO_CHARGES
****
Generated from CSD

@<TRIPOS>ATOM
      1 O1        12.5068    0.2077    5.3970 O.2       1 RES1    0.0000
      2 O2        11.5984   -1.2863    6.6722 O.2       1 RES1    0.0000
      3 O3         7.9208    2.5577   10.8055 O.2       1 RES1    0.0000
      4 N1        11.8435   -0.1191    6.3647 N.pl3     1 RES1    0.0000
      5 C1        11.2798    0.9405    7.2107 C.ar      1 RES1    0.0000
      6 C2        10.7373    0.6229    8.4499 C.ar      1 RES1    0.0000
      7 H1        10.7462   -0.2741    8.7633 H         1 RES1    0.0000
      8 C3        10.1860    1.6304    9.2228 C.ar      1 RES1    0.0000
      9 H2         9.8517    1.4290   10.0884 H         1 RES1    0.0000
     10 C4        10.1142    2.9454    8.7412 C.ar      1 RES1    0.0000
     11 C5         9.3967    3.9850    9.5152 C.2       1 RES1    0.0000
     12 C6         9.5846    5.3326    9.5454 C.2       1 RES1    0.0000
     13 C7        10.6002    6.2030    8.8723 C.3       1 RES1    0.0000
     14 H3        11.2212    5.6448    8.3409 H         1 RES1    0.0000
     15 H4        11.1267    6.6914    9.5535 H         1 RES1    0.0000
     16 C8         9.8841    7.1948    7.9603 C.3       1 RES1    0.0000
     17 H5         9.4310    6.7039    7.2292 H         1 RES1    0.0000
     18 H6        10.5470    7.8077    7.5541 H         1 RES1    0.0000
     19 C9         8.8565    8.0044    8.7447 C.3       1 RES1    0.0000
     20 H7         8.3831    8.6177    8.1274 H         1 RES1    0.0000
     21 H8         9.3216    8.5541    9.4235 H         1 RES1    0.0000
     22 C10        8.2689    3.6639   10.4319 C.2       1 RES1    0.0000
     23 C11        7.6437    4.9399   10.8531 C.3       1 RES1    0.0000
     24 C12        8.5267    6.0730   10.3321 C.3       1 RES1    0.0000
     25 H9         8.9563    6.5407   11.1038 H         1 RES1    0.0000
     26 C13        7.8349    7.0987    9.4398 C.3       1 RES1    0.0000
     27 H10        7.2242    7.6520    9.9875 H         1 RES1    0.0000
     28 H11        7.2938    6.6288    8.7575 H         1 RES1    0.0000
     29 C14        6.1261    4.9594   10.9181 C.3       1 RES1    0.0000
     30 H12        5.6631    5.7879   10.6373 H         1 RES1    0.0000
     31 H13        5.6460    4.1209   10.7034 H         1 RES1    0.0000
     32 C15        6.9055    5.0003   12.1644 C.3       1 RES1    0.0000
     33 H14        6.9094    4.1890   12.7306 H         1 RES1    0.0000
     34 H15        6.9276    5.8548   12.6645 H         1 RES1    0.0000
     35 C16       10.6945    3.2324    7.5089 C.ar      1 RES1    0.0000
     36 H16       10.6729    4.1227    7.1805 H         1 RES1    0.0000
     37 C17       11.3028    2.2463    6.7546 C.ar      1 RES1    0.0000
     38 H17       11.7300    2.4621    5.9342 H         1 RES1    0.0000
     39 O4         6.2534    5.6962    6.5017 O.2       2 RES2    0.0000
     40 O5         7.9691    4.4540    6.0201 O.2       2 RES2    0.0000
     41 O6         3.3636    1.2922   10.9394 O.2       2 RES2    0.0000
     42 N2         6.8511    4.6216    6.5167 N.pl3     2 RES2    0.0000
     43 C18        4.6827   -3.9490    8.5091 C.3       2 RES2    0.0000
     44 H18        3.8881   -4.2528    8.0044 H         2 RES2    0.0000
     45 H19        5.2262   -4.7450    8.7354 H         2 RES2    0.0000
     46 C19        4.2323   -3.2559    9.8006 C.3       2 RES2    0.0000
     47 H20        3.6911   -3.8832   10.3425 H         2 RES2    0.0000
     48 H21        5.0264   -2.9959   10.3321 H         2 RES2    0.0000
     49 C20        3.4017   -2.0103    9.4769 C.3       2 RES2    0.0000
     50 H22        2.5560   -2.2935    9.0243 H         2 RES2    0.0000
     51 C21        4.1814   -1.1031    8.5451 C.2       2 RES2    0.0000
     52 C22        4.2805    0.1626    9.0046 C.2       2 RES2    0.0000
     53 C23        4.9726    1.3127    8.3826 C.ar      2 RES2    0.0000
     54 C24        4.2992    2.5403    8.2620 C.ar      2 RES2    0.0000
     55 H23        3.4138    2.6243    8.5985 H         2 RES2    0.0000
     56 C25        4.9033    3.6214    7.6655 C.ar      2 RES2    0.0000
     57 H24        4.4426    4.4483    7.5831 H         2 RES2    0.0000
     58 C26        6.2102    3.4815    7.1805 C.ar      2 RES2    0.0000
     59 C27        3.5442    0.2750   10.2880 C.2       2 RES2    0.0000
     60 C28        3.0555   -1.0919   10.6431 C.3       2 RES2    0.0000
     61 C29        3.0561   -1.4657   12.1121 C.3       2 RES2    0.0000
     62 H25        3.2703   -2.4020   12.3489 H         2 RES2    0.0000
     63 H26        3.3756   -0.7878   12.7596 H         2 RES2    0.0000
     64 C30        1.7812   -1.2073   11.4217 C.3       2 RES2    0.0000
     65 H27        1.3015   -0.3695   11.6433 H         2 RES2    0.0000
     66 H28        1.1961   -1.9826   11.2337 H         2 RES2    0.0000
     67 C31        5.5121   -2.9950    7.6342 C.3       2 RES2    0.0000
     68 H29        6.3426   -2.7487    8.1123 H         2 RES2    0.0000
     69 H30        5.7677   -3.4568    6.7964 H         2 RES2    0.0000
     70 C32        4.7264   -1.7273    7.2954 C.3       2 RES2    0.0000
     71 H31        5.3200   -1.0830    6.8335 H         2 RES2    0.0000
     72 H32        3.9820   -1.9526    6.6838 H         2 RES2    0.0000
     73 C33        6.2817    1.2160    7.9046 C.ar      2 RES2    0.0000
     74 H33        6.7521    0.3959    8.0009 H         2 RES2    0.0000
     75 C34        6.9090    2.2891    7.2954 C.ar      2 RES2    0.0000
     76 H34        7.7960    2.2116    6.9635 H         2 RES2    0.0000
@<TRIPOS>BOND
     1    1    4 2
     2    2    4 2
     3    3   22 2
     4    4    5 1
     5    5    6 ar
     6    6    7 1
     7    8    6 ar
     8    9    8 1
     9   10    8 ar
    10   11   10 1
    11   12   11 2
    12   13   12 1
    13   14   13 1
    14   15   13 1
    15   16   13 1
    16   17   16 1
    17   18   16 1
    18   19   16 1
    19   20   19 1
    20   21   19 1
    21   22   11 1
    22   23   22 1
    23   24   12 1
    24   25   24 1
    25   26   19 1
    26   27   26 1
    27   28   26 1
    28   29   23 1
    29   30   29 1
    30   31   29 1
    31   32   23 1
    32   33   32 1
    33   34   32 1
    34   35   10 ar
    35   36   35 1
    36   37    5 ar
    37   38   37 1
    38   39   42 2
    39   40   42 2
    40   41   59 2
    41   42   58 1
    42   43   44 1
    43   45   43 1
    44   46   43 1
    45   47   46 1
    46   48   46 1
    47   49   46 1
    48   50   49 1
    49   51   49 1
    50   52   51 2
    51   53   52 1
    52   54   53 ar
    53   55   54 1
    54   56   54 ar
    55   57   56 1
    56   58   56 ar
    57   59   52 1
    58   60   49 1
    59   61   60 1
    60   62   61 1
    61   63   61 1
    62   64   60 1
    63   65   64 1
    64   66   64 1
    65   67   43 1
    66   68   67 1
    67   69   67 1
    68   70   51 1
    69   71   70 1
    70   72   70 1
    71   73   53 ar
    72   74   73 1
    73   75   58 ar
    74   76   75 1
    75   23   24 1
    76   24   26 1
    77   29   32 1
    78   35   37 ar
    79   59   60 1
    80   61   64 1
    81   67   70 1
    82   73   75 ar
@<TRIPOS>SUBSTRUCTURE
     1 RES1 1
     2 RES2 39

@<TRIPOS>CRYSIN
  10.2546   11.5365   11.6499  95.0660  90.2010  93.7630   2 1

