# MOL2 file generated by ConQuest
# Please check atom types

@<TRIPOS>MOLECULE
BESNES
    18    19     1
SMALL
NO_CHARGES
****
Generated from CSD

@<TRIPOS>ATOM
      1 O1         6.1153    1.6698   -0.7665 O.2       1 RES1    0.0000
      2 O2         5.1426    1.6697   -2.8015 O.3       1 RES1    0.0000
      3 O3         2.2797    0.5871   -2.3471 O.2       1 RES1    0.0000
      4 N1         2.7059    1.6697   -1.9549 N.pl3     1 RES1    0.0000
      5 N2        -0.0285    1.6698    1.3718 N.pl3     1 RES1    0.0000
      6 C1         3.7628    1.6698   -0.9426 C.2       1 RES1    0.0000
      7 C2         3.4556    1.6698    0.3585 C.2       1 RES1    0.0000
      8 C3         5.1437    1.6698   -1.4646 C.2       1 RES1    0.0000
      9 C4         6.4514    1.6697   -3.4352 C.3       1 RES1    0.0000
     10 C5         2.1748    1.6698    0.9901 C.2       1 RES1    0.0000
     11 C6         1.9572    1.6698    2.4262 C.ar      1 RES1    0.0000
     12 C7         2.7866    1.6698    3.5470 C.ar      1 RES1    0.0000
     13 C8         2.2094    1.6698    4.8007 C.ar      1 RES1    0.0000
     14 C9         0.8127    1.6698    4.9599 C.ar      1 RES1    0.0000
     15 C10       -0.0285    1.6698    3.8813 C.ar      1 RES1    0.0000
     16 C11        0.5574    1.6698    2.6170 C.ar      1 RES1    0.0000
     17 C12        0.9210    1.6698    0.4102 C.2       1 RES1    0.0000
     18 O3C        2.2797    2.7524   -2.3471 O.2       1 RES1    0.0000
@<TRIPOS>BOND
     1    1    8 2
     2    2    8 1
     3    3    4 2
     4    4    6 1
     5    5   16 1
     6    6    7 2
     7    7   10 1
     8    8    6 1
     9    9    2 1
    10   10   11 1
    11   11   12 ar
    12   12   13 ar
    13   13   14 ar
    14   14   15 ar
    15   15   16 ar
    16   16   11 ar
    17   17    5 1
    18   18    4 2
    19   10   17 2
@<TRIPOS>SUBSTRUCTURE
     1 RES1 1

@<TRIPOS>CRYSIN
   7.9510    6.6790   10.5720  90.0000  94.1700  90.0000  11 1

