# MOL2 file generated by ConQuest
# Please check atom types

@<TRIPOS>MOLECULE
BESNAO
    30    30     2
SMALL
NO_CHARGES
****
Generated from CSD

@<TRIPOS>ATOM
      1 O1         8.1283    2.4817    3.9851 O.2       1 RES1    0.0000
      2 O2         9.2967    0.5745    4.2845 O.3       1 RES1    0.0000
      3 O3         6.1105    1.5102    1.5748 O.2       1 RES1    0.0000
      4 O4         7.7873    2.7086    0.9237 O.2       1 RES1    0.0000
      5 N1         7.2997    1.7619    1.5204 N.pl3     1 RES1    0.0000
      6 C1         8.2156    0.8666    2.2525 C.2       1 RES1    0.0000
      7 C2         8.6234   -0.2981    1.7511 C.2       1 RES1    0.0000
      8 C3         8.5379    1.4147    3.5955 C.2       1 RES1    0.0000
      9 C4         9.6416    1.0008    5.6296 C.3       1 RES1    0.0000
     10 C5         8.3364   -0.9308    0.4593 C.ar      1 RES1    0.0000
     11 C6         7.9198   -0.2444   -0.6859 C.ar      1 RES1    0.0000
     12 C7         7.7041   -0.9298   -1.8721 C.ar      1 RES1    0.0000
     13 C8         7.8997   -2.2985   -1.9387 C.ar      1 RES1    0.0000
     14 C9         8.3164   -2.9888   -0.8161 C.ar      1 RES1    0.0000
     15 C10        8.5473   -2.3102    0.3701 C.ar      1 RES1    0.0000
     16 O5         4.7280    7.2055    2.7692 O.2       2 RES2    0.0000
     17 O6         5.6009    5.1256    2.8143 O.3       2 RES2    0.0000
     18 O7         4.9854    7.8140    6.1217 O.2       2 RES2    0.0000
     19 O8         6.2878    8.8371    4.7633 O.2       2 RES2    0.0000
     20 N2         5.7755    7.8389    5.1918 N.pl3     2 RES2    0.0000
     21 C11        6.1273    6.5497    4.5705 C.2       2 RES2    0.0000
     22 C12        6.9845    5.7154    5.1406 C.2       2 RES2    0.0000
     23 C13        5.4031    6.3525    3.2900 C.2       2 RES2    0.0000
     24 C14        4.9161    4.8109    1.5789 C.3       2 RES2    0.0000
     25 C15        7.7761    5.8300    6.3596 C.ar      2 RES2    0.0000
     26 C16        8.0245    7.0364    7.0414 C.ar      2 RES2    0.0000
     27 C17        8.8150    7.0502    8.1773 C.ar      2 RES2    0.0000
     28 C18        9.3650    5.8744    8.6613 C.ar      2 RES2    0.0000
     29 C19        9.1453    4.6865    7.9959 C.ar      2 RES2    0.0000
     30 C20        8.3721    4.6654    6.8486 C.ar      2 RES2    0.0000
@<TRIPOS>BOND
     1    1    8 2
     2    2    8 1
     3    3    5 2
     4    4    5 2
     5    5    6 1
     6    6    7 2
     7    7   10 1
     8    8    6 1
     9    9    2 1
    10   10   11 ar
    11   11   12 ar
    12   12   13 ar
    13   13   14 ar
    14   14   15 ar
    15   15   10 ar
    16   16   23 2
    17   17   23 1
    18   18   20 2
    19   19   20 2
    20   20   21 1
    21   21   22 2
    22   22   25 1
    23   23   21 1
    24   24   17 1
    25   25   26 ar
    26   26   27 ar
    27   27   28 ar
    28   28   29 ar
    29   29   30 ar
    30   30   25 ar
@<TRIPOS>SUBSTRUCTURE
     1 RES1 1
     2 RES2 16

@<TRIPOS>CRYSIN
   9.8280   10.2970   11.6070  67.7100  67.2900  70.5600   2 1

