# MOL2 file generated by ConQuest
# Please check atom types

@<TRIPOS>MOLECULE
BESNAO01
    48    48     2
SMALL
NO_CHARGES
****
Generated from CSD

@<TRIPOS>ATOM
      1 C1         8.9106    0.6259    2.9019 C.2       1 RES1    0.0000
      2 C2         8.5130    1.7861    3.4088 C.2       1 RES1    0.0000
      3 H1         7.9694    2.2842    2.8421 H         1 RES1    0.0000
      4 C3         8.7770    2.4178    4.6938 C.ar      1 RES1    0.0000
      5 C4         8.5780    3.7880    4.7907 C.ar      1 RES1    0.0000
      6 H2         8.2906    4.2605    4.0429 H         1 RES1    0.0000
      7 C5         8.7953    4.4570    5.9615 C.ar      1 RES1    0.0000
      8 H3         8.6657    5.3778    5.9997 H         1 RES1    0.0000
      9 C6         9.2050    3.7792    7.0816 C.ar      1 RES1    0.0000
     10 H4         9.3589    4.2361    7.8769 H         1 RES1    0.0000
     11 C7         9.3857    2.4213    7.0164 C.ar      1 RES1    0.0000
     12 H5         9.6568    1.9570    7.7756 H         1 RES1    0.0000
     13 C8         9.1714    1.7427    5.8498 C.ar      1 RES1    0.0000
     14 H6         9.2914    0.8212    5.8260 H         1 RES1    0.0000
     15 C9         8.5963    0.0843    1.5690 C.2       1 RES1    0.0000
     16 C10        7.4887    0.5228   -0.4654 C.3       1 RES1    0.0000
     17 H7         8.2862    0.3970   -0.9856 H         1 RES1    0.0000
     18 H8         6.9472    1.2036   -0.8708 H         1 RES1    0.0000
     19 H9         6.9958   -0.2999   -0.4303 H         1 RES1    0.0000
     20 C11        9.0283    7.7486   10.8977 C.2       2 RES2    0.0000
     21 C12        8.1734    8.5960   10.3264 C.2       2 RES2    0.0000
     22 H10        8.0647    9.3950   10.7883 H         2 RES2    0.0000
     23 C13        7.3774    8.4983    9.1077 C.ar      2 RES2    0.0000
     24 C14        6.8115    9.6739    8.6247 C.ar      2 RES2    0.0000
     25 H11        6.9513   10.4704    9.0839 H         2 RES2    0.0000
     26 C15        6.0516    9.6765    7.4798 C.ar      2 RES2    0.0000
     27 H12        5.6944   10.4747    7.1633 H         2 RES2    0.0000
     28 C16        5.8202    8.5120    6.8075 C.ar      2 RES2    0.0000
     29 H13        5.3160    8.5188    6.0256 H         2 RES2    0.0000
     30 C17        6.3298    7.3305    7.2843 C.ar      2 RES2    0.0000
     31 H14        6.1501    6.5360    6.8354 H         2 RES2    0.0000
     32 C18        7.1052    7.3125    8.4199 C.ar      2 RES2    0.0000
     33 H15        7.4495    6.5071    8.7322 H         2 RES2    0.0000
     34 C19        9.7512    7.9388   12.1649 C.2       2 RES2    0.0000
     35 C20       10.1983    9.4478   13.9066 C.3       2 RES2    0.0000
     36 H16        9.8800    8.8595   14.5944 H         2 RES2    0.0000
     37 H17       10.0109   10.3575   14.1518 H         2 RES2    0.0000
     38 H18       11.1449    9.3334   13.8011 H         2 RES2    0.0000
     39 N1         9.8147   -0.2796    3.6369 N.pl3     1 RES1    0.0000
     40 N2         9.3669    6.4622   10.2664 N.pl3     2 RES2    0.0000
     41 O1        11.0020   -0.0412    3.5856 O.2       1 RES1    0.0000
     42 O2         9.3318   -1.2080    4.2414 O.2       1 RES1    0.0000
     43 O3         8.9981   -0.9683    1.1719 O.2       1 RES1    0.0000
     44 O4         7.8468    0.9264    0.8733 O.3       1 RES1    0.0000
     45 O5         8.8308    5.4597   10.6694 O.2       2 RES2    0.0000
     46 O6        10.1727    6.4784    9.3652 O.2       2 RES2    0.0000
     47 O7        10.4427    7.0872   12.6634 O.2       2 RES2    0.0000
     48 O8         9.5389    9.1395   12.6697 O.3       2 RES2    0.0000
@<TRIPOS>BOND
     1    1    2 2
     2    2    3 1
     3    4    2 1
     4    5    4 ar
     5    6    5 1
     6    7    5 ar
     7    8    7 1
     8    9    7 ar
     9   10    9 1
    10   11    9 ar
    11   12   11 1
    12   13    4 ar
    13   14   13 1
    14   15    1 1
    15   16   17 1
    16   18   16 1
    17   19   16 1
    18   20   21 2
    19   21   22 1
    20   23   21 1
    21   24   23 ar
    22   25   24 1
    23   26   24 ar
    24   27   26 1
    25   28   26 ar
    26   29   28 1
    27   30   28 ar
    28   31   30 1
    29   32   23 ar
    30   33   32 1
    31   34   20 1
    32   35   36 1
    33   37   35 1
    34   38   35 1
    35   39    1 1
    36   40   20 1
    37   41   39 2
    38   42   39 2
    39   43   15 2
    40   44   15 1
    41   45   40 2
    42   46   40 2
    43   47   34 2
    44   48   34 1
    45   11   13 ar
    46   16   44 1
    47   30   32 ar
    48   35   48 1
@<TRIPOS>SUBSTRUCTURE
     1 RES1 1
     2 RES2 20

@<TRIPOS>CRYSIN
  10.0106   10.4397   11.6615  68.0510  67.5410  70.2030   2 1

