# MOL2 file generated by ConQuest
# Please check atom types

@<TRIPOS>MOLECULE
BESVEC
    40    42     1
SMALL
NO_CHARGES
****
Generated from CSD

@<TRIPOS>ATOM
      1 C1         1.1493    1.1372    9.4332 C.3       1 RES1    0.0000
      2 H1         1.9334    0.6577    9.0915 H         1 RES1    0.0000
      3 C2         1.0817    1.0180   10.9380 C.3       1 RES1    0.0000
      4 H2         0.8263    0.1359   11.2807 H         1 RES1    0.0000
      5 C3         0.3006    2.2125   11.5276 C.3       1 RES1    0.0000
      6 H3        -0.0184    2.0716   12.4327 H         1 RES1    0.0000
      7 H4        -0.4030    2.5517   10.9521 H         1 RES1    0.0000
      8 C4         1.6406    3.0042   11.4363 C.3       1 RES1    0.0000
      9 H5         1.8044    3.6405   12.1640 H         1 RES1    0.0000
     10 C5         1.7815    3.5657   10.0351 C.3       1 RES1    0.0000
     11 H6         2.7209    3.7155    9.8416 H         1 RES1    0.0000
     12 H7         1.3253    4.4199    9.9833 H         1 RES1    0.0000
     13 C6         1.1911    2.6068    8.9849 C.3       1 RES1    0.0000
     14 H8         0.2895    2.8935    8.7727 H         1 RES1    0.0000
     15 H9         1.7186    2.6710    8.1728 H         1 RES1    0.0000
     16 C7         2.3732    1.6367   11.5647 C.3       1 RES1    0.0000
     17 C8         2.5399    1.2129   13.0214 C.3       1 RES1    0.0000
     18 H10        1.7105    1.3388   13.4882 H         1 RES1    0.0000
     19 H11        3.2234    1.7456   13.4332 H         1 RES1    0.0000
     20 H12        2.7897    0.2868   13.0582 H         1 RES1    0.0000
     21 C9         3.7006    1.4272   10.8460 C.3       1 RES1    0.0000
     22 H13        3.6123    1.6898    9.9271 H         1 RES1    0.0000
     23 H14        3.9466    0.5002   10.8910 H         1 RES1    0.0000
     24 H15        4.3799    1.9590   11.2673 H         1 RES1    0.0000
     25 C10       -0.1470   -0.7379    8.6895 C.2       1 RES1    0.0000
     26 C11       -1.4419   -1.1375    8.0592 C.ar      1 RES1    0.0000
     27 C12       -1.6842   -2.4960    7.9004 C.ar      1 RES1    0.0000
     28 H16       -1.0582   -3.1278    8.1728 H         1 RES1    0.0000
     29 C13       -2.8799   -2.8824    7.3257 C.ar      1 RES1    0.0000
     30 C14       -3.8350   -1.9765    6.9006 C.ar      1 RES1    0.0000
     31 H17       -4.6300   -2.2675    6.5163 H         1 RES1    0.0000
     32 C15       -3.5760   -0.6294    7.0622 C.ar      1 RES1    0.0000
     33 H18       -4.2029   -0.0025    6.7801 H         1 RES1    0.0000
     34 C16       -2.3915   -0.2042    7.6406 C.ar      1 RES1    0.0000
     35 H19       -2.2283    0.7053    7.7501 H         1 RES1    0.0000
     36 N1        -3.1409   -4.3169    7.1598 N.pl3     1 RES1    0.0000
     37 O1        -0.0748    0.5959    8.8346 O.3       1 RES1    0.0000
     38 O2         0.7052   -1.5090    9.0218 O.2       1 RES1    0.0000
     39 O3        -4.0923   -4.6571    6.4607 O.2       1 RES1    0.0000
     40 O4        -2.3946   -5.1062    7.7227 O.2       1 RES1    0.0000
@<TRIPOS>BOND
     1    1    2 1
     2    3    1 1
     3    4    3 1
     4    5    3 1
     5    6    5 1
     6    7    5 1
     7    8    5 1
     8    9    8 1
     9   10    8 1
    10   11   10 1
    11   12   10 1
    12   13    1 1
    13   14   13 1
    14   15   13 1
    15   16    3 1
    16   17   16 1
    17   18   17 1
    18   19   17 1
    19   20   17 1
    20   21   16 1
    21   22   21 1
    22   23   21 1
    23   24   21 1
    24   25   26 1
    25   26   27 ar
    26   27   28 1
    27   29   27 ar
    28   30   29 ar
    29   31   30 1
    30   32   30 ar
    31   33   32 1
    32   34   26 ar
    33   35   34 1
    34   36   29 1
    35   37    1 1
    36   38   25 2
    37   39   36 2
    38   40   36 2
    39    8   16 1
    40   10   13 1
    41   25   37 1
    42   32   34 ar
@<TRIPOS>SUBSTRUCTURE
     1 RES1 1

@<TRIPOS>CRYSIN
   7.2654    8.3363   12.6898  90.0000 105.6980  90.0000   4 1

