# MOL2 file generated by ConQuest
# Please check atom types

@<TRIPOS>MOLECULE
BESVOM
    38    40     1
SMALL
NO_CHARGES
****
Generated from CSD

@<TRIPOS>ATOM
      1 O1         4.5274    1.2028    7.0558 O.3       1 RES1    0.0000
      2 O2         2.8994    6.1947    3.6264 O.2       1 RES1    0.0000
      3 O3         4.0168    5.0410    2.1939 O.2       1 RES1    0.0000
      4 N1         3.5558    5.2032    3.3109 N.pl3     1 RES1    0.0000
      5 C1         3.3580    3.2876    6.4935 C.ar      1 RES1    0.0000
      6 H1         2.9302    3.3359    7.3180 H         1 RES1    0.0000
      7 C2         3.7848    4.1709    4.3175 C.ar      1 RES1    0.0000
      8 C3         4.8942    2.1819    4.9827 C.ar      1 RES1    0.0000
      9 H2         5.4898    1.4893    4.8060 H         1 RES1    0.0000
     10 C4         4.3687    1.8444    9.4068 C.3       1 RES1    0.0000
     11 H3         4.5577    2.7835    9.2008 H         1 RES1    0.0000
     12 C5         3.1287    4.2531    5.5354 C.ar      1 RES1    0.0000
     13 H4         2.5405    4.9534    5.7053 H         1 RES1    0.0000
     14 C6         4.6649    3.1408    4.0405 C.ar      1 RES1    0.0000
     15 H5         5.0980    3.1024    3.2182 H         1 RES1    0.0000
     16 C7         4.2339    2.2389    6.2184 C.ar      1 RES1    0.0000
     17 C8         3.7646    1.0444    8.2851 C.3       1 RES1    0.0000
     18 H6         2.8357    1.3205    8.1403 H         1 RES1    0.0000
     19 C9         2.0564    1.4334   10.6554 C.3       1 RES1    0.0000
     20 H7         1.8356    0.7660   10.0018 H         1 RES1    0.0000
     21 H8         1.6594    2.2707   10.4035 H         1 RES1    0.0000
     22 H9         1.7199    1.1649   11.5138 H         1 RES1    0.0000
     23 C10        4.4536    0.3266   10.8763 C.3       1 RES1    0.0000
     24 H10        4.7148    0.1074   11.7958 H         1 RES1    0.0000
     25 C11        3.5841    1.5934   10.7305 C.3       1 RES1    0.0000
     26 C12        3.8963    2.6564   11.7839 C.3       1 RES1    0.0000
     27 H11        4.8475    2.7748   11.8467 H         1 RES1    0.0000
     28 H12        3.5523    2.3737   12.6347 H         1 RES1    0.0000
     29 H13        3.4865    3.4860   11.5315 H         1 RES1    0.0000
     30 C13        3.8251   -0.4767    8.5823 C.3       1 RES1    0.0000
     31 H14        3.0406   -0.8986    8.1972 H         1 RES1    0.0000
     32 H15        4.6044   -0.8482    8.1403 H         1 RES1    0.0000
     33 C14        5.5418    1.0499   10.0386 C.3       1 RES1    0.0000
     34 H16        6.1554    1.5901   10.5599 H         1 RES1    0.0000
     35 H17        6.0153    0.4745    9.4165 H         1 RES1    0.0000
     36 C15        3.8909   -0.8296   10.0741 C.3       1 RES1    0.0000
     37 H18        3.0013   -1.0444   10.3952 H         1 RES1    0.0000
     38 H19        4.4515   -1.6120   10.1973 H         1 RES1    0.0000
@<TRIPOS>BOND
     1    1   16 1
     2    2    4 2
     3    3    4 2
     4    4    7 1
     5    5    6 1
     6    7   12 ar
     7    8    9 1
     8   10   11 1
     9   12    5 ar
    10   13   12 1
    11   14    7 ar
    12   15   14 1
    13   16    5 ar
    14   17    1 1
    15   18   17 1
    16   19   20 1
    17   21   19 1
    18   22   19 1
    19   23   24 1
    20   25   10 1
    21   26   25 1
    22   27   26 1
    23   28   26 1
    24   29   26 1
    25   30   17 1
    26   31   30 1
    27   32   30 1
    28   33   10 1
    29   34   33 1
    30   35   33 1
    31   36   23 1
    32   37   36 1
    33   38   36 1
    34    8   14 ar
    35    8   16 ar
    36   10   17 1
    37   19   25 1
    38   23   25 1
    39   23   33 1
    40   30   36 1
@<TRIPOS>SUBSTRUCTURE
     1 RES1 1

@<TRIPOS>CRYSIN
  10.6165   10.9588   11.8491  90.0000  90.0000  90.0000  19 1

